data_mof_unit_60406.cif
_audit_creation_date              2013-03-05T15:49:30-0500
_audit_creation_method            fapswitch 2.2
_symmetry_space_group_name_H-M    P1
_symmetry_Int_Tables_number       1
_space_group_crystal_system       triclinic
_cell_length_a                    30.382972
_cell_length_b                    30.375873
_cell_length_c                    29.305313
_cell_angle_alpha                 90.013633
_cell_angle_beta                  90.025904
_cell_angle_gamma                 89.99969
_cell_volume                      27046.1423428

loop_
_atom_site_label
_atom_site_type_symbol
_atom_site_description
_atom_site_fract_x
_atom_site_fract_y
_atom_site_fract_z
_atom_type_partial_charge
O1    O     O_R   0.537560 0.935150 0.000030 -0.548887
O2    O     O_R   0.064850 0.537560 0.000030 -0.548753
O3    O     O_R   0.462440 0.064850 0.000030 -0.548186
O4    O     O_R   0.935150 0.462440 0.000030 -0.547897
O5    O     O_R   0.462440 0.935150 0.999970 -0.548735
O6    O     O_R   0.935150 0.537560 0.999970 -0.548264
O7    O     O_R   0.537560 0.064850 0.999970 -0.548092
O8    O     O_R   0.064850 0.462440 0.999970 -0.548767
O9    O     O_R   0.037560 0.435150 0.500030 -0.548721
O10   O     O_R   0.564850 0.037560 0.500030 -0.548413
O11   O     O_R   0.962440 0.564850 0.500030 -0.548070
O12   O     O_R   0.435150 0.962440 0.500030 -0.548149
O13   O     O_R   0.962440 0.435150 0.499970 -0.548853
O14   O     O_R   0.435150 0.037560 0.499970 -0.548395
O15   O     O_R   0.037560 0.564850 0.499970 -0.548061
O16   O     O_R   0.564850 0.962440 0.499970 -0.548139
C1    C     C_R   0.499998 0.914863 0.999980 0.887081
C2    C     C_R   0.085143 0.500002 0.000022 0.886962
C3    C     C_R   0.499998 0.085239 0.000016 0.890713
C4    C     C_R   0.914755 0.500001 0.999984 0.890674
C5    C     C_R   0.000000 0.414865 0.500001 0.887046
C6    C     C_R   0.585244 0.000001 0.500016 0.889810
C7    C     C_R   0.999999 0.585237 0.499994 0.890521
C8    C     C_R   0.414755 0.000002 0.499987 0.889819
O17   O     O_R   0.537550 0.000020 0.061980 -0.552364
O18   O     O_R   0.999980 0.537550 0.061980 -0.552386
O19   O     O_R   0.462450 0.999980 0.061980 -0.546115
O20   O     O_R   0.000020 0.462450 0.061980 -0.546070
O21   O     O_R   0.462450 0.000020 0.938020 -0.552246
O22   O     O_R   0.000020 0.537550 0.938020 -0.546228
O23   O     O_R   0.537550 0.999980 0.938020 -0.546242
O24   O     O_R   0.999980 0.462450 0.938020 -0.552179
O25   O     O_R   0.037550 0.500020 0.561980 -0.552106
O26   O     O_R   0.499980 0.037550 0.561980 -0.549824
O27   O     O_R   0.962450 0.499980 0.561980 -0.546307
O28   O     O_R   0.500020 0.962450 0.561980 -0.549421
O29   O     O_R   0.962450 0.500020 0.438020 -0.552442
O30   O     O_R   0.500020 0.037550 0.438020 -0.549798
O31   O     O_R   0.037550 0.499980 0.438020 -0.545925
O32   O     O_R   0.499980 0.962450 0.438020 -0.549446
C9    C     C_R   0.500010 0.999886 0.084546 0.840603
C10   C     C_R   0.000110 0.500004 0.084550 0.840390
C11   C     C_R   0.499990 0.999889 0.915453 0.840613
C12   C     C_R   0.000113 0.499991 0.915450 0.840442
C13   C     C_R   0.000012 0.499889 0.584547 0.840442
C14   C     C_R   0.500001 0.000002 0.584550 0.843982
C15   C     C_R   0.999992 0.499887 0.415453 0.840532
C16   C     C_R   0.499999 0.999993 0.415449 0.843978
Cu1   Cu    Cu3+1 0.544460 0.000000 0.000000 1.148828
Cu2   Cu    Cu3+1 0.000000 0.544460 0.000000 1.148863
Cu3   Cu    Cu3+1 0.455540 0.000000 0.000000 1.148950
Cu4   Cu    Cu3+1 0.000000 0.455540 0.000000 1.149720
Cu5   Cu    Cu3+1 0.044460 0.500000 0.500000 1.149765
Cu6   Cu    Cu3+1 0.500000 0.044460 0.500000 1.150767
Cu7   Cu    Cu3+1 0.955540 0.500000 0.500000 1.149125
Cu8   Cu    Cu3+1 0.500000 0.955540 0.500000 1.151714
C17   C     C_1   0.500027 0.999837 0.135827 -0.034990
C18   C     C_1   0.000151 0.499999 0.135832 -0.035214
C19   C     C_1   0.499973 0.999846 0.864173 -0.035196
C20   C     C_1   0.000165 0.499966 0.864168 -0.034981
C21   C     C_1   0.000044 0.499839 0.635828 -0.034600
C22   C     C_1   0.499996 0.999995 0.635835 -0.037923
C23   C     C_1   0.999990 0.499843 0.364171 -0.034710
C24   C     C_1   0.500004 0.999970 0.364165 -0.037919
C25   C     C_1   0.500028 0.999832 0.178337 0.090628
C26   C     C_1   0.000147 0.499966 0.178342 0.090923
C27   C     C_1   0.499972 0.999848 0.821663 0.090529
C28   C     C_1   0.000172 0.499935 0.821658 0.091057
C29   C     C_1   0.000077 0.499835 0.678339 0.091097
C30   C     C_1   0.499990 0.999965 0.678346 0.086936
C31   C     C_1   0.000020 0.499844 0.321661 0.091058
C32   C     C_1   0.500010 0.999937 0.321654 0.086947
C33   C     C_1   0.500023 0.999858 0.228738 0.087011
C34   C     C_1   0.000111 0.499917 0.228744 0.087670
C35   C     C_1   0.499977 0.999880 0.771262 0.086999
C36   C     C_1   0.000150 0.499892 0.771256 0.087703
C37   C     C_1   0.000119 0.499859 0.728741 0.087695
C38   C     C_1   0.499983 0.999918 0.728747 0.086223
C39   C     C_1   0.000070 0.499877 0.271259 0.087689
C40   C     C_1   0.500017 0.999892 0.271252 0.086237
C41   C     C_R   0.478053 0.658344 0.964816 -0.050945
C42   C     C_R   0.341591 0.478491 0.964555 -0.050588
C43   C     C_R   0.522296 0.341771 0.965059 -0.050959
C44   C     C_R   0.658172 0.522728 0.965317 -0.051238
C45   C     C_R   0.521528 0.658395 0.035436 -0.050654
C46   C     C_R   0.658235 0.477656 0.034928 -0.050930
C47   C     C_R   0.477273 0.341831 0.034691 -0.051277
C48   C     C_R   0.341659 0.521971 0.035164 -0.050903
C49   C     C_R   0.978327 0.158372 0.464652 -0.050679
C50   C     C_R   0.841751 0.977727 0.465018 -0.050867
C51   C     C_R   0.022414 0.841776 0.465133 -0.051051
C52   C     C_R   0.158177 0.022699 0.465293 -0.051170
C53   C     C_R   0.021653 0.158388 0.535370 -0.050700
C54   C     C_R   0.158247 0.977723 0.534970 -0.050910
C55   C     C_R   0.977467 0.841810 0.534819 -0.050975
C56   C     C_R   0.841823 0.022720 0.534705 -0.051187
C57   C     C_R   0.499882 0.635223 0.000073 -0.167681
C58   C     C_R   0.364773 0.500134 0.999915 -0.167733
C59   C     C_R   0.499872 0.364898 0.999926 -0.166816
C60   C     C_R   0.635105 0.500119 0.000079 -0.166846
C61   C     C_R   0.999990 0.135228 0.500011 -0.167720
C62   C     C_R   0.864890 0.000135 0.499913 -0.166797
C63   C     C_R   0.999964 0.864894 0.499986 -0.166845
C64   C     C_R   0.135110 0.000127 0.500083 -0.166833
C65   C     C_R   0.517041 0.704777 0.038232 -0.061075
C66   C     C_R   0.295263 0.517636 0.037926 -0.061188
C67   C     C_R   0.481016 0.295430 0.037252 -0.059441
C68   C     C_R   0.704623 0.481461 0.037468 -0.059153
C69   C     C_R   0.482402 0.704745 0.962049 -0.061225
C70   C     C_R   0.704567 0.518979 0.962755 -0.059396
C71   C     C_R   0.518450 0.295383 0.962504 -0.059193
C72   C     C_R   0.295214 0.482976 0.961762 -0.061047
C73   C     C_R   0.017212 0.204777 0.538146 -0.061336
C74   C     C_R   0.795428 0.018976 0.537261 -0.059501
C75   C     C_R   0.981223 0.795412 0.537354 -0.059405
C76   C     C_R   0.204633 0.981558 0.537515 -0.059235
C77   C     C_R   0.982770 0.204760 0.461874 -0.061320
C78   C     C_R   0.204572 0.018953 0.462738 -0.059452
C79   C     C_R   0.018584 0.795385 0.462574 -0.059463
C80   C     C_R   0.795366 0.981563 0.462476 -0.059247
C81   C     C_R   0.499744 0.728066 0.000128 0.002305
C82   C     C_R   0.271935 0.500281 0.999857 0.002267
C83   C     C_R   0.499764 0.272185 0.999902 0.002996
C84   C     C_R   0.727815 0.500184 0.000087 0.002980
C85   C     C_R   0.999992 0.228074 0.500010 0.002161
C86   C     C_R   0.772178 0.000234 0.499895 0.002954
C87   C     C_R   0.999893 0.772175 0.499963 0.002888
C88   C     C_R   0.227821 0.000225 0.500102 0.002976
C89   C     C_R   0.530654 0.728645 0.077427 0.223385
C90   C     C_R   0.271420 0.531439 0.077046 0.223206
C91   C     C_R   0.466856 0.271605 0.076263 0.224495
C92   C     C_R   0.728492 0.467321 0.076473 0.224546
C93   C     C_R   0.468618 0.728599 0.922918 0.223188
C94   C     C_R   0.728382 0.533171 0.923755 0.224444
C95   C     C_R   0.532495 0.271523 0.923462 0.224399
C96   C     C_R   0.271342 0.469360 0.922572 0.223514
C97   C     C_R   0.030797 0.228640 0.577353 0.223482
C98   C     C_R   0.771612 0.033134 0.576283 0.224445
C99   C     C_R   0.967066 0.771580 0.576354 0.224735
C100  C     C_R   0.228502 0.967520 0.576562 0.224424
C101  C     C_R   0.969185 0.228605 0.422667 0.223398
C102  C     C_R   0.228388 0.033098 0.423718 0.224456
C103  C     C_R   0.032632 0.771535 0.423527 0.224540
C104  C     C_R   0.771496 0.967508 0.423430 0.224445
C105  C     C_R   0.530174 0.774615 0.077633 0.260738
C106  C     C_R   0.225457 0.530884 0.077281 0.261037
C107  C     C_R   0.467263 0.225590 0.076320 0.262847
C108  C     C_R   0.774494 0.467497 0.076409 0.262523
C109  C     C_R   0.469183 0.774571 0.922681 0.261131
C110  C     C_R   0.774388 0.532772 0.923703 0.262751
C111  C     C_R   0.532253 0.225511 0.923504 0.262732
C112  C     C_R   0.225380 0.469825 0.922369 0.260675
C113  C     C_R   0.030277 0.274611 0.577577 0.260878
C114  C     C_R   0.725605 0.032745 0.576331 0.262794
C115  C     C_R   0.967241 0.725571 0.576314 0.262098
C116  C     C_R   0.274507 0.967746 0.576512 0.262845
C117  C     C_R   0.969705 0.274575 0.422442 0.260807
C118  C     C_R   0.274395 0.032714 0.423672 0.262784
C119  C     C_R   0.032330 0.725524 0.423530 0.262840
C120  C     C_R   0.725492 0.967705 0.423491 0.262748
C121  C     C_R   0.513959 0.798218 0.039589 -0.118021
C122  C     C_R   0.201837 0.514405 0.039361 -0.117652
C123  C     C_R   0.481161 0.202209 0.037207 -0.118655
C124  C     C_R   0.797818 0.481343 0.037255 -0.118765
C125  C     C_R   0.485649 0.798180 0.960613 -0.117674
C126  C     C_R   0.797774 0.518841 0.962807 -0.118579
C127  C     C_R   0.518530 0.202186 0.962703 -0.118590
C128  C     C_R   0.201780 0.486025 0.960414 -0.118107
C129  C     C_R   0.014063 0.298215 0.539533 -0.117962
C130  C     C_R   0.702219 0.018845 0.537210 -0.118611
C131  C     C_R   0.981179 0.702189 0.537213 -0.119043
C132  C     C_R   0.297820 0.981462 0.537305 -0.118568
C133  C     C_R   0.985928 0.298196 0.460482 -0.117889
C134  C     C_R   0.297780 0.018830 0.462794 -0.118603
C135  C     C_R   0.018570 0.702183 0.462707 -0.118616
C136  C     C_R   0.702178 0.981444 0.462696 -0.118631
C137  C     C_R   0.499783 0.774797 0.000111 -0.076855
C138  C     C_R   0.225207 0.500238 0.999876 -0.076757
C139  C     C_R   0.499816 0.225558 0.999938 -0.074745
C140  C     C_R   0.774438 0.500126 0.000051 -0.074620
C141  C     C_R   0.999994 0.274805 0.500008 -0.076691
C142  C     C_R   0.725557 0.000177 0.499933 -0.074710
C143  C     C_R   0.999882 0.725547 0.499964 -0.074417
C144  C     C_R   0.274442 0.000175 0.500066 -0.074739
C145  C     C_R   0.510765 0.844661 0.040065 0.286615
C146  C     C_R   0.155422 0.510987 0.039968 0.286515
C147  C     C_R   0.477945 0.155885 0.034799 0.281296
C148  C     C_R   0.844120 0.478000 0.034769 0.281088
C149  C     C_R   0.489086 0.844599 0.960005 0.286606
C150  C     C_R   0.844091 0.522076 0.965220 0.281310
C151  C     C_R   0.521931 0.155885 0.965203 0.281182
C152  C     C_R   0.155338 0.489173 0.959953 0.286644
C153  C     C_R   0.010784 0.344650 0.540050 0.286610
C154  C     C_R   0.655901 0.022068 0.534803 0.281480
C155  C     C_R   0.977992 0.655863 0.534799 0.281023
C156  C     C_R   0.344114 0.978058 0.534804 0.281342
C157  C     C_R   0.989216 0.344629 0.459958 0.286486
C158  C     C_R   0.344098 0.022057 0.465204 0.281480
C159  C     C_R   0.021919 0.655878 0.465166 0.281143
C160  C     C_R   0.655883 0.978047 0.465197 0.281301
C161  C     C_R   0.499976 0.867086 0.000007 -0.256971
C162  C     C_R   0.132923 0.500027 0.999991 -0.256845
C163  C     C_R   0.499981 0.133184 0.000021 -0.268583
C164  C     C_R   0.866807 0.500011 0.999978 -0.268458
C165  C     C_R   0.000000 0.367091 0.500003 -0.256669
C166  C     C_R   0.633189 0.000017 0.500020 -0.268170
C167  C     C_R   0.999983 0.633177 0.499989 -0.268092
C168  C     C_R   0.366810 0.000018 0.499985 -0.268212
O33   O     O_R   0.435100 0.500020 0.035870 -0.596280
O34   O     O_R   0.499980 0.435100 0.035870 -0.596360
O35   O     O_R   0.564900 0.499980 0.035870 -0.596454
O36   O     O_R   0.500020 0.564900 0.035870 -0.596434
O37   O     O_R   0.564900 0.500020 0.964130 -0.596358
O38   O     O_R   0.500020 0.435100 0.964130 -0.596500
O39   O     O_R   0.435100 0.499980 0.964130 -0.596391
O40   O     O_R   0.499980 0.564900 0.964130 -0.596311
O41   O     O_R   0.935100 0.000020 0.535870 -0.596395
O42   O     O_R   0.999980 0.935100 0.535870 -0.596479
O43   O     O_R   0.064900 0.999980 0.535870 -0.596475
O44   O     O_R   0.000020 0.064900 0.535870 -0.596406
O45   O     O_R   0.064900 0.000020 0.464130 -0.596386
O46   O     O_R   0.000020 0.935100 0.464130 -0.596456
O47   O     O_R   0.935100 0.999980 0.464130 -0.596513
O48   O     O_R   0.999980 0.064900 0.464130 -0.596436
C169  C     C_R   0.413363 0.500013 0.999981 0.850096
C170  C     C_R   0.499986 0.413407 0.999985 0.850540
C171  C     C_R   0.586595 0.500017 0.000018 0.850375
C172  C     C_R   0.499991 0.586635 0.000014 0.850230
C173  C     C_R   0.913403 0.000017 0.499981 0.850332
C174  C     C_R   0.999994 0.913405 0.499995 0.850496
C175  C     C_R   0.086597 0.000016 0.500019 0.850349
C176  C     C_R   0.999996 0.086638 0.500004 0.850183
Cu9   Cu    Cu3+1 0.500000 0.500000 0.042480 0.916489
Cu10  Cu    Cu3+1 0.500000 0.500000 0.957520 0.916478
Cu11  Cu    Cu3+1 0.000000 0.000000 0.542480 0.916472
Cu12  Cu    Cu3+1 0.000000 0.000000 0.457520 0.916461
C177  C     C_R   0.444711 0.634803 0.936455 0.119028
C178  C     C_R   0.456795 0.610174 0.897748 0.013390
C179  C     C_R   0.424904 0.587329 0.872787 -0.115589
C180  C     C_R   0.380719 0.589350 0.885825 -0.077769
C181  C     C_R   0.368315 0.614586 0.923536 -0.098348
C182  C     C_R   0.400135 0.637494 0.948548 -0.141387
H1    H     H_    0.490901 0.608387 0.887284 0.132767
H2    H     H_    0.434459 0.567995 0.843392 0.137060
H3    H     H_    0.356064 0.571574 0.866557 0.181108
H4    H     H_    0.334028 0.616450 0.933344 0.152690
H5    H     H_    0.390164 0.657458 0.977317 0.132255
C183  C     C_R   0.365018 0.445217 0.936022 0.118918
C184  C     C_R   0.389757 0.457444 0.897455 0.013922
C185  C     C_R   0.412502 0.425607 0.872340 -0.116623
C186  C     C_R   0.410233 0.381334 0.885052 -0.077215
C187  C     C_R   0.384828 0.368789 0.922575 -0.097352
C188  C     C_R   0.362029 0.400558 0.947745 -0.142537
H6    H     H_    0.391719 0.491618 0.887233 0.132904
H7    H     H_    0.431943 0.435272 0.843074 0.136833
H8    H     H_    0.427923 0.356723 0.865659 0.182116
H9    H     H_    0.382748 0.334435 0.932116 0.153534
H10   H     H_    0.341911 0.390484 0.976346 0.132328
C189  C     C_R   0.555354 0.365395 0.936478 0.119513
C190  C     C_R   0.542896 0.389704 0.897677 0.014890
C191  C     C_R   0.574487 0.412738 0.872531 -0.115288
C192  C     C_R   0.618741 0.411152 0.885431 -0.076555
C193  C     C_R   0.631523 0.386129 0.923164 -0.097119
C194  C     C_R   0.600002 0.363036 0.948359 -0.143100
H11   H     H_    0.508729 0.391125 0.887320 0.132968
H12   H     H_    0.564648 0.431869 0.843095 0.136600
H13   H     H_    0.643162 0.429064 0.866014 0.181394
H14   H     H_    0.665868 0.384564 0.932841 0.153184
H15   H     H_    0.610247 0.343170 0.977093 0.131855
C195  C     C_R   0.634446 0.555884 0.936926 0.119569
C196  C     C_R   0.610242 0.543582 0.897992 0.014256
C197  C     C_R   0.587110 0.575253 0.873021 -0.114210
C198  C     C_R   0.588452 0.619430 0.886263 -0.077198
C199  C     C_R   0.613307 0.632057 0.924181 -0.098310
C200  C     C_R   0.636504 0.600460 0.949199 -0.141914
H16   H     H_    0.608992 0.509475 0.887382 0.132847
H17   H     H_    0.568084 0.565533 0.843461 0.136788
H18   H     H_    0.570457 0.643912 0.866987 0.180259
H19   H     H_    0.614655 0.666342 0.934138 0.152253
H20   H     H_    0.656204 0.610593 0.978107 0.131806
C201  C     C_R   0.554805 0.634956 0.063965 0.118903
C202  C     C_R   0.542596 0.610205 0.102536 0.013966
C203  C     C_R   0.574434 0.587449 0.127645 -0.116518
C204  C     C_R   0.618692 0.589720 0.114923 -0.077255
C205  C     C_R   0.631220 0.615138 0.077398 -0.097368
C206  C     C_R   0.599449 0.637948 0.052235 -0.142529
H21   H     H_    0.508434 0.608242 0.112766 0.132907
H22   H     H_    0.564782 0.567998 0.156913 0.136820
H23   H     H_    0.643305 0.572019 0.134311 0.181923
H24   H     H_    0.665563 0.617221 0.067852 0.153473
H25   H     H_    0.609510 0.658078 0.023632 0.132304
C207  C     C_R   0.634602 0.444595 0.063503 0.119498
C208  C     C_R   0.610321 0.457058 0.102309 0.014871
C209  C     C_R   0.587278 0.425466 0.127452 -0.115371
C210  C     C_R   0.588826 0.381205 0.114542 -0.076754
C211  C     C_R   0.613819 0.368418 0.076801 -0.097164
C212  C     C_R   0.636921 0.399940 0.051611 -0.143016
H26   H     H_    0.608927 0.491230 0.112673 0.132923
H27   H     H_    0.568169 0.435310 0.156894 0.136546
H28   H     H_    0.570908 0.356784 0.133958 0.181353
H29   H     H_    0.615355 0.334067 0.067117 0.153090
H30   H     H_    0.656765 0.389689 0.022871 0.131837
C213  C     C_R   0.444127 0.365558 0.063077 0.119610
C214  C     C_R   0.456426 0.389760 0.102014 0.014254
C215  C     C_R   0.424763 0.412890 0.126979 -0.114248
C216  C     C_R   0.380596 0.411550 0.113729 -0.077122
C217  C     C_R   0.367972 0.386699 0.075807 -0.098260
C218  C     C_R   0.399561 0.363504 0.050795 -0.141964
H31   H     H_    0.490526 0.391009 0.112630 0.132858
H32   H     H_    0.434481 0.431914 0.156542 0.136797
H33   H     H_    0.356120 0.429544 0.133002 0.180273
H34   H     H_    0.333694 0.385353 0.065842 0.152321
H35   H     H_    0.389430 0.343807 0.021883 0.131839
C219  C     C_R   0.365209 0.555309 0.063525 0.119007
C220  C     C_R   0.389830 0.543208 0.102236 0.013349
C221  C     C_R   0.412691 0.575095 0.127192 -0.115491
C222  C     C_R   0.410695 0.619291 0.114143 -0.077694
C223  C     C_R   0.385465 0.631712 0.076427 -0.098352
C224  C     C_R   0.362542 0.599897 0.051421 -0.141355
H36   H     H_    0.391601 0.509094 0.112706 0.132755
H37   H     H_    0.432020 0.565526 0.156589 0.137099
H38   H     H_    0.428483 0.643941 0.133406 0.181146
H39   H     H_    0.383621 0.666008 0.066611 0.152705
H40   H     H_    0.342586 0.609881 0.022646 0.132257
C225  C     C_R   0.945025 0.134915 0.436160 0.118903
C226  C     C_R   0.957186 0.110148 0.397572 0.013793
C227  C     C_R   0.925314 0.087412 0.372481 -0.116596
C228  C     C_R   0.881068 0.089714 0.385240 -0.077155
C229  C     C_R   0.868586 0.115140 0.422788 -0.097454
C230  C     C_R   0.900392 0.137933 0.447932 -0.142453
H41   H     H_    0.991334 0.108168 0.387303 0.132814
H42   H     H_    0.934929 0.067955 0.343195 0.136839
H43   H     H_    0.856427 0.072034 0.365862 0.182331
H44   H     H_    0.834252 0.117247 0.432364 0.153530
H45   H     H_    0.890366 0.158074 0.476549 0.132390
C231  C     C_R   0.865354 0.944681 0.436382 0.119487
C232  C     C_R   0.889658 0.957170 0.397608 0.014836
C233  C     C_R   0.912604 0.925576 0.372358 -0.115996
C234  C     C_R   0.910933 0.881288 0.385130 -0.076628
C235  C     C_R   0.885923 0.868479 0.422844 -0.096812
C236  C     C_R   0.862914 0.900004 0.448137 -0.143136
H46   H     H_    0.891124 0.991359 0.387334 0.132888
H47   H     H_    0.931722 0.935436 0.342935 0.136530
H48   H     H_    0.928766 0.856864 0.365624 0.181963
H49   H     H_    0.884290 0.834109 0.432420 0.153265
H50   H     H_    0.843032 0.889735 0.476835 0.131842
C237  C     C_R   0.055518 0.865408 0.436615 0.119532
C238  C     C_R   0.043130 0.889725 0.397796 0.014698
C239  C     C_R   0.074768 0.912747 0.372704 -0.115328
C240  C     C_R   0.119002 0.911146 0.385678 -0.076576
C241  C     C_R   0.131715 0.886122 0.423434 -0.097292
C242  C     C_R   0.100146 0.863041 0.448576 -0.142917
H51   H     H_    0.008984 0.891154 0.387375 0.132831
H52   H     H_    0.064983 0.931880 0.343249 0.136539
H53   H     H_    0.143459 0.929046 0.366299 0.181624
H54   H     H_    0.166044 0.884546 0.433169 0.153191
H55   H     H_    0.110340 0.843175 0.477330 0.131961
C243  C     C_R   0.134466 0.055838 0.436869 0.119541
C244  C     C_R   0.110261 0.043513 0.397944 0.014148
C245  C     C_R   0.087213 0.075184 0.372892 -0.114756
C246  C     C_R   0.088636 0.119382 0.386048 -0.076864
C247  C     C_R   0.113477 0.132027 0.423968 -0.097998
C248  C     C_R   0.136595 0.100430 0.449063 -0.142082
H56   H     H_    0.108967 0.009392 0.387387 0.132838
H57   H     H_    0.068197 0.065450 0.343330 0.136883
H58   H     H_    0.070717 0.143866 0.366701 0.181192
H59   H     H_    0.114886 0.166328 0.433861 0.152500
H60   H     H_    0.156305 0.110580 0.477958 0.131845
C249  C     C_R   0.054952 0.134941 0.563863 0.118971
C250  C     C_R   0.042787 0.110188 0.602446 0.013790
C251  C     C_R   0.074656 0.087454 0.627534 -0.116672
C252  C     C_R   0.118902 0.089745 0.614776 -0.077288
C253  C     C_R   0.131388 0.115157 0.577232 -0.097468
C254  C     C_R   0.099586 0.137946 0.552090 -0.142406
H61   H     H_    0.008638 0.108215 0.612714 0.132781
H62   H     H_    0.065037 0.068007 0.656817 0.136777
H63   H     H_    0.143540 0.072066 0.634150 0.182221
H64   H     H_    0.165722 0.117253 0.567655 0.153523
H65   H     H_    0.109615 0.158074 0.523474 0.132404
C255  C     C_R   0.134637 0.944686 0.563594 0.119559
C256  C     C_R   0.110348 0.957186 0.602381 0.014800
C257  C     C_R   0.087374 0.925605 0.627606 -0.115846
C258  C     C_R   0.088998 0.881321 0.614794 -0.076475
C259  C     C_R   0.113990 0.868501 0.577065 -0.096825
C260  C     C_R   0.137026 0.900011 0.551795 -0.143103
H66   H     H_    0.108911 0.991374 0.612680 0.132878
H67   H     H_    0.068267 0.935474 0.657039 0.136562
H68   H     H_    0.071141 0.856907 0.634279 0.181884
H69   H     H_    0.115584 0.834133 0.567456 0.153313
H70   H     H_    0.156884 0.889734 0.523077 0.131860
C261  C     C_R   0.944375 0.865485 0.563326 0.119312
C262  C     C_R   0.956766 0.889799 0.602157 0.014708
C263  C     C_R   0.925135 0.912841 0.627250 -0.115315
C264  C     C_R   0.880903 0.911261 0.614266 -0.076504
C265  C     C_R   0.868185 0.886238 0.576499 -0.097200
C266  C     C_R   0.899747 0.863136 0.551358 -0.143069
H71   H     H_    0.990911 0.891208 0.612590 0.132891
H72   H     H_    0.934924 0.931971 0.656715 0.136618
H73   H     H_    0.856450 0.929175 0.633647 0.181741
H74   H     H_    0.833856 0.884676 0.566758 0.153192
H75   H     H_    0.889549 0.843261 0.522602 0.131949
C267  C     C_R   0.865534 0.055871 0.563130 0.119537
C268  C     C_R   0.889744 0.043563 0.602051 0.014148
C269  C     C_R   0.912787 0.075247 0.627106 -0.114784
C270  C     C_R   0.911353 0.119441 0.613958 -0.077044
C271  C     C_R   0.886505 0.132069 0.576043 -0.098080
C272  C     C_R   0.863392 0.100460 0.550945 -0.142025
H76   H     H_    0.891045 0.009447 0.612604 0.132815
H77   H     H_    0.931807 0.065526 0.656666 0.136828
H78   H     H_    0.929267 0.143935 0.633309 0.181088
H79   H     H_    0.885086 0.166367 0.566157 0.152399
H80   H     H_    0.843676 0.110597 0.522056 0.131824
N1    N     N_R   0.541876 0.706811 0.119181 0.139990
O49   O     O_R   0.510563 0.693577 0.146151 -0.338031
O50   O     O_R   0.582070 0.708495 0.134447 -0.266222
N2    N     N_R   0.293270 0.543003 0.118698 0.139816
O51   O     O_R   0.306340 0.511906 0.146046 -0.336891
O52   O     O_R   0.291685 0.583358 0.133527 -0.266297
N3    N     N_R   0.458185 0.293440 0.118662 0.138135
O53   O     O_R   0.490879 0.304247 0.145056 -0.340558
O54   O     O_R   0.418144 0.295771 0.134207 -0.267431
N4    N     N_R   0.706742 0.458933 0.118968 0.138420
O55   O     O_R   0.695750 0.491824 0.145008 -0.341375
O56   O     O_R   0.704538 0.419013 0.134896 -0.267605
N5    N     N_R   0.457060 0.706750 0.881264 0.139820
O57   O     O_R   0.488152 0.693667 0.853935 -0.337171
O58   O     O_R   0.416719 0.708350 0.866415 -0.266396
N6    N     N_R   0.706547 0.541867 0.881357 0.138178
O59   O     O_R   0.695737 0.509178 0.854952 -0.340214
O60   O     O_R   0.704209 0.581925 0.865827 -0.267493
N7    N     N_R   0.540828 0.293300 0.880966 0.138420
O61   O     O_R   0.507914 0.304297 0.854958 -0.341376
O62   O     O_R   0.580724 0.295539 0.865011 -0.267370
N8    N     N_R   0.293161 0.458163 0.880812 0.139977
O63   O     O_R   0.306388 0.489500 0.853857 -0.338273
O64   O     O_R   0.291479 0.417969 0.865528 -0.266304
N9    N     N_R   0.042052 0.206800 0.619093 0.139950
O65   O     O_R   0.010762 0.193574 0.646096 -0.338489
O66   O     O_R   0.082258 0.208485 0.634322 -0.266427
N10   N     N_R   0.793446 0.041788 0.618695 0.138196
O67   O     O_R   0.804270 0.009073 0.645042 -0.340492
O68   O     O_R   0.795759 0.081829 0.634300 -0.267520
N11   N     N_R   0.958611 0.793376 0.618826 0.138413
O69   O     O_R   0.991456 0.804395 0.644922 -0.341091
O70   O     O_R   0.918683 0.795526 0.634710 -0.267151
N12   N     N_R   0.206745 0.959207 0.619068 0.138411
O71   O     O_R   0.195766 0.992142 0.645055 -0.341673
O72   O     O_R   0.204514 0.919311 0.635056 -0.267580
N13   N     N_R   0.957925 0.206745 0.380928 0.139971
O73   O     O_R   0.989213 0.193507 0.353922 -0.338059
O74   O     O_R   0.917718 0.208425 0.365702 -0.266209
N14   N     N_R   0.206556 0.041730 0.381304 0.138186
O75   O     O_R   0.195733 0.009001 0.354959 -0.340469
O76   O     O_R   0.204240 0.081762 0.365697 -0.267361
N15   N     N_R   0.041054 0.793332 0.381060 0.138325
O77   O     O_R   0.008197 0.804304 0.354965 -0.341729
O78   O     O_R   0.080985 0.795572 0.365199 -0.267570
N16   N     N_R   0.793248 0.959205 0.380914 0.138454
O79   O     O_R   0.804258 0.992148 0.354969 -0.341743
O80   O     O_R   0.795454 0.919317 0.364880 -0.267690
N17   N     N_R   0.548852 0.796761 0.116294 0.193146
O81   O     O_R   0.588512 0.812687 0.113592 -0.246412
O82   O     O_R   0.529570 0.794517 0.155865 -0.208033
N18   N     N_R   0.203318 0.549847 0.115782 0.193121
O83   O     O_R   0.187003 0.589324 0.112610 -0.246897
O84   O     O_R   0.205803 0.531023 0.155582 -0.206686
N19   N     N_R   0.459319 0.203259 0.118693 0.190266
O85   O     O_R   0.420616 0.204582 0.137616 -0.202969
O86   O     O_R   0.491938 0.185110 0.140458 -0.264277
N20   N     N_R   0.796902 0.459370 0.118713 0.190152
O87   O     O_R   0.795722 0.420534 0.137389 -0.203780
O88   O     O_R   0.814940 0.491938 0.140689 -0.264248
N21   N     N_R   0.450226 0.796730 0.884179 0.193135
O89   O     O_R   0.410787 0.813116 0.887370 -0.247058
O90   O     O_R   0.469015 0.794216 0.844370 -0.207170
N22   N     N_R   0.796708 0.540751 0.881336 0.190301
O91   O     O_R   0.795364 0.579470 0.862423 -0.202909
O92   O     O_R   0.814886 0.508149 0.859573 -0.263551
N23   N     N_R   0.540133 0.203098 0.881153 0.190183
O93   O     O_R   0.578796 0.204413 0.862144 -0.203201
O94   O     O_R   0.507503 0.184803 0.859529 -0.264593
N24   N     N_R   0.203243 0.451182 0.883686 0.193133
O95   O     O_R   0.187458 0.411453 0.886295 -0.246069
O96   O     O_R   0.205405 0.470573 0.844161 -0.208656
N25   N     N_R   0.048933 0.296760 0.616249 0.193131
O97   O     O_R   0.088548 0.312792 0.613530 -0.246364
O98   O     O_R   0.029680 0.294445 0.655829 -0.208345
N26   N     N_R   0.703285 0.040701 0.618706 0.190294
O99   O     O_R   0.704602 0.079420 0.637642 -0.203061
O100  O     O_R   0.685144 0.008081 0.640456 -0.263367
N27   N     N_R   0.958937 0.703226 0.618596 0.190273
O101  O     O_R   0.919947 0.704205 0.636916 -0.203725
O102  O     O_R   0.991479 0.685642 0.640997 -0.262268
N28   N     N_R   0.296926 0.959865 0.618862 0.190126
O103  O     O_R   0.295614 0.921195 0.637883 -0.203453
O104  O     O_R   0.315235 0.992502 0.640470 -0.264756
N29   N     N_R   0.951035 0.296708 0.383777 0.193133
O105  O     O_R   0.911433 0.312769 0.386521 -0.246464
O106  O     O_R   0.970263 0.294359 0.344184 -0.207321
N30   N     N_R   0.296717 0.040661 0.381300 0.190286
O107  O     O_R   0.295400 0.079374 0.362374 -0.202943
O108  O     O_R   0.314858 0.008034 0.359543 -0.263367
N31   N     N_R   0.040198 0.703136 0.381162 0.190148
O109  O     O_R   0.078863 0.704438 0.362157 -0.203290
O110  O     O_R   0.007555 0.684888 0.359517 -0.264809
N32   N     N_R   0.703072 0.959757 0.381152 0.190131
O111  O     O_R   0.704336 0.921037 0.362212 -0.203685
O112  O     O_R   0.684837 0.992376 0.359459 -0.264562
N33   N     N_R   0.515042 0.869412 0.081588 0.129192
O113  O     O_R   0.548202 0.895920 0.087467 -0.301333
O114  O     O_R   0.483004 0.869400 0.111020 -0.303163
N34   N     N_R   0.130814 0.515104 0.081581 0.129246
O115  O     O_R   0.103971 0.547986 0.087485 -0.301717
O116  O     O_R   0.131452 0.483220 0.111198 -0.301705
N35   N     N_R   0.451352 0.131680 0.066622 0.158051
O117  O     O_R   0.408857 0.136930 0.066724 -0.267960
O118  O     O_R   0.469082 0.102344 0.093252 -0.336419
N36   N     N_R   0.868323 0.451349 0.066560 0.158020
O119  O     O_R   0.863166 0.408828 0.066494 -0.267584
O120  O     O_R   0.897626 0.469048 0.093263 -0.336342
N37   N     N_R   0.485058 0.869216 0.918378 0.129210
O121  O     O_R   0.452242 0.896129 0.912420 -0.302100
O122  O     O_R   0.516943 0.868477 0.888778 -0.302270
N38   N     N_R   0.868270 0.548729 0.933429 0.158055
O123  O     O_R   0.862973 0.591227 0.933351 -0.268089
O124  O     O_R   0.897623 0.531050 0.906799 -0.336012
N39   N     N_R   0.548610 0.131715 0.933418 0.158078
O125  O     O_R   0.591080 0.137157 0.933266 -0.267967
O126  O     O_R   0.530985 0.102282 0.906815 -0.336280
N40   N     N_R   0.130565 0.484763 0.918460 0.129188
O127  O     O_R   0.104193 0.451483 0.912650 -0.300678
O128  O     O_R   0.130352 0.516819 0.889036 -0.303690
N41   N     N_R   0.014950 0.369368 0.581607 0.129162
O129  O     O_R   0.048025 0.395968 0.587550 -0.301459
O130  O     O_R   0.982897 0.369212 0.611017 -0.303092
N42   N     N_R   0.631715 0.048685 0.566633 0.157955
O131  O     O_R   0.636975 0.091188 0.566749 -0.268097
O132  O     O_R   0.602386 0.030969 0.593256 -0.336353
N43   N     N_R   0.951552 0.631607 0.566706 0.157720
O133  O     O_R   0.908981 0.636257 0.566455 -0.267571
O134  O     O_R   0.969498 0.602552 0.593513 -0.336485
N44   N     N_R   0.368282 0.951364 0.566589 0.158056
O135  O     O_R   0.362820 0.908886 0.566755 -0.267699
O136  O     O_R   0.397720 0.968982 0.593188 -0.336519
N45   N     N_R   0.985069 0.369321 0.418394 0.129205
O137  O     O_R   0.952018 0.395946 0.412444 -0.301649
O138  O     O_R   0.017116 0.369107 0.388976 -0.302121
N46   N     N_R   0.368284 0.048662 0.433377 0.157958
O139  O     O_R   0.363027 0.091166 0.433269 -0.268019
O140  O     O_R   0.397610 0.030937 0.406749 -0.336344
N47   N     N_R   0.048559 0.631699 0.433353 0.158071
O141  O     O_R   0.091036 0.637083 0.433198 -0.267631
O142  O     O_R   0.030893 0.602287 0.406755 -0.336423
N48   N     N_R   0.631709 0.951359 0.433400 0.158019
O143  O     O_R   0.637094 0.908869 0.433279 -0.267724
O144  O     O_R   0.602306 0.968994 0.406779 -0.336550

loop_
_geom_bond_atom_site_label_1
_geom_bond_atom_site_label_2
_geom_bond_distance
_ccdc_geom_bond_type
C194  H15   1.081723 S    
C56   C62   1.414812 A    
C90   C106  1.396623 A    
O25   C13   1.318645 A    
N5    O57   1.300877 A    
C80   C104  1.420067 A    
C91   N3    1.432847 S    
C10   C18   1.502823 S    
N22   O92   1.300972 A    
C232  C233  1.398105 A    
C53   C249  1.492502 S    
N9    O65   1.300858 A    
C136  C142  1.420645 A    
O46   Cu12  1.980937 S    
C202  C203  1.398061 A    
C257  C258  1.397382 A    
C223  H39   1.082266 S    
C14   C22   1.502917 S    
C131  C143  1.420843 A    
C204  C205  1.396820 A    
O18   Cu2   1.828481 S    
N44   O135  1.300944 A    
C50   C231  1.492045 S    
C215  H32   1.082224 S    
C79   C103  1.420004 A    
C252  C253  1.396798 A    
C146  C162  1.396326 A    
N39   O126  1.301220 A    
N40   O127  1.301079 A    
O24   Cu4   1.828483 S    
C224  H40   1.081823 S    
C188  H10   1.081840 S    
C118  C134  1.412989 A    
C179  C180  1.397307 A    
O19   Cu3   1.828343 S    
C197  C198  1.397416 A    
Cu1   Cu3   2.701657 S    
Cu2   Cu4   2.701026 S    
C212  H30   1.081723 S    
O3    C3    1.298374 A    
C226  C227  1.398049 A    
C104  C120  1.397747 A    
C56   C267  1.491967 S    
C89   C105  1.396479 A    
C7    C167  1.456232 S    
C98   C114  1.397875 A    
C63   C174  1.473552 S    
Cu5   Cu7   2.701657 S    
C54   C64   1.415018 A    
N1    O50   1.301392 A    
C45   C201  1.492513 S    
O40   Cu10  1.980843 S    
N27   O102  1.301310 A    
C56   C74   1.416229 A    
C207  C212  1.402191 A    
C211  H29   1.082277 S    
C151  C163  1.400851 A    
C102  C118  1.397870 A    
C96   C112  1.396531 A    
C111  N23   1.435610 S    
N31   O110  1.300976 A    
C69   C93   1.419636 A    
C44   C60   1.414769 A    
C193  C194  1.398312 A    
C46   C207  1.492075 S    
C235  C236  1.398283 A    
C131  C155  1.412286 A    
C252  H63   1.082067 S    
C53   C61   1.414536 A    
N33   O114  1.300830 A    
O44   C176  1.241383 A    
C241  H54   1.082277 S    
C109  N21   1.434467 S    
C219  C220  1.407526 A    
C158  C168  1.401049 A    
C221  C222  1.397305 A    
C60   C171  1.473897 S    
C270  H78   1.082081 S    
C228  H43   1.082063 S    
C100  N12   1.432944 S    
C213  C214  1.407588 A    
C236  H50   1.081713 S    
N34   O115  1.301075 A    
C3    C163  1.456350 S    
C216  C217  1.396841 A    
O13   C5    1.296912 A    
C36   C37   1.245913 T    
C1    C161  1.451263 S    
C100  C116  1.397775 A    
C206  H25   1.081837 S    
C101  C117  1.396483 A    
C211  C212  1.398309 A    
N19   O86   1.300994 A    
C92   N4    1.432962 S    
O26   Cu6   1.828481 S    
N24   O96   1.301247 A    
C34   C39   1.245912 T    
N41   O130  1.300792 A    
O45   Cu12  1.981260 S    
C145  N33   1.436070 S    
C256  C257  1.398111 A    
C73   C97   1.419541 A    
C132  C156  1.412282 A    
C121  C137  1.424513 A    
C258  C259  1.396885 A    
O27   C13   1.318768 A    
C148  N36   1.436601 S    
O31   C15   1.318657 A    
C201  C206  1.402408 A    
C66   C90   1.419643 A    
C117  N29   1.434370 S    
C97   C113  1.396494 A    
N12   O72   1.301178 A    
C49   C61   1.414551 A    
C203  H22   1.082236 S    
N20   O87   1.301090 A    
C156  N44   1.436680 S    
C46   C68   1.416078 A    
C51   C63   1.414879 A    
C231  C232  1.407595 A    
C124  C148  1.412363 A    
C65   C89   1.419561 A    
N36   O119  1.301081 A    
C127  C151  1.412125 A    
C263  C264  1.397374 A    
C198  H18   1.082124 S    
C128  C152  1.414332 A    
C42   C183  1.492479 S    
C150  N38   1.436691 S    
N2    O51   1.300876 A    
N46   O140  1.301221 A    
C200  H20   1.081719 S    
C201  C202  1.407581 A    
C191  H12   1.082230 S    
C270  C271  1.396823 A    
C150  C164  1.401015 A    
C186  H8    1.082075 S    
C245  H57   1.082226 S    
C105  C121  1.414069 A    
C111  C127  1.412908 A    
O11   C7    1.298361 A    
C238  C239  1.398116 A    
C148  C164  1.400916 A    
C254  H65   1.081849 S    
C153  N41   1.436075 S    
C240  C241  1.396874 A    
N11   O70   1.301174 A    
C59   C170  1.473502 S    
C45   C57   1.414560 A    
C218  H35   1.081722 S    
C52   C64   1.414810 A    
C249  C254  1.402428 A    
O4    C4    1.298364 A    
C57   C172  1.475898 S    
C47   C67   1.416052 A    
C106  N18   1.434443 S    
C251  H62   1.082234 S    
C244  C245  1.398112 A    
N15   O78   1.301181 A    
O5    Cu3   1.980999 S    
C75   C99   1.419920 A    
C196  C197  1.398135 A    
C54   C255  1.492039 S    
C255  C256  1.407600 A    
C246  H58   1.082084 S    
C239  C240  1.397375 A    
C125  C137  1.424314 A    
C248  H60   1.081715 S    
C29   C37   1.477041 S    
C241  C242  1.398312 A    
C115  N27   1.435414 S    
O9    C5    1.296909 A    
O41   Cu11  1.981263 S    
C55   C261  1.492136 S    
C250  C251  1.398051 A    
N7    O62   1.301181 A    
N17   O81   1.300919 A    
C72   C82   1.422442 A    
C114  C130  1.412993 A    
C184  C185  1.398059 A    
N25   O97   1.300890 A    
O23   C11   1.318702 A    
C112  N24   1.434292 S    
N42   O132  1.301223 A    
O42   Cu11  1.980846 S    
C199  C200  1.398320 A    
C191  C192  1.397387 A    
C74   C86   1.421670 A    
C99   N11   1.432971 S    
C247  C248  1.398289 A    
C233  H47   1.082229 S    
C110  C126  1.413010 A    
N43   O134  1.301289 A    
N30   O107  1.300926 A    
C6    C166  1.456721 S    
C181  C182  1.398311 A    
O34   Cu9   1.980846 S    
O14   C8    1.298289 A    
C208  H26   1.082290 S    
C52   C78   1.416212 A    
C258  H68   1.082061 S    
C50   C62   1.415031 A    
O2    Cu2   1.981448 S    
C19   C27   1.245775 T    
C237  C242  1.402205 A    
C222  H38   1.082114 S    
C91   C107  1.397805 A    
C244  H56   1.082255 S    
O26   C14   1.318599 A    
O29   C15   1.318754 A    
Cu9   Cu10  2.489782 S    
O8    Cu4   1.981451 S    
O30   C16   1.318560 A    
C232  H46   1.082262 S    
C11   C19   1.502794 S    
C209  C210  1.397388 A    
C234  H48   1.082050 S    
C202  H21   1.082155 S    
C177  C178  1.407532 A    
C130  C142  1.420576 A    
O34   C170  1.240882 A    
C72   C96   1.419551 A    
C105  N17   1.434334 S    
C245  C246  1.397411 A    
C55   C63   1.414892 A    
C198  C199  1.396844 A    
C196  H16   1.082273 S    
N28   O104  1.300991 A    
C153  C165  1.396205 A    
N16   O79   1.300755 A    
C133  C157  1.414055 A    
C199  H19   1.082272 S    
C108  C124  1.413015 A    
O43   Cu11  1.981434 S    
C49   C225  1.492513 S    
C109  C125  1.413986 A    
C269  C270  1.397410 A    
C83   C139  1.416319 A    
C264  C265  1.396868 A    
C192  H13   1.082084 S    
C151  N39   1.436698 S    
C183  C188  1.402412 A    
N18   O83   1.300894 A    
C64   C175  1.473976 S    
C81   C137  1.419511 A    
C223  C224  1.398312 A    
N13   O74   1.301389 A    
C178  H1    1.082136 S    
C116  C132  1.412926 A    
O35   Cu9   1.981434 S    
C108  N20   1.435538 S    
N29   O106  1.301252 A    
C50   C80   1.416073 A    
C156  C168  1.400936 A    
O16   Cu8   1.981451 S    
C208  C209  1.398124 A    
C265  H74   1.082278 S    
N7    O61   1.300755 A    
C99   C115  1.397580 A    
C229  H44   1.082271 S    
C66   C82   1.422642 A    
C89   N1    1.432949 S    
O6    Cu2   1.981453 S    
N37   O122  1.300833 A    
C135  C159  1.412091 A    
N38   O124  1.301228 A    
C215  C216  1.397417 A    
C230  H45   1.081849 S    
C51   C237  1.492098 S    
N4    O55   1.300762 A    
C51   C79   1.415950 A    
C54   C76   1.416085 A    
C70   C94   1.420090 A    
C27   C35   1.477015 S    
C235  H49   1.082282 S    
N35   O117  1.300943 A    
C96   N8    1.432957 S    
C103  N15   1.432927 S    
N6    O59   1.300764 A    
O18   C10   1.318555 A    
C267  C268  1.407561 A    
O21   Cu3   1.828534 S    
C219  C224  1.402486 A    
C271  C272  1.398289 A    
C195  C200  1.402275 A    
O43   C175  1.240579 A    
C228  C229  1.396795 A    
C158  N46   1.436674 S    
N31   O109  1.300927 A    
C213  C218  1.402278 A    
C28   C36   1.477038 S    
C262  H71   1.082239 S    
C98   N10   1.432858 S    
O12   C8    1.298367 A    
O38   C170  1.240411 A    
O1    C1    1.296989 A    
C216  H33   1.082130 S    
C52   C243  1.491968 S    
C268  H76   1.082245 S    
C209  H27   1.082228 S    
C32   C40   1.477023 S    
C107  C123  1.412990 A    
C259  H69   1.082279 S    
C190  C191  1.398121 A    
C123  C139  1.420584 A    
C257  H67   1.082227 S    
C180  C181  1.396768 A    
N45   O138  1.300795 A    
C41   C177  1.492439 S    
C61   C176  1.475964 S    
N40   O128  1.300794 A    
C74   C98   1.420124 A    
C122  C138  1.424353 A    
O47   Cu12  1.981437 S    
O29   Cu7   1.828534 S    
C120  N32   1.435587 S    
C220  C221  1.398070 A    
C126  C140  1.420610 A    
O46   C174  1.240693 A    
N18   O84   1.301254 A    
N13   O73   1.300854 A    
C117  C133  1.414077 A    
C203  C204  1.397275 A    
C187  C188  1.398310 A    
C77   C85   1.422457 A    
C239  H52   1.082229 S    
C48   C58   1.414406 A    
C95   N7    1.432939 S    
C127  C139  1.420640 A    
C263  H72   1.082230 S    
C146  N34   1.436142 S    
N1    O49   1.300864 A    
C42   C58   1.414609 A    
O44   Cu11  1.980934 S    
C157  C165  1.396192 A    
N23   O93   1.300928 A    
C67   C83   1.421710 A    
N8    O63   1.300867 A    
C186  C187  1.396821 A    
N47   O142  1.301197 A    
C118  N30   1.435617 S    
O10   C6    1.298282 A    
C106  C122  1.414041 A    
C119  N31   1.435624 S    
C197  H17   1.082226 S    
N48   O144  1.301235 A    
C104  N16   1.432958 S    
O15   Cu5   1.980996 S    
C155  N43   1.436488 S    
N3    O54   1.301187 A    
C136  C160  1.412288 A    
C264  H73   1.082063 S    
C15   C23   1.502824 S    
N33   O113  1.301100 A    
C80   C86   1.421567 A    
C16   C24   1.502917 S    
O5    C1    1.296884 A    
N32   O112  1.301072 A    
C251  C252  1.397266 A    
C147  C163  1.400987 A    
C47   C213  1.492031 S    
N10   O67   1.300757 A    
C145  C161  1.396261 A    
O42   C174  1.240658 A    
C121  C145  1.414137 A    
C70   C84   1.421736 A    
N3    O53   1.300763 A    
C132  C144  1.420614 A    
O32   Cu8   1.828483 S    
N34   O116  1.300798 A    
C125  C149  1.413997 A    
Cu11  Cu12  2.489782 S    
C43   C189  1.492104 S    
C46   C60   1.414952 A    
C250  H61   1.082080 S    
C124  C140  1.420732 A    
C58   C169  1.476295 S    
O22   Cu2   1.828385 S    
C133  C141  1.424487 A    
N15   O77   1.300748 A    
C43   C59   1.414917 A    
N41   O129  1.301074 A    
O21   C11   1.318694 A    
N5    O58   1.301384 A    
O22   C12   1.318606 A    
O38   Cu10  1.980937 S    
O39   Cu10  1.981437 S    
O33   C169  1.241642 A    
O23   Cu1   1.828345 S    
C31   C39   1.477037 S    
N22   O91   1.300922 A    
C112  C128  1.414141 A    
C187  H9    1.082270 S    
C247  H59   1.082272 S    
N9    O66   1.301386 A    
C214  H31   1.082272 S    
C71   C83   1.421601 A    
C181  H4    1.082266 S    
C4    C164  1.456788 S    
C189  C194  1.402189 A    
C184  H6    1.082148 S    
C237  C238  1.407608 A    
C130  C154  1.412413 A    
C102  N14   1.432856 S    
N14   O75   1.300759 A    
N36   O120  1.301266 A    
C185  C186  1.397275 A    
C85   C141  1.419507 A    
C8    C168  1.456736 S    
O8    C2    1.296911 A    
C217  C218  1.398315 A    
O39   C169  1.241222 A    
N2    O52   1.301383 A    
C77   C101  1.419550 A    
C205  C206  1.398309 A    
O37   C171  1.240949 A    
C26   C34   1.477040 S    
C234  C235  1.396878 A    
O30   Cu6   1.828385 S    
N26   O100  1.300981 A    
C220  H36   1.082130 S    
C225  C230  1.402426 A    
C2    C162  1.451718 S    
O40   C172  1.241548 A    
C110  N22   1.435634 S    
C192  C193  1.396894 A    
C41   C69   1.417976 A    
C221  H37   1.082234 S    
C271  H79   1.082275 S    
C43   C71   1.415881 A    
N21   O90   1.301274 A    
N48   O143  1.300994 A    
O17   C9    1.318691 A    
O37   Cu10  1.981260 S    
C149  N37   1.436179 S    
C210  C211  1.396893 A    
O11   Cu7   1.980998 S    
C183  C184  1.407571 A    
C82   C138  1.419730 A    
C178  C179  1.398069 A    
C207  C208  1.407610 A    
O16   C6    1.298365 A    
C152  N40   1.436010 S    
C17   C25   1.245772 T    
C262  C263  1.398113 A    
N35   O118  1.301228 A    
C266  H75   1.081737 S    
C129  C153  1.414070 A    
C265  C266  1.398301 A    
C103  C119  1.397676 A    
C210  H28   1.082079 S    
O6    C4    1.298303 A    
C44   C195  1.492009 S    
C193  H14   1.082278 S    
C177  C182  1.402487 A    
N32   O111  1.300995 A    
C9    C17   1.502795 S    
C227  C228  1.397264 A    
C159  N47   1.436684 S    
C71   C95   1.420019 A    
O31   Cu5   1.828345 S    
C12   C20   1.502819 S    
C95   C111  1.397684 A    
C13   C21   1.502821 S    
N30   O108  1.300983 A    
C68   C84   1.421608 A    
N20   O88   1.301209 A    
C225  C226  1.407563 A    
O17   Cu1   1.828531 S    
C267  C272  1.402286 A    
O36   C172  1.241097 A    
C155  C167  1.400794 A    
C20   C28   1.245793 T    
N24   O95   1.300893 A    
C113  C129  1.414089 A    
C195  C196  1.407583 A    
C69   C81   1.422631 A    
C190  H11   1.082296 S    
O47   C173  1.240560 A    
C42   C72   1.417999 A    
O13   Cu7   1.980999 S    
C160  N48   1.436655 S    
N44   O136  1.301217 A    
N12   O71   1.300754 A    
C30   C38   1.477024 S    
C87   C143  1.416378 A    
C229  C230  1.398303 A    
C268  C269  1.398110 A    
C88   C144  1.416486 A    
C259  C260  1.398291 A    
O36   Cu9   1.980934 S    
C75   C87   1.421552 A    
C261  C262  1.407604 A    
C101  N13   1.432934 S    
N16   O80   1.301176 A    
O4    Cu4   1.981452 S    
O28   Cu8   1.828381 S    
C240  H53   1.082071 S    
N46   O139  1.300940 A    
C157  N45   1.436088 S    
C217  H34   1.082272 S    
O48   C176  1.241333 A    
C227  H42   1.082235 S    
C107  N19   1.435627 S    
C73   C85   1.422462 A    
N39   O125  1.300939 A    
C94   C110  1.397865 A    
C25   C33   1.477014 S    
C123  C147  1.412276 A    
N29   O105  1.300894 A    
C5    C165  1.451183 S    
O32   C16   1.318488 A    
O41   C173  1.241015 A    
C18   C26   1.245790 T    
C55   C75   1.415956 A    
C62   C173  1.473980 S    
N27   O101  1.301173 A    
C179  H2    1.082234 S    
N37   O121  1.301091 A    
C114  N26   1.435616 S    
O15   C7    1.298400 A    
O35   C171  1.240559 A    
C242  H55   1.081739 S    
N4    O56   1.301176 A    
C120  C136  1.412943 A    
C22   C30   1.245796 T    
C222  C223  1.396771 A    
C78   C88   1.421671 A    
C45   C65   1.417844 A    
C256  H66   1.082262 S    
C48   C219  1.492414 S    
N6    O60   1.301187 A    
C238  H51   1.082232 S    
C47   C59   1.414707 A    
N17   O82   1.301264 A    
O25   Cu5   1.828531 S    
C261  C266  1.402201 A    
C154  C166  1.401040 A    
Cu6   Cu8   2.701026 S    
C134  C158  1.412419 A    
C68   C92   1.420005 A    
O3    Cu3   1.980998 S    
O27   Cu7   1.828343 S    
C92   C108  1.397711 A    
C93   C109  1.396561 A    
N42   O131  1.300943 A    
O7    Cu1   1.980996 S    
C67   C91   1.420063 A    
N47   O141  1.300909 A    
C122  C146  1.414167 A    
C53   C73   1.417876 A    
C149  C161  1.396268 A    
N21   O89   1.300919 A    
C205  H24   1.082272 S    
C44   C70   1.416226 A    
C126  C150  1.412412 A    
C253  H64   1.082271 S    
C154  N42   1.436673 S    
C231  C236  1.402196 A    
C48   C66   1.418147 A    
O19   C9    1.318704 A    
N19   O85   1.300935 A    
C129  C141  1.424488 A    
O45   C175  1.240994 A    
C159  C167  1.400743 A    
N45   O137  1.301079 A    
O24   C12   1.318438 A    
C65   C81   1.422445 A    
C243  C248  1.402286 A    
C272  H80   1.081713 S    
O28   C14   1.318445 A    
C147  N35   1.436693 S    
O12   Cu8   1.981452 S    
C214  C215  1.398135 A    
O14   Cu6   1.981453 S    
C49   C77   1.417865 A    
C76   C88   1.421590 A    
C86   C142  1.416496 A    
C97   N9    1.432934 S    
C189  C190  1.407626 A    
N43   O133  1.301153 A    
C90   N2    1.432853 S    
C249  C250  1.407559 A    
C21   C29   1.245789 T    
C185  H7    1.082235 S    
C134  C144  1.420573 A    
N28   O103  1.300929 A    
C160  C166  1.400912 A    
C135  C143  1.420683 A    
C23   C31   1.245790 T    
O2    C2    1.296801 A    
C78   C102  1.420124 A    
C204  H23   1.082087 S    
N8    O64   1.301388 A    
N23   O94   1.300984 A    
C246  C247  1.396826 A    
O7    C3    1.298462 A    
C182  H5    1.081822 S    
N26   O99   1.300929 A    
N14   O76   1.301185 A    
N11   O69   1.300757 A    
N25   O98   1.301248 A    
C94   N6    1.432851 S    
C253  C254  1.398303 A    
O20   Cu4   1.828381 S    
C113  N25   1.434357 S    
C180  H3    1.082112 S    
C41   C57   1.414338 A    
C128  C138  1.424574 A    
O20   C10   1.318488 A    
C33   C40   1.245898 T    
N10   O68   1.301186 A    
C255  C260  1.402201 A    
C24   C32   1.245795 T    
C243  C244  1.407566 A    
O10   Cu6   1.981448 S    
C35   C38   1.245896 T    
O33   Cu9   1.981263 S    
C84   C140  1.416550 A    
O48   Cu12  1.980843 S    
C93   N5    1.432855 S    
C260  H70   1.081711 S    
C115  C131  1.413083 A    
O9    Cu5   1.981001 S    
N38   O123  1.300930 A    
C233  C234  1.397382 A    
C269  H77   1.082229 S    
C226  H41   1.082082 S    
C152  C162  1.396320 A    
C119  C135  1.412940 A    
C116  N28   1.435606 S    
O1    Cu1   1.981001 S    
C79   C87   1.421644 A    
C76   C100  1.420087 A    
