data_mof_unit_24492.cif
_audit_creation_date              2012-12-10T19:10:32-0500
_audit_creation_method            fapswitch 2.2
_symmetry_space_group_name_H-M    P1
_symmetry_Int_Tables_number       1
_space_group_crystal_system       triclinic
_cell_length_a                    10.641041
_cell_length_b                    9.71416
_cell_length_c                    15.712726
_cell_angle_alpha                 89.378233
_cell_angle_beta                  89.779665
_cell_angle_gamma                 89.688866
_cell_volume                      1624.07400969

loop_
_atom_site_label
_atom_site_type_symbol
_atom_type_description
_atom_site_fract_x
_atom_site_fract_y
_atom_site_fract_z
_atom_type_partial_charge
C1    C     C_R   0.257796 0.500750 0.502697 0.905332
C2    C     C_3   0.631739 0.457337 0.950790 -0.419278
C3    C     C_3   0.630776 0.453556 0.048934 -0.354535
C4    C     C_1   0.500139 0.497004 0.825940 -0.077711
C5    C     C_1   0.502002 0.505170 0.174000 -0.029925
C6    C     C_1   0.501462 0.503233 0.249336 -0.209493
C7    C     C_3   0.069967 0.655118 0.508849 0.397399
C8    C     C_3   0.071422 0.415988 0.581405 0.370744
C9    C     C_3   0.925767 0.653367 0.503064 -0.511144
C10   C     C_3   0.926503 0.423304 0.581926 -0.463541
C11   C     C_3   0.074363 0.437173 0.421037 -0.607555
C12   C     C_3   0.121364 0.503284 0.504870 0.025539
C13   C     C_3   0.878765 0.501814 0.501668 0.082917
C14   C     C_R   0.500418 0.500813 0.338192 0.903835
C15   C     C_3   0.930414 0.431456 0.420893 -0.426335
C16   C     C_3   0.375757 0.081362 0.523936 -0.252910
C17   C     C_3   0.375742 0.919186 0.523781 -0.200983
C18   C     C_3   0.529479 0.082389 0.412681 -0.222106
C19   C     C_3   0.529664 0.920024 0.412704 -0.239088
C20   C     C_3   0.594240 0.079627 0.558054 -0.231672
C21   C     C_3   0.594189 0.917344 0.558098 -0.240796
C22   C     C_R   0.742524 0.500084 0.500282 0.884600
C23   C     C_R   0.500304 0.499269 0.661761 0.924840
C24   C     C_3   0.476213 0.652397 0.046927 0.300436
C25   C     C_3   0.396308 0.406147 0.051356 0.312812
C26   C     C_3   0.400581 0.398402 0.952985 -0.484471
C27   C     C_3   0.468882 0.645751 0.947995 -0.482296
C28   C     C_1   0.500365 0.497520 0.750609 -0.227140
C29   C     C_3   0.501398 0.504449 0.082413 0.218708
C30   C     C_3   0.500254 0.499045 0.917321 0.268295
H1    H     H_    0.372531 0.675657 0.927177 0.132298
H2    H     H_    0.306239 0.425115 0.927022 0.132931
H3    H     H_    0.896978 0.706515 0.442904 0.151250
H4    H     H_    0.888695 0.316608 0.583428 0.139928
H5    H     H_    0.107635 0.497811 0.364851 0.182398
H6    H     H_    0.112480 0.330854 0.414269 0.201035
H7    H     H_    0.893647 0.483857 0.362660 0.176668
H8    H     H_    0.899764 0.322097 0.419053 0.188838
H9    H     H_    0.301565 0.120257 0.480026 0.148845
H10   H     H_    0.301941 0.883161 0.479467 0.168101
H11   H     H_    0.350110 0.118516 0.588418 0.135474
H12   H     H_    0.349787 0.879579 0.588144 0.178568
H13   H     H_    0.459472 0.120913 0.365665 0.149046
H14   H     H_    0.460027 0.883455 0.365531 0.150877
H15   H     H_    0.689583 0.117295 0.540717 0.146654
H16   H     H_    0.689537 0.879272 0.540822 0.151136
H17   H     H_    0.575141 0.116842 0.623556 0.151473
H18   H     H_    0.575079 0.878263 0.623631 0.152508
H19   H     H_    0.622593 0.120952 0.390885 0.145481
H20   H     H_    0.622994 0.881352 0.391166 0.149335
H21   H     H_    0.384363 0.689592 0.072828 0.034073
H22   H     H_    0.304365 0.452667 0.070897 0.035067
H23   H     H_    0.422996 0.291779 0.932332 0.204408
H24   H     H_    0.534768 0.719719 0.917389 0.196827
H25   H     H_    0.707808 0.519332 0.073186 0.196551
H26   H     H_    0.650526 0.347346 0.072398 0.190061
H27   H     H_    0.703108 0.532754 0.927977 0.177612
H28   H     H_    0.659815 0.355239 0.925803 0.180065
H29   H     H_    0.101306 0.706166 0.448581 0.085681
H30   H     H_    0.098187 0.306133 0.569864 0.061278
H31   H     H_    0.877094 0.710810 0.553700 0.180587
H32   H     H_    0.891068 0.474377 0.640376 0.170901
N1    N     N_3   0.499750 0.138610 0.498180 -0.033149
N2    N     N_3   0.499750 0.861390 0.498180 -0.044981
O1    O     O_R   0.314910 0.616040 0.499980 -0.594130
O2    O     O_R   0.314910 0.383960 0.499980 -0.657104
O3    O     O_R   0.500120 0.616090 0.377110 -0.624881
O4    O     O_R   0.500120 0.383910 0.377110 -0.622761
O5    O     O_R   0.685320 0.616040 0.499960 -0.638379
O6    O     O_R   0.685320 0.383960 0.499960 -0.634760
O7    O     O_R   0.500110 0.615990 0.622830 -0.614652
O8    O     O_R   0.500110 0.384010 0.622830 -0.632237
Zn1   Zn    Zn3+2 0.500150 0.654960 0.499960 0.919216
Zn2   Zn    Zn3+2 0.500150 0.345040 0.499960 0.895739
O9    O     O_3   0.414777 0.272734 0.087422 -0.647743
C31   C     C_3   0.299321 0.205704 0.103711 0.076395
H33   H     H_    0.315889 0.093271 0.097341 0.148160
H34   H     H_    0.224932 0.233723 0.056648 0.124887
C32   C     C_3   0.255175 0.234418 0.194830 -0.337264
H35   H     H_    0.330536 0.204134 0.240185 0.226491
H36   H     H_    0.236118 0.346192 0.202377 0.205031
C33   C     C_3   0.136118 0.154531 0.216721 -0.999455
H37   H     H_    0.058764 0.184987 0.173015 0.266687
H38   H     H_    0.106779 0.177388 0.282981 0.262511
H39   H     H_    0.153605 0.042067 0.211657 0.259153
O10   O     O_3   0.574425 0.740128 0.073831 -0.634710
C34   C     C_3   0.550263 0.880157 0.053664 0.097849
H40   H     H_    0.535865 0.937307 0.113833 0.150876
H41   H     H_    0.464258 0.897439 0.014398 0.123165
C35   C     C_3   0.665471 0.938238 0.007176 -0.319595
H42   H     H_    0.740881 0.958446 0.054116 0.209951
H43   H     H_    0.702322 0.862020 0.960967 0.224985
C36   C     C_3   0.634194 0.070495 0.958900 -1.002181
H44   H     H_    0.565470 0.050125 0.907559 0.262664
H45   H     H_    0.721151 0.112951 0.929763 0.258901
H46   H     H_    0.593718 0.146673 0.003189 0.303818
O11   O     O_3   0.127955 0.734452 0.574426 -0.641608
C37   C     C_3   0.056821 0.763304 0.648396 0.187671
H47   H     H_    0.122781 0.762861 0.703031 0.156285
H48   H     H_    0.986950 0.683217 0.664887 0.163133
C38   C     C_3   0.998795 0.908057 0.641682 -0.434416
H49   H     H_    0.074263 0.985867 0.648085 0.220520
H50   H     H_    0.954930 0.924643 0.578355 0.218250
C39   C     C_3   0.899445 0.930713 0.710482 -0.987998
H51   H     H_    0.821644 0.855934 0.703388 0.258799
H52   H     H_    0.859873 0.036329 0.704338 0.262721
H53   H     H_    0.941618 0.918112 0.774650 0.270949
O12   O     O_3   0.118983 0.466983 0.659397 -0.658761
C40   C     C_3   0.179703 0.363528 0.708472 0.070358
H54   H     H_    0.238903 0.416001 0.756088 0.170000
H55   H     H_    0.244799 0.299759 0.669498 0.137759
C41   C     C_3   0.084075 0.274121 0.756548 -0.378635
H56   H     H_    0.024705 0.340532 0.797726 0.224532
H57   H     H_    0.022011 0.221701 0.710677 0.217477
C42   C     C_3   0.149565 0.165233 0.811569 -0.979965
H58   H     H_    0.207461 0.095991 0.771286 0.259925
H59   H     H_    0.078090 0.102620 0.845783 0.266484
H60   H     H_    0.210694 0.214713 0.859305 0.257588

loop_
_geom_bond_atom_site_label_1
_geom_bond_atom_site_label_2
_ccdc_geom_bond_type
C34   H40   S    
C26   H2    S    
C38   H49   S    
C31   C32   S    
C39   H52   S    
O11   C37   S    
C27   H24   S    
C36   H44   S    
C9    H31   S    
C11   H6    S    
C31   H34   S    
C40   H55   S    
C17   N2    S    
C5    C6    T    
C18   N1    S    
C14   O3    A    
O4    Zn2   S    
C42   H58   S    
O2    Zn2   S    
O1    Zn1   S    
O12   C40   S    
C18   C19   S    
C7    H29   S    
C3    C29   S    
C9    C13   S    
C24   C29   S    
C39   H51   S    
C21   N2    S    
C17   H12   S    
C3    H25   S    
C15   H7    S    
C16   C17   S    
C42   H59   S    
O6    Zn2   S    
C1    O1    A    
N2    Zn1   S    
C24   C27   S    
O5    Zn1   S    
O3    Zn1   S    
C16   N1    S    
C22   O5    A    
C20   H15   S    
C21   H18   S    
C24   H21   S    
C38   H50   S    
C27   C30   S    
C9    H3    S    
C10   H32   S    
C1    C12   S    
C11   C15   S    
C8    O12   S    
C41   H57   S    
C41   H56   S    
C4    C28   T    
C5    C29   S    
C25   C29   S    
C7    C12   S    
C2    H27   S    
C27   H1    S    
C23   O7    A    
C31   H33   S    
O8    Zn2   S    
C40   C41   S    
O7    Zn1   S    
O10   C34   S    
C25   C26   S    
C33   H37   S    
C25   O9    S    
C17   H10   S    
O9    C31   S    
C15   H8    S    
C6    C14   S    
C3    H26   S    
C35   H43   S    
C19   N2    S    
C8    C12   S    
C42   H60   S    
C1    O2    A    
C10   H4    S    
C23   C28   S    
C8    C10   S    
C26   C30   S    
C38   C39   S    
C33   H38   S    
C13   C15   S    
C33   H39   S    
C26   H23   S    
C19   H14   S    
C35   C36   S    
C32   H36   S    
C21   H16   S    
C7    C9    S    
C7    O11   S    
C23   O8    A    
C10   C13   S    
C32   C33   S    
C11   C12   S    
C2    H28   S    
N1    Zn2   S    
C36   H46   S    
C37   C38   S    
C37   H48   S    
C2    C30   S    
C20   N1    S    
C11   H5    S    
C2    C3    S    
C25   H22   S    
C18   H13   S    
C8    H30   S    
C19   H20   S    
C35   H42   S    
C13   C22   S    
C41   C42   S    
C20   H17   S    
C16   H9    S    
C32   H35   S    
C20   C21   S    
C36   H45   S    
C37   H47   S    
C34   C35   S    
C34   H41   S    
C14   O4    A    
C40   H54   S    
C24   O10   S    
C16   H11   S    
C22   O6    A    
C39   H53   S    
C4    C30   S    
C18   H19   S    
