data_mof_unit_5336.cif
_audit_creation_date              2012-12-10T17:27:48-0500
_audit_creation_method            fapswitch 2.2
_symmetry_space_group_name_H-M    P1
_symmetry_Int_Tables_number       1
_space_group_crystal_system       triclinic
_cell_length_a                    10.685728
_cell_length_b                    12.036284
_cell_length_c                    12.880199
_cell_angle_alpha                 93.420033
_cell_angle_beta                  89.727869
_cell_angle_gamma                 85.360495
_cell_volume                      1648.16041493

loop_
_atom_site_label
_atom_site_type_symbol
_atom_type_description
_atom_site_fract_x
_atom_site_fract_y
_atom_site_fract_z
_atom_type_partial_charge
C1    C     C_R   0.497667 0.522434 0.700841 0.988645
C2    C     C_R   0.428006 0.635054 0.861857 0.257288
C3    C     C_R   0.533827 0.448428 0.871259 0.362048
C4    C     C_R   0.739697 0.499155 0.496568 1.034738
C5    C     C_R   0.501469 0.447860 0.976090 -0.123723
C6    C     C_R   0.438621 0.545401 0.026521 -0.171147
C7    C     C_R   0.419167 0.547339 0.134409 0.467471
C8    C     C_R   0.521914 0.360677 0.139093 -0.365634
C9    C     C_R   0.529652 0.351174 0.031431 0.516397
C10   C     C_R   0.366149 0.958916 0.418401 0.266959
C11   C     C_R   0.379246 0.840642 0.426621 0.499994
C12   C     C_R   0.942755 0.446949 0.405307 -0.034379
C13   C     C_R   0.561114 0.855180 0.529739 -0.117127
C14   C     C_R   0.549671 0.973040 0.527474 -0.162533
C15   C     C_R   0.450231 0.025604 0.472017 -0.027494
C16   C     C_R   0.491463 0.477738 0.300356 0.993563
C17   C     C_R   0.439302 0.144025 0.469162 -0.059924
C18   C     C_R   0.621576 0.156334 0.572324 0.552690
C19   C     C_R   0.636572 0.039713 0.577044 0.158602
C20   C     C_R   0.260683 0.500694 0.500370 0.909808
C21   C     C_R   0.886984 0.402413 0.313093 0.396605
C22   C     C_R   0.962514 0.343258 0.233716 0.040688
C23   C     C_R   0.872699 0.498899 0.491883 -0.122494
C24   C     C_R   0.094293 0.336060 0.242767 0.406731
C25   C     C_R   0.147658 0.390674 0.327343 -0.192575
C26   C     C_R   0.073755 0.445137 0.409534 -0.112696
C27   C     C_3   0.827303 0.537875 0.741273 -0.783599
C28   C     C_3   0.852631 0.963111 0.574414 -0.717395
C29   C     C_3   0.856011 0.189082 0.157600 -0.762522
C30   C     C_3   0.132978 0.736160 0.642110 -0.689696
C31   C     C_R   0.929059 0.555502 0.575702 0.108833
C32   C     C_R   0.058096 0.560202 0.574914 0.122918
C33   C     C_R   0.128540 0.501584 0.494576 -0.083131
C34   C     C_R   0.477425 0.461706 0.189634 -0.198435
C35   C     C_R   0.486928 0.536706 0.813234 -0.235535
C36   C     C_R   0.402661 0.639490 0.969412 0.362559
H1    H     H_    0.364511 0.185714 0.426060 0.213935
H2    H     H_    0.407201 0.795269 0.846938 0.351087
H3    H     H_    0.688816 0.354630 0.872558 0.362332
H4    H     H_    0.672674 0.290693 0.640851 0.399296
H5    H     H_    0.253929 0.957131 0.300153 0.356294
H6    H     H_    0.716979 0.931989 0.683629 0.221125
H7    H     H_    0.838619 0.893376 0.516226 0.217966
H8    H     H_    0.929752 0.936408 0.627039 0.229976
H9    H     H_    0.880664 0.036359 0.533916 0.273406
H10   H     H_    0.211196 0.814357 0.380610 0.313592
H11   H     H_    0.741870 0.418968 0.223476 0.346982
H12   H     H_    0.636495 0.812125 0.570774 0.170174
H13   H     H_    0.951758 0.300180 0.074419 0.238129
H14   H     H_    0.933971 0.125618 0.173189 0.245337
H15   H     H_    0.807380 0.161461 0.085789 0.248792
H16   H     H_    0.787369 0.195691 0.223194 0.264710
H17   H     H_    0.129246 0.223311 0.129152 0.347915
H18   H     H_    0.092146 0.603649 0.731312 0.232114
H19   H     H_    0.077333 0.789569 0.701834 0.205882
H20   H     H_    0.101703 0.760330 0.563710 0.231839
H21   H     H_    0.233168 0.752432 0.650507 0.295839
H22   H     H_    0.262572 0.635252 0.153712 0.355913
H23   H     H_    0.248858 0.388424 0.327598 0.177526
H24   H     H_    0.282057 0.769166 0.972409 0.338031
H25   H     H_    0.554987 0.290432 0.183272 0.193891
H26   H     H_    0.882519 0.685514 0.686930 0.241478
H27   H     H_    0.761544 0.584266 0.798551 0.237708
H28   H     H_    0.914806 0.510365 0.781881 0.236184
H29   H     H_    0.782850 0.463276 0.709110 0.265850
H30   H     H_    0.576910 0.190892 0.030655 0.332991
N1    N     N_R   0.523130 0.207800 0.519340 -0.195144
N2    N     N_R   0.476870 0.792180 0.480660 -0.127088
N3    N     N_2   0.854286 0.609525 0.659165 -0.315689
N4    N     N_2   0.738997 0.992424 0.634717 -0.258500
N5    N     N_2   0.904482 0.296018 0.143854 -0.331055
N6    N     N_2   0.119022 0.619291 0.656983 -0.309904
O1    O     O_R   0.506170 0.421690 0.658830 -0.612343
O2    O     O_3   0.398100 0.725851 0.803325 -0.760777
O3    O     O_3   0.617178 0.366631 0.824677 -0.712493
O4    O     O_3   0.710685 0.215593 0.622086 -0.729238
O5    O     O_3   0.275151 0.010426 0.357659 -0.772080
O6    O     O_3   0.294605 0.772189 0.382028 -0.696442
O7    O     O_3   0.759969 0.423281 0.298727 -0.785452
O8    O     O_3   0.174928 0.278641 0.170408 -0.752124
O9    O     O_3   0.345609 0.631291 0.187982 -0.662805
O10   O     O_3   0.345350 0.735065 0.019468 -0.734893
O11   O     O_R   0.491330 0.609320 0.646410 -0.573933
O12   O     O_R   0.690660 0.406170 0.506210 -0.612012
O13   O     O_R   0.675810 0.593790 0.493790 -0.629234
O14   O     O_R   0.508670 0.390680 0.353590 -0.622056
O15   O     O_R   0.493830 0.578310 0.341170 -0.527878
O16   O     O_R   0.324190 0.406210 0.506210 -0.651932
O17   O     O_R   0.309340 0.593830 0.493790 -0.558496
O18   O     O_3   0.564386 0.249234 0.979628 -0.720051
Zn1   Zn    Zn3+2 0.509910 0.374720 0.508290 0.981630
Zn2   Zn    Zn3+2 0.490090 0.625280 0.491710 1.037197

loop_
_geom_bond_atom_site_label_1
_geom_bond_atom_site_label_2
_ccdc_geom_bond_type
C2    C35   A    
H11   O7    S    
C32   N6    S    
O11   Zn2   S    
C12   C23   A    
C21   C22   A    
C29   H15   S    
C10   C15   A    
H2    O2    S    
C5    C6    A    
C30   H21   S    
H6    N4    S    
C18   C19   A    
C16   C34   S    
H24   O10   S    
C24   O8    S    
C36   O10   S    
C8    C9    A    
C16   O15   A    
O12   Zn1   S    
H3    O3    S    
C3    O3    S    
C27   N3    S    
C8    H25   S    
C13   C14   A    
C16   O14   A    
O13   Zn2   S    
C29   H14   S    
C28   H9    S    
C17   N1    A    
H17   O8    S    
C24   C25   A    
O1    Zn1   S    
H30   O18   S    
C10   C11   A    
H22   O9    S    
H10   O6    S    
C4    C23   S    
C8    C34   A    
C4    O13   A    
C18   N1    A    
C30   H20   S    
C12   C21   A    
C28   H8    S    
H4    O4    S    
H26   N3    S    
C12   C26   A    
C23   C31   A    
C5    C9    A    
C27   H29   S    
C11   O6    S    
C26   C33   A    
C31   C32   A    
C4    O12   A    
O16   Zn1   S    
C3    C35   A    
C21   O7    S    
N1    Zn1   S    
C17   H1    S    
O17   Zn2   S    
C27   H27   S    
C20   C33   S    
C7    O9    S    
C10   O5    S    
C7    C34   A    
C22   C24   A    
C22   N5    S    
C11   N2    A    
C1    C35   S    
C20   O17   A    
C2    C36   A    
C15   C17   A    
C18   O4    S    
C14   C19   A    
C28   N4    S    
C3    C5    A    
C2    O2    S    
C9    O18   S    
C13   H12   S    
C30   N6    S    
C6    C7    A    
C1    O11   A    
C30   H19   S    
C28   H7    S    
O14   Zn1   S    
C1    O1    A    
C32   C33   A    
C25   C26   A    
H5    O5    S    
C20   O16   A    
N2    Zn2   S    
C6    C36   A    
C27   H28   S    
C31   N3    S    
H18   N6    S    
H13   N5    S    
C14   C15   A    
C19   N4    S    
C25   H23   S    
O15   Zn2   S    
C29   H16   S    
C29   N5    S    
C13   N2    A    
