data_mof_unit_39142.cif
_audit_creation_date              2012-10-26T20:24:20-0400
_audit_creation_method            fapswitch 2.2
_symmetry_space_group_name_H-M    P1
_symmetry_Int_Tables_number       1
_space_group_crystal_system       triclinic
_cell_length_a                    15.817688
_cell_length_b                    10.781535
_cell_length_c                    9.532583
_cell_angle_alpha                 88.75448
_cell_angle_beta                  89.727806
_cell_angle_gamma                 88.464072
_cell_volume                      1624.69458664

loop_
_atom_site_label
_atom_site_type_symbol
_atom_type_description
_atom_site_fract_x
_atom_site_fract_y
_atom_site_fract_z
_atom_type_partial_charge
C1    C     C_R   0.499472 0.260070 0.500391 0.552603
C2    C     C_3   0.588347 0.921396 0.527331 -0.111465
C3    C     C_3   0.430846 0.072321 0.606865 -0.101414
C4    C     C_R   0.340092 0.499939 0.500293 0.522482
C5    C     C_3   0.474133 0.074167 0.351112 -0.242333
C6    C     C_3   0.497910 0.121288 0.499111 -0.007635
C7    C     C_3   0.497103 0.877175 0.499096 -0.010474
C8    C     C_3   0.435071 0.927843 0.612745 -0.211253
C9    C     C_3   0.467213 0.932222 0.354716 -0.245771
C10   C     C_3   0.531662 0.621499 0.080591 0.229271
C11   C     C_3   0.521015 0.626557 0.914017 -0.165221
C12   C     C_3   0.082878 0.498575 0.500090 0.008264
C13   C     C_3   0.556563 0.398195 0.082243 0.041538
C14   C     C_3   0.415029 0.480567 0.082590 -0.022086
C15   C     C_3   0.567629 0.415354 0.917628 0.289630
C16   C     C_R   0.496941 0.739521 0.499033 0.552322
C17   C     C_3   0.417179 0.469206 0.916209 0.270958
C18   C     C_R   0.659883 0.500004 0.499727 0.613005
C19   C     C_3   0.972985 0.412844 0.593259 -0.132602
C20   C     C_3   0.030159 0.385306 0.464284 -0.094416
C21   C     C_1   0.250306 0.499215 0.500864 -0.044800
C22   C     C_1   0.749639 0.499922 0.499175 0.057042
C23   C     C_3   0.969952 0.611953 0.536608 -0.130568
C24   C     C_3   0.027415 0.525316 0.629362 -0.121730
C25   C     C_2   0.629740 0.860569 0.655313 0.223291
C26   C     C_2   0.342916 0.126369 0.575506 0.197532
C27   C     C_3   0.640237 0.764703 0.106596 -0.039452
C28   C     C_3   0.731899 0.770874 0.058872 -0.368694
C29   C     C_2   0.643074 0.382270 0.147431 0.270436
C30   C     C_2   0.346719 0.577094 0.120589 0.185350
C31   C     C_3   0.309867 0.325621 0.887233 -0.037588
C32   C     C_3   0.296146 0.195003 0.944990 -0.365061
C33   C     C_3   0.004813 0.423094 0.145374 -0.008016
C34   C     C_3   0.917065 0.499509 0.500494 0.066495
C35   C     C_3   0.966944 0.398851 0.002481 -0.367835
C36   C     C_3   0.643072 0.229975 0.868414 -0.016778
C37   C     C_3   0.627797 0.102980 0.935878 -0.393177
C38   C     C_2   0.658861 0.117277 0.455232 0.265835
C39   C     C_3   0.027078 0.586040 0.407204 -0.100295
C40   C     C_3   0.973600 0.473327 0.373887 0.305823
C41   C     C_1   0.174635 0.498712 0.500731 -0.059895
C42   C     C_1   0.825299 0.499747 0.499453 0.012676
C43   C     C_3   0.586826 0.064680 0.540112 -0.134817
Cu1   Cu    Cu3+1 0.500040 0.499860 0.642410 1.008861
Cu2   Cu    Cu3+1 0.499960 0.500140 0.357590 0.992598
H1    H     H_    0.056157 0.292888 0.434421 0.118065
H2    H     H_    0.493069 0.698471 0.125332 0.186208
H3    H     H_    0.470411 0.695991 0.885346 0.115583
H4    H     H_    0.579562 0.660665 0.863085 0.154155
H5    H     H_    0.630231 0.457167 0.893234 0.089197
H6    H     H_    0.391932 0.391931 0.128856 0.107120
H7    H     H_    0.369533 0.535443 0.868252 0.143586
H8    H     H_    0.524823 0.308262 0.102437 0.154887
H9    H     H_    0.050501 0.656294 0.330624 0.112314
H10   H     H_    0.943744 0.704090 0.567088 0.136995
H11   H     H_    0.051509 0.547065 0.734962 0.117480
H12   H     H_    0.447567 0.104667 0.713027 0.139425
H13   H     H_    0.596596 0.087813 0.650610 0.137997
H14   H     H_    0.627361 0.893441 0.435061 0.123246
H15   H     H_    0.602471 0.872992 0.758679 0.080342
H16   H     H_    0.332076 0.225843 0.580138 0.119335
H17   H     H_    0.635137 0.805321 0.212057 0.149880
H18   H     H_    0.600595 0.821958 0.032104 0.085322
H19   H     H_    0.738654 0.733880 0.951447 0.175401
H20   H     H_    0.752412 0.868528 0.058101 0.108118
H21   H     H_    0.773130 0.715013 0.131642 0.176802
H22   H     H_    0.692346 0.448199 0.126801 0.160815
H23   H     H_    0.456339 0.896688 0.719080 0.090100
H24   H     H_    0.290685 0.547329 0.176750 0.123447
H25   H     H_    0.281918 0.334847 0.780872 0.153492
H26   H     H_    0.274525 0.391241 0.956316 0.077576
H27   H     H_    0.322058 0.185442 0.052900 0.141357
H28   H     H_    0.227443 0.176456 0.948402 0.116664
H29   H     H_    0.328259 0.125492 0.877637 0.170016
H30   H     H_    0.042892 0.339331 0.178604 0.129187
H31   H     H_    0.046890 0.503891 0.133986 0.120690
H32   H     H_    0.930615 0.482245 0.963859 0.155847
H33   H     H_    0.018302 0.376921 0.926425 0.088235
H34   H     H_    0.413101 0.117253 0.315034 0.145516
H35   H     H_    0.924072 0.319035 0.010092 0.169045
H36   H     H_    0.693356 0.275366 0.928048 0.100458
H37   H     H_    0.670567 0.219197 0.762674 0.192971
H38   H     H_    0.684101 0.041174 0.920147 0.115988
H39   H     H_    0.616099 0.111867 0.050010 0.158708
H40   H     H_    0.571714 0.060371 0.889193 0.134518
H41   H     H_    0.668045 0.090058 0.347265 0.145679
H42   H     H_    0.522589 0.101232 0.272155 0.126727
H43   H     H_    0.505627 0.894065 0.267306 0.106634
H44   H     H_    0.400499 0.907044 0.335663 0.175962
H45   H     H_    0.372186 0.886342 0.599011 0.184952
H46   H     H_    0.949181 0.342838 0.669792 0.121271
N1    N     N_3   0.501840 0.500250 0.143650 -0.274368
N2    N     N_3   0.501160 0.503300 0.856280 -0.238803
O1    O     O_R   0.500050 0.317570 0.620260 -0.416428
O2    O     O_2   0.284052 0.061690 0.543829 -0.527776
O3    O     O_3   0.617414 0.638836 0.116288 -0.582048
O4    O     O_2   0.661091 0.290089 0.218029 -0.537190
O5    O     O_2   0.348862 0.684971 0.079438 -0.578341
O6    O     O_3   0.397922 0.346454 0.878241 -0.515741
O7    O     O_3   0.938917 0.447284 0.241958 -0.545650
O8    O     O_3   0.564960 0.297440 0.855862 -0.501867
O9    O     O_2   0.708783 0.186852 0.507774 -0.505900
O10   O     O_R   0.499980 0.317810 0.379740 -0.511550
O11   O     O_R   0.379110 0.499870 0.620240 -0.507205
O12   O     O_R   0.379040 0.500110 0.379720 -0.529120
O13   O     O_R   0.500020 0.682190 0.620260 -0.528061
O14   O     O_R   0.499950 0.682430 0.379740 -0.502410
O15   O     O_R   0.620960 0.499890 0.620280 -0.498178
O16   O     O_R   0.620890 0.500130 0.379760 -0.440018
O17   O     O_2   0.694371 0.797141 0.643378 -0.529292

loop_
_geom_bond_atom_site_label_1
_geom_bond_atom_site_label_2
_ccdc_geom_bond_type
C19   C20   S    
C34   C42   S    
C18   O16   A    
C3    C6    S    
Cu1   O11   S    
C7    C8    S    
C32   H27   S    
C38   H41   S    
C34   C40   S    
C37   H40   S    
C36   C37   S    
C26   H16   S    
C9    H43   S    
C32   H29   S    
C5    C6    S    
C20   C40   S    
Cu2   O16   S    
C39   H9    S    
C35   H35   S    
C15   H5    S    
Cu2   N1    S    
Cu1   N2    S    
Cu2   O10   S    
C16   O14   A    
C29   H22   S    
C33   H30   S    
C31   H25   S    
C2    C7    S    
C36   H37   S    
C1    O1    A    
C23   C24   S    
C37   H39   S    
C25   H15   S    
C31   O6    S    
C5    H34   S    
C1    O10   A    
C43   H13   S    
C16   O13   A    
C11   N2    S    
C31   H26   S    
C10   N1    S    
C14   C17   S    
C11   H3    S    
C14   C30   S    
C17   H7    S    
Cu2   O12   S    
C13   H8    S    
Cu1   O15   S    
C27   O3    S    
C1    C6    S    
Cu1   O1    S    
C3    C8    S    
C9    H44   S    
C32   H28   S    
C2    H14   S    
C36   H36   S    
C35   H32   S    
C36   O8    S    
C28   H21   S    
C5    C9    S    
C12   C41   S    
C11   H4    S    
C27   H17   S    
C33   H31   S    
C31   C32   S    
C10   O3    S    
C2    C43   S    
C23   C34   S    
C12   C20   S    
C15   O8    S    
C17   O6    S    
C14   N1    S    
C27   H18   S    
C25   O17   D    
C21   C41   T    
C28   H19   S    
C7    C16   S    
C8    H23   S    
C6    C43   S    
C13   C15   S    
C13   N1    S    
C8    H45   S    
C15   N2    S    
C3    H12   S    
C39   C40   S    
C30   H24   S    
Cu1   Cu2   S    
C13   C29   S    
C26   O2    D    
C7    C9    S    
C12   C24   S    
C18   C22   S    
C3    C26   S    
C19   C34   S    
C40   O7    S    
C23   H10   S    
Cu1   O13   S    
C24   H11   S    
C4    O12   A    
C30   O5    D    
C35   H33   S    
C29   O4    D    
C33   O7    S    
C12   C39   S    
C28   H20   S    
C38   C43   S    
C38   O9    D    
C4    C21   S    
C22   C42   T    
C23   C39   S    
C4    O11   A    
C33   C35   S    
C19   C24   S    
C2    C25   S    
C18   O15   A    
C19   H46   S    
C10   C11   S    
C5    H42   S    
C17   N2    S    
C14   H6    S    
C10   H2    S    
C37   H38   S    
C20   H1    S    
Cu2   O14   S    
C27   C28   S    
