data_mof_unit_50876.cif
_audit_creation_date              2012-12-11T14:39:32-0500
_audit_creation_method            fapswitch 2.2
_symmetry_space_group_name_H-M    P1
_symmetry_Int_Tables_number       1
_space_group_crystal_system       triclinic
_cell_length_a                    7.192787
_cell_length_b                    13.35435
_cell_length_c                    17.085569
_cell_angle_alpha                 90.0
_cell_angle_beta                  96.681867
_cell_angle_gamma                 90.000035
_cell_volume                      1630.006745

loop_
_atom_site_label
_atom_site_type_symbol
_atom_type_description
_atom_site_fract_x
_atom_site_fract_y
_atom_site_fract_z
_atom_type_partial_charge
O1    O     O_R   0.525340 0.338340 0.164530 -0.530808
O2    O     O_R   0.474660 0.661660 0.835470 -0.534208
O3    O     O_R   0.974660 0.838340 0.835470 -0.530811
O4    O     O_R   0.025340 0.161660 0.164530 -0.534208
O5    O     O_R   0.253520 0.352000 0.336710 -0.537521
O6    O     O_R   0.746480 0.648000 0.663290 -0.536455
O7    O     O_R   0.246480 0.852000 0.663290 -0.537521
O8    O     O_R   0.753520 0.148000 0.336710 -0.536454
O9    O     O_R   0.083330 0.168380 0.337300 -0.535387
O10   O     O_R   0.916670 0.831620 0.662700 -0.535799
O11   O     O_R   0.416670 0.668380 0.662700 -0.535387
O12   O     O_R   0.583330 0.331620 0.337300 -0.535805
C1    C     C_R   0.431900 0.380020 0.356256 0.828332
C2    C     C_R   0.568248 0.619971 0.643744 0.828302
C3    C     C_R   0.068100 0.880020 0.643744 0.828352
C4    C     C_R   0.931751 0.119971 0.356256 0.828304
O13   O     O_R   0.195840 0.349670 0.165140 -0.532590
O14   O     O_R   0.804160 0.650330 0.834860 -0.527788
O15   O     O_R   0.304160 0.849670 0.834860 -0.532590
O16   O     O_R   0.695840 0.150330 0.165140 -0.527788
C5    C     C_R   0.356507 0.369391 0.135894 0.855085
C6    C     C_R   0.643548 0.630429 0.864003 0.856941
C7    C     C_R   0.143492 0.869391 0.864106 0.855083
C8    C     C_R   0.856452 0.130429 0.135997 0.856943
O17   O     O_3   0.387830 0.193120 0.250910 -0.373839
O18   O     O_3   0.612170 0.806880 0.749090 -0.378531
O19   O     O_3   0.112170 0.693120 0.749090 -0.373840
O20   O     O_3   0.887830 0.306880 0.250910 -0.378533
V1    V     V_3+5 0.113010 0.264540 0.250910 1.566007
V2    V     V_3+5 0.886990 0.735460 0.749090 1.552630
V3    V     V_3+5 0.386990 0.764540 0.749090 1.566010
V4    V     V_3+5 0.613010 0.235460 0.250910 1.552626
H1    H     H_    0.970856 0.732961 0.307843 0.198842
H2    H     H_    0.030200 0.266764 0.692258 0.189626
H3    H     H_    0.529139 0.232961 0.692157 0.198838
H4    H     H_    0.469797 0.766764 0.307742 0.189625
C9    C     C_R   0.966912 0.212516 0.501099 -0.132673
C10   C     C_R   0.036305 0.787605 0.498891 -0.134278
C11   C     C_R   0.533084 0.712516 0.498901 -0.132674
C12   C     C_R   0.463693 0.287605 0.501108 -0.134281
C13   C     C_R   0.985925 0.267620 0.569298 -0.202972
C14   C     C_R   0.018476 0.732473 0.430721 -0.199139
C15   C     C_R   0.514069 0.767620 0.430702 -0.202971
C16   C     C_R   0.481520 0.232473 0.569279 -0.199136
C17   C     C_R   0.017855 0.219837 0.640341 -0.130969
C18   C     C_R   0.983455 0.780031 0.359699 -0.130609
C19   C     C_R   0.482142 0.719837 0.359659 -0.130952
C20   C     C_R   0.516541 0.280031 0.640301 -0.130606
C21   C     C_R   0.030648 0.115202 0.645347 0.368617
C22   C     C_R   0.966284 0.884519 0.354662 0.363966
C23   C     C_R   0.469355 0.615202 0.354653 0.368569
C24   C     C_R   0.533714 0.384519 0.645338 0.363963
C25   C     C_R   0.016843 0.053793 0.574684 -0.062731
C26   C     C_R   0.981876 0.946080 0.425294 -0.058293
C27   C     C_R   0.483158 0.553793 0.425316 -0.062744
C28   C     C_R   0.518124 0.446080 0.574706 -0.058296
C29   C     C_R   0.983373 0.105970 0.500993 0.014440
C30   C     C_R   0.017222 0.894014 0.498980 0.015131
C31   C     C_R   0.516626 0.605970 0.499007 0.014448
C32   C     C_R   0.482778 0.394014 0.501020 0.015138
C33   C     C_R   0.033968 0.945751 0.572539 -0.155134
C34   C     C_R   0.965434 0.054181 0.427440 -0.154158
C35   C     C_R   0.466032 0.445751 0.427460 -0.155141
C36   C     C_R   0.534566 0.554181 0.572560 -0.154160
H5    H     H_    0.939234 0.257002 0.448260 0.125116
H6    H     H_    0.065532 0.743259 0.551732 0.125987
H7    H     H_    0.560761 0.757002 0.551740 0.125117
H8    H     H_    0.434466 0.243259 0.448268 0.125989
H9    H     H_    0.974025 0.348478 0.567016 0.144709
H10   H     H_    0.032863 0.651727 0.433026 0.147257
H11   H     H_    0.525967 0.848478 0.432984 0.144710
H12   H     H_    0.467131 0.151727 0.566974 0.147262
H13   H     H_    0.139609 0.064943 0.057175 0.149119
H14   H     H_    0.860120 0.935015 0.942786 0.148599
H15   H     H_    0.360391 0.564943 0.942824 0.149118
H16   H     H_    0.639880 0.435014 0.057213 0.148605
C37   C     C_2   0.150772 0.939125 0.932469 -0.208713
C38   C     C_2   0.849056 0.060659 0.067652 -0.212554
C39   C     C_2   0.349227 0.439125 0.067531 -0.208712
C40   C     C_2   0.650944 0.560659 0.932348 -0.212547
C41   C     C_2   0.995799 0.965190 0.965863 -0.063517
C42   C     C_2   0.003949 0.034684 0.034168 -0.058387
C43   C     C_2   0.504201 0.465190 0.034137 -0.063498
C44   C     C_2   0.496050 0.534683 0.965832 -0.058390
H17   H     H_    0.713929 0.030130 0.044198 0.125366
H18   H     H_    0.285903 0.969572 0.956007 0.125155
H19   H     H_    0.786071 0.530131 0.955802 0.125367
H20   H     H_    0.214097 0.469572 0.043993 0.125155
S1    S     S_3+6 0.056701 0.071627 0.742889 -0.048286
O21   O     O_2   0.241019 0.018618 0.757262 -0.356165
O22   O     O_2   0.057412 0.155443 0.801761 -0.319265
O23   O     O_3   0.874965 0.996600 0.754464 -0.512014
H21   H     H_    0.762530 0.038896 0.741281 0.331186
S2    S     S_3+6 0.926400 0.927464 0.257084 -0.046561
O24   O     O_2   0.082392 0.997368 0.243626 -0.349571
O25   O     O_2   0.925297 0.843648 0.198198 -0.317379
O26   O     O_3   0.715991 0.983032 0.244389 -0.514130
H22   H     H_    0.626812 0.931194 0.258154 0.329993
S3    S     S_3+6 0.443310 0.571627 0.257111 -0.048262
O27   O     O_2   0.258991 0.518619 0.242735 -0.356162
O28   O     O_2   0.442608 0.655442 0.198240 -0.319243
O29   O     O_3   0.625045 0.496598 0.245537 -0.511986
H23   H     H_    0.737488 0.538875 0.258772 0.331148
S4    S     S_3+6 0.573600 0.427464 0.742916 -0.046564
O30   O     O_2   0.417608 0.497368 0.756374 -0.349571
O31   O     O_2   0.574704 0.343648 0.801802 -0.317383
O32   O     O_3   0.784009 0.483032 0.755610 -0.514130
H24   H     H_    0.873187 0.431196 0.741843 0.329991

loop_
_geom_bond_atom_site_label_1
_geom_bond_atom_site_label_2
_ccdc_geom_bond_type
O1    C5    A    
C12   C32   A    
C27   C31   A    
O13   V1    S    
O3    C7    A    
C40   C44   D    
O15   V3    S    
S4    O31   D    
C41   C42   S    
C29   C34   A    
C31   C36   A    
C22   C26   A    
C32   C35   A    
O20   V1    S    
O9    C4    A    
C10   C14   A    
C40   H19   S    
O10   C3    A    
O16   V4    S    
O4    C8    A    
O11   C2    A    
H15   C44   S    
C14   H10   S    
H4    C19   S    
C14   C18   A    
O10   V2    S    
C39   H20   S    
C10   C30   A    
C25   C33   A    
S3    O27   D    
C9    H5    S    
O2    C6    A    
O32   H24   S    
C28   C36   A    
O14   V2    S    
C37   C41   D    
S1    O22   D    
O5    C1    A    
O4    V1    S    
O9    V1    S    
C30   C33   A    
O7    C3    A    
O11   V3    S    
O18   V3    S    
O8    C4    A    
O12   V4    S    
O19   V2    S    
H1    C18   S    
S2    O24   D    
C4    C34   S    
H3    C20   S    
H16   C43   S    
S4    O30   D    
O26   H22   S    
O5    V1    S    
C23   S3    S    
O7    V3    S    
O8    V4    S    
C10   H6    S    
C25   C29   A    
C22   S2    S    
C19   C23   A    
C26   C34   A    
S2    O26   S    
O1    V4    S    
O13   C5    A    
C28   C32   A    
C27   C35   A    
O2    V3    S    
O3    V2    S    
O15   C7    A    
O6    C2    A    
C38   C42   D    
C43   C44   S    
C1    C35   S    
C17   C21   A    
C11   C31   A    
C5    C39   S    
C3    C33   S    
H2    C17   S    
C7    C37   S    
S1    O23   S    
S2    O25   D    
C2    C36   S    
C38   H17   S    
C8    C38   S    
O6    V2    S    
C37   H18   S    
H14   C41   S    
H13   C42   S    
C13   H9    S    
C26   C30   A    
C24   S4    S    
C15   H11   S    
S3    O28   D    
O14   C6    A    
C11   H7    S    
C21   S1    S    
C11   C15   A    
C18   C22   A    
C6    C40   S    
C39   C43   D    
O17   V4    S    
C21   C25   A    
O23   H21   S    
C16   H12   S    
C23   C27   A    
C9    C13   A    
O29   H23   S    
C16   C20   A    
C12   C16   A    
S3    O29   S    
O12   C1    A    
C12   H8    S    
C13   C17   A    
S1    O21   D    
C20   C24   A    
C15   C19   A    
O16   C8    A    
S4    O32   S    
C9    C29   A    
C24   C28   A    
