data_mof_unit_27478.cif
_audit_creation_date              2012-12-10T17:10:22-0500
_audit_creation_method            fapswitch 2.2
_symmetry_space_group_name_H-M    P1
_symmetry_Int_Tables_number       1
_space_group_crystal_system       triclinic
_cell_length_a                    15.738733
_cell_length_b                    10.737515
_cell_length_c                    10.051117
_cell_angle_alpha                 89.904653
_cell_angle_beta                  89.601719
_cell_angle_gamma                 90.241031
_cell_volume                      1698.52882468

loop_
_atom_site_label
_atom_site_type_symbol
_atom_type_description
_atom_site_fract_x
_atom_site_fract_y
_atom_site_fract_z
_atom_type_partial_charge
C1    C     C_R   0.502788 0.262890 0.499819 0.912284
C2    C     C_2   0.479272 0.867642 0.499096 -0.041071
C3    C     C_2   0.496062 0.067142 0.389135 -0.139319
C4    C     C_R   0.338063 0.499948 0.500415 0.885243
C5    C     C_2   0.513185 0.131764 0.498788 -0.297790
C6    C     C_2   0.545381 0.576020 0.925367 0.037814
C7    C     C_2   0.533987 0.588126 0.074081 -0.091093
C8    C     C_R   0.496043 0.737094 0.499948 0.871537
C9    C     C_R   0.661942 0.499986 0.499606 0.894470
C10   C     C_3   0.971366 0.425396 0.595158 0.036880
C11   C     C_3   0.028011 0.385008 0.478958 0.580767
C12   C     C_3   0.083251 0.500815 0.502835 -0.045220
C13   C     C_1   0.249242 0.500331 0.501524 -0.158187
C14   C     C_1   0.750773 0.499599 0.498578 -0.185622
C15   C     C_3   0.026911 0.541141 0.622184 -0.441045
C16   C     C_3   0.001944 0.181568 0.419632 -0.293769
C17   C     C_3   0.412542 0.339935 0.874819 -0.128791
C18   C     C_3   0.003452 0.697642 0.221151 -0.288299
C19   C     C_3   0.999393 0.818966 0.577609 -0.306788
C20   C     C_3   0.972320 0.615031 0.521762 0.514413
C21   C     C_3   0.916763 0.499185 0.497356 -0.019083
C22   C     C_3   0.028754 0.575149 0.404424 0.463414
C23   C     C_3   0.973424 0.458318 0.378051 -0.464540
C24   C     C_1   0.174034 0.500645 0.502393 0.085063
C25   C     C_1   0.825982 0.499294 0.497796 0.045671
C26   C     C_2   0.502904 0.933741 0.391815 -0.164653
H1    H     H_    0.536028 0.088080 0.589190 0.161492
H2    H     H_    0.946181 0.178699 0.488198 0.175145
H3    H     H_    0.029862 0.086908 0.417634 0.186256
H4    H     H_    0.472319 0.284604 0.873815 0.122249
H5    H     H_    0.378858 0.331574 0.778997 0.197485
H6    H     H_    0.370510 0.298167 0.952047 0.129388
H7    H     H_    0.988909 0.305775 0.748810 0.202358
H8    H     H_    0.902817 0.396382 0.764190 0.191708
H9    H     H_    0.950375 0.744155 0.274916 0.186666
H10   H     H_    0.978926 0.620210 0.158782 0.161047
H11   H     H_    0.032552 0.767551 0.153223 0.187315
H12   H     H_    0.593465 0.633672 0.877611 0.082396
H13   H     H_    0.051666 0.823799 0.502730 0.194927
H14   H     H_    0.024918 0.795972 0.677473 0.165495
H15   H     H_    0.970696 0.912947 0.584066 0.185058
H16   H     H_    0.373127 0.873236 0.614035 0.193326
H17   H     H_    0.464065 0.906080 0.695364 0.186564
H18   H     H_    0.558127 0.671540 0.121637 0.130157
H19   H     H_    0.491849 0.415622 0.104900 0.207900
H20   H     H_    0.949631 0.425178 0.280581 0.164487
H21   H     H_    0.050167 0.572403 0.720693 0.179617
H22   H     H_    0.530714 0.889720 0.304567 0.144638
H23   H     H_    0.479351 0.111710 0.295812 0.165575
H24   H     H_    0.981570 0.204033 0.316722 0.162059
N1    N     N_2   0.500900 0.501330 0.852150 0.081482
N2    N     N_2   0.500930 0.501360 0.147810 -0.170656
N3    N     N_3   0.937288 0.342007 0.696867 -0.453714
N4    N     N_3   0.431017 0.921005 0.606901 -0.446805
O1    O     O_R   0.499990 0.319060 0.613040 -0.644041
O2    O     O_3   0.426256 0.465773 0.907461 -0.531418
O3    O     O_3   0.066323 0.655023 0.308995 -0.597838
O4    O     O_3   0.935793 0.733586 0.540197 -0.610510
O5    O     O_R   0.500010 0.319100 0.386900 -0.622808
O6    O     O_R   0.376760 0.499970 0.613050 -0.597777
O7    O     O_R   0.376790 0.500010 0.386910 -0.587547
O8    O     O_R   0.499990 0.680900 0.613100 -0.620776
O9    O     O_R   0.500010 0.680940 0.386960 -0.622869
O10   O     O_R   0.623210 0.499990 0.613090 -0.623453
O11   O     O_R   0.623240 0.500030 0.386950 -0.616085
O12   O     O_3   0.064460 0.266055 0.463221 -0.596103
Zn1   Zn    Zn3+2 0.499980 0.499970 0.650990 0.976564
Zn2   Zn    Zn3+2 0.500020 0.500030 0.349010 0.958758

loop_
_geom_bond_atom_site_label_1
_geom_bond_atom_site_label_2
_ccdc_geom_bond_type
C10   C21   S    
C16   H2    S    
O1    Zn1   S    
C9    C14   S    
C11   O12   S    
C6    C7    S    
C26   H22   S    
O5    Zn2   S    
C9    O10   A    
C18   H9    S    
C12   C24   S    
C18   O3    S    
N2    Zn2   S    
C12   C15   S    
C15   H21   S    
C11   C12   S    
O11   Zn2   S    
C4    O6    A    
C22   O3    S    
C6    H12   S    
C3    H23   S    
C14   C25   T    
C23   H20   S    
N1    Zn1   S    
C7    H18   S    
H16   N4    S    
C19   H14   S    
C17   H4    S    
O7    Zn2   S    
C19   H13   S    
O8    Zn1   S    
C1    C5    S    
C4    O7    A    
C11   C23   S    
C18   H11   S    
C16   H24   S    
C7    N2    D    
C1    O1    A    
C17   O2    S    
C10   C15   S    
C1    O5    A    
C19   O4    S    
H7    N3    S    
C15   C20   S    
C17   H5    S    
C9    O11   A    
C16   O12   S    
C10   C11   S    
C8    O9    A    
C20   O4    S    
C8    O8    A    
O10   Zn1   S    
C12   C22   S    
C20   C21   S    
O6    Zn1   S    
H8    N3    S    
C2    C26   D    
N1    O2    S    
C2    N4    S    
C6    N1    D    
O9    Zn2   S    
C4    C13   S    
C17   H6    S    
C10   N3    S    
C21   C25   S    
C22   C23   S    
H17   N4    S    
H19   N2    S    
C16   H3    S    
C5    H1    S    
C18   H10   S    
C21   C23   S    
C3    C26   S    
C2    C8    S    
C19   H15   S    
C13   C24   T    
C20   C22   S    
C3    C5    D    
