data_mof_unit_56867.cif
_audit_creation_date              2012-12-10T20:26:23-0500
_audit_creation_method            fapswitch 2.2
_symmetry_space_group_name_H-M    P1
_symmetry_Int_Tables_number       1
_space_group_crystal_system       triclinic
_cell_length_a                    10.704103
_cell_length_b                    10.62731
_cell_length_c                    9.878301
_cell_angle_alpha                 88.883642
_cell_angle_beta                  89.751338
_cell_angle_gamma                 89.360584
_cell_volume                      1123.42143411

loop_
_atom_site_label
_atom_site_type_symbol
_atom_type_description
_atom_site_fract_x
_atom_site_fract_y
_atom_site_fract_z
_atom_type_partial_charge
C1    C     C_R   0.499637 0.260466 0.501174 0.872235
C2    C     C_R   0.495503 0.128785 0.504446 -0.086984
C3    C     C_R   0.412254 0.067437 0.420517 -0.262957
C4    C     C_R   0.416890 0.937958 0.415819 -0.246131
C5    C     C_R   0.502068 0.871851 0.497537 -0.076949
C6    C     C_R   0.578841 0.933320 0.587443 0.095464
C7    C     C_3   0.718607 0.928606 0.591441 -0.506635
C8    C     C_3   0.715300 0.070866 0.593913 -0.504647
C9    C     C_R   0.489439 0.390601 0.073566 0.118348
C10   C     C_R   0.518874 0.607770 0.069542 -0.104796
C11   C     C_R   0.517749 0.608005 0.925809 -0.146600
C12   C     C_R   0.262758 0.509612 0.499843 0.918159
C13   C     C_R   0.494749 0.389019 0.931791 0.168285
C14   C     C_3   0.397975 0.288205 0.924397 0.875770
C15   C     C_3   0.382846 0.302115 0.078959 -0.696922
C16   C     C_R   0.502602 0.739693 0.498807 0.864418
C17   C     C_R   0.737344 0.498448 0.499651 0.923921
C18   C     C_2   0.928246 0.562649 0.400405 -0.205427
C19   C     C_2   0.869362 0.496887 0.497347 -0.342619
C20   C     C_2   0.063385 0.562851 0.390799 0.029906
C21   C     C_2   0.130999 0.532340 0.501663 -0.407252
C22   C     C_R   0.576099 0.062387 0.590097 0.216986
H1    H     H_    0.875614 0.615426 0.323722 0.166647
H2    H     H_    0.755079 0.115791 0.500882 0.194696
H3    H     H_    0.532338 0.695096 0.121474 0.149376
H4    H     H_    0.529476 0.695651 0.870439 0.151430
H5    H     H_    0.294557 0.350354 0.108269 0.205697
H6    H     H_    0.404358 0.219251 0.143844 0.188461
H7    H     H_    0.915629 0.439720 0.574479 0.139587
H8    H     H_    0.088517 0.523847 0.601176 0.153352
H9    H     H_    0.346953 0.119489 0.356730 0.154201
H10   H     H_    0.356455 0.889949 0.347510 0.151568
H11   H     H_    0.754911 0.884408 0.686402 0.210159
H12   H     H_    0.760699 0.890806 0.497192 0.202700
H13   H     H_    0.749501 0.110155 0.689947 0.204358
N1    N     N_R   0.499170 0.499140 0.142800 -0.084579
N2    N     N_R   0.499170 0.499180 0.857150 -0.108095
O1    O     O_R   0.500020 0.316790 0.614690 -0.571915
O2    O     O_R   0.500000 0.316760 0.385350 -0.621842
O3    O     O_R   0.319080 0.500020 0.614640 -0.576016
O4    O     O_R   0.319070 0.499980 0.385300 -0.597494
O5    O     O_R   0.500000 0.683240 0.614650 -0.634823
O6    O     O_R   0.499980 0.683210 0.385310 -0.631355
O7    O     O_R   0.680930 0.500020 0.614700 -0.621277
O8    O     O_R   0.680920 0.499980 0.385360 -0.612890
Zn1   Zn    Zn3+2 0.500010 0.500020 0.653130 0.982376
Zn2   Zn    Zn3+2 0.499990 0.499980 0.346870 0.952090
O9    O     O_3   0.297565 0.333816 0.843091 -0.639064
C23   C     C_3   0.192166 0.255037 0.847276 0.064166
H14   H     H_    0.107846 0.316843 0.848015 0.140576
H15   H     H_    0.184914 0.196054 0.940782 0.107238
C24   C     C_3   0.187396 0.176399 0.719040 -0.296656
H16   H     H_    0.182295 0.240411 0.628799 0.216508
H17   H     H_    0.273378 0.118059 0.709675 0.236181
C25   C     C_3   0.074204 0.090411 0.720240 -0.997526
H18   H     H_    0.079063 0.023387 0.807845 0.264311
H19   H     H_    0.072695 0.035847 0.625528 0.272246
H20   H     H_    0.986588 0.147013 0.726619 0.264024
O10   O     O_3   0.457758 0.177127 0.874980 -0.633017
C26   C     C_3   0.421419 0.063290 0.941355 0.068120
H21   H     H_    0.402127 0.992770 0.862793 0.156882
H22   H     H_    0.334227 0.070800 0.001528 0.068956
C27   C     C_3   0.525662 0.010850 0.033787 -0.375354
H23   H     H_    0.553439 0.080953 0.109315 0.226152
H24   H     H_    0.489934 0.927118 0.090133 0.176499
C28   C     C_3   0.641674 0.972051 0.954764 -0.822508
H25   H     H_    0.617100 0.903004 0.876925 0.243186
H26   H     H_    0.710831 0.927682 0.024819 0.232571
H27   H     H_    0.684666 0.056025 0.906317 0.278079
C29   C     C_R   0.117753 0.607469 0.260449 0.194876
C30   C     C_R   0.106325 0.536227 0.143047 -0.178741
C31   C     C_R   0.152447 0.582692 0.019251 -0.130164
C32   C     C_R   0.208740 0.700649 0.011795 -0.095854
C33   C     C_R   0.218108 0.772867 0.127893 -0.169207
C34   C     C_R   0.172090 0.726707 0.251727 -0.131973
H28   H     H_    0.061931 0.445142 0.147499 0.122253
H29   H     H_    0.143735 0.527979 0.928779 0.155135
H30   H     H_    0.244110 0.736532 0.915904 0.126577
H31   H     H_    0.259533 0.865163 0.121491 0.107067
H32   H     H_    0.175646 0.784354 0.340633 0.106473

loop_
_geom_bond_atom_site_label_1
_geom_bond_atom_site_label_2
_ccdc_geom_bond_type
C28   H26   S    
C25   H18   S    
C27   H24   S    
C32   C33   A    
C7    C8    S    
O3    Zn1   S    
C14   O10   S    
C12   O4    A    
C26   C27   S    
C17   O8    A    
C18   C19   D    
C5    C6    A    
C28   H27   S    
C6    C22   A    
N1    Zn2   S    
C26   H22   S    
C1    C2    S    
O5    Zn1   S    
C11   N2    A    
C9    C13   A    
C5    C16   S    
C17   C19   S    
O7    Zn1   S    
C23   H15   S    
C2    C22   A    
C9    N1    A    
C8    C22   S    
C32   H30   S    
C29   C30   A    
C34   H32   S    
C13   N2    A    
C24   C25   S    
C28   H25   S    
C27   C28   S    
O10   C26   S    
C13   C14   S    
C7    H11   S    
C20   C29   S    
C24   H17   S    
O8    Zn2   S    
C33   C34   A    
C18   H1    S    
C31   C32   A    
C14   O9    S    
C11   H4    S    
C12   C21   S    
C26   H21   S    
C8    H13   S    
C12   O3    A    
C31   H29   S    
C15   H5    S    
C23   C24   S    
O4    Zn2   S    
C3    H9    S    
C16   O6    A    
C4    H10   S    
C1    O1    A    
C10   H3    S    
O9    C23   S    
C33   H31   S    
C25   H19   S    
C7    H12   S    
C3    C4    A    
C19   H7    S    
C16   O5    A    
C24   H16   S    
O2    Zn2   S    
C4    C5    A    
C6    C7    S    
C21   H8    S    
C2    C3    A    
C9    C15   S    
C17   O7    A    
C30   C31   A    
C15   H6    S    
C30   H28   S    
C8    H2    S    
C18   C20   S    
O1    Zn1   S    
C10   C11   A    
C1    O2    A    
C27   H23   S    
C20   C21   D    
C23   H14   S    
C25   H20   S    
C29   C34   A    
C14   C15   S    
C10   N1    A    
N2    Zn1   S    
O6    Zn2   S    
