data_mof_unit_38259.cif
_audit_creation_date              2012-12-10T17:48:43-0500
_audit_creation_method            fapswitch 2.2
_symmetry_space_group_name_H-M    P1
_symmetry_Int_Tables_number       1
_space_group_crystal_system       triclinic
_cell_length_a                    15.737811
_cell_length_b                    10.565443
_cell_length_c                    9.910539
_cell_angle_alpha                 86.91512
_cell_angle_beta                  89.981467
_cell_angle_gamma                 91.352146
_cell_volume                      1645.04590495

loop_
_atom_site_label
_atom_site_type_symbol
_atom_type_description
_atom_site_fract_x
_atom_site_fract_y
_atom_site_fract_z
_atom_type_partial_charge
Br1   Br    Br    0.895500 0.217818 0.582845 -0.354628
Br2   Br    Br    0.096923 0.369791 0.772864 -0.490231
Br3   Br    Br    0.610313 0.202659 0.819968 -0.366922
Br4   Br    Br    0.318460 0.779026 0.658581 -0.448601
Br5   Br    Br    0.097991 0.769695 0.453480 -0.416814
C1    C     C_R   0.515035 0.262486 0.504225 0.871123
C2    C     C_R   0.468964 0.031253 0.864585 -0.248270
C3    C     C_R   0.410792 0.936653 0.832029 -0.236413
C4    C     C_R   0.338444 0.497802 0.500119 0.917976
C5    C     C_R   0.410956 0.890354 0.702759 0.304189
C6    C     C_R   0.470307 0.940713 0.604901 -0.028388
C7    C     C_R   0.511907 0.055128 0.629123 -0.011745
C8    C     C_R   0.539525 0.130301 0.515599 -0.106233
C9    C     C_R   0.562664 0.073929 0.396924 -0.251534
C10   C     C_R   0.537914 0.947901 0.380296 -0.112640
C11   C     C_R   0.493196 0.879665 0.487085 -0.122990
C12   C     C_3   0.949258 0.384973 0.600190 0.093992
C13   C     C_R   0.385200 0.338607 0.147954 -0.169378
C14   C     C_R   0.329570 0.258873 0.081488 -0.185807
C15   C     C_R   0.330930 0.257830 0.941983 -0.142991
C16   C     C_R   0.495352 0.741777 0.495871 0.918274
C17   C     C_R   0.387913 0.336573 0.868109 -0.126538
C18   C     C_R   0.444079 0.420221 0.931842 0.190357
C19   C     C_R   0.443444 0.420860 0.076400 0.199414
C20   C     C_R   0.555051 0.573859 0.067184 -0.065522
C21   C     C_R   0.554493 0.574775 0.924060 -0.061971
C22   C     C_R   0.661575 0.500188 0.499899 0.906279
C23   C     C_3   0.917019 0.490406 0.497754 0.046565
C24   C     C_3   0.047332 0.378500 0.591362 0.005024
C25   C     C_3   0.050524 0.476047 0.354297 -0.477905
C26   C     C_3   0.951772 0.474938 0.351435 -0.200236
C27   C     C_1   0.750300 0.497089 0.499803 -0.048792
C28   C     C_3   0.082801 0.492662 0.500216 0.088306
C29   C     C_2   0.613504 0.148315 0.292112 1.067159
C30   C     C_2   0.555570 0.892265 0.249267 0.923957
C31   C     C_2   0.913563 0.361735 0.282680 1.021791
C32   C     C_3   0.951701 0.619360 0.545340 -0.498910
C33   C     C_3   0.049833 0.619227 0.552168 0.173718
C34   C     C_1   0.825493 0.493807 0.499051 0.026376
C35   C     C_1   0.174345 0.493354 0.500223 0.055523
C36   C     C_1   0.249629 0.495038 0.500132 -0.070696
C37   C     C_R   0.519774 0.091691 0.764046 0.320631
H1    H     H_    0.931133 0.411234 0.703403 0.182710
H2    H     H_    0.387297 0.327567 0.761673 0.200319
H3    H     H_    0.598879 0.636216 0.866804 0.158450
H4    H     H_    0.075464 0.554867 0.285295 0.231588
H5    H     H_    0.077011 0.388331 0.315706 0.225911
H6    H     H_    0.933222 0.560068 0.287774 0.160645
H7    H     H_    0.069667 0.627447 0.659118 0.186737
H8    H     H_    0.925895 0.637513 0.647003 0.190938
H9    H     H_    0.519806 0.146041 0.155259 0.289281
H10   H     H_    0.506984 0.825615 0.078105 0.333488
H11   H     H_    0.925469 0.182388 0.225687 0.384162
H12   H     H_    0.929812 0.697814 0.475334 0.243936
H13   H     H_    0.472738 0.059703 0.967194 0.204864
H14   H     H_    0.366694 0.897666 0.908072 0.211625
H15   H     H_    0.600223 0.633899 0.117453 0.176953
H16   H     H_    0.064996 0.289072 0.545168 0.209432
H17   H     H_    0.380953 0.331388 0.255111 0.205335
H18   H     H_    0.285714 0.196490 0.138899 0.184156
H19   H     H_    0.288430 0.194324 0.890614 0.192460
N1    N     N_R   0.499210 0.498800 0.142780 -0.111915
N2    N     N_R   0.499180 0.498720 0.857170 -0.111082
O1    O     O_R   0.500000 0.316780 0.614690 -0.623789
O2    O     O_R   0.581541 0.173632 0.162454 -0.725005
O3    O     O_2   0.628830 0.882371 0.210785 -0.602597
O4    O     O_R   0.487624 0.855597 0.168224 -0.792087
O5    O     O_2   0.842355 0.369020 0.233896 -0.554659
O6    O     O_R   0.958659 0.249912 0.273754 -0.758222
O7    O     O_R   0.499990 0.316750 0.385360 -0.653850
O8    O     O_R   0.377150 0.500020 0.614720 -0.602363
O9    O     O_R   0.377140 0.499990 0.385380 -0.633491
O10   O     O_R   0.500010 0.683250 0.614640 -0.606146
O11   O     O_R   0.500000 0.683220 0.385310 -0.592754
O12   O     O_R   0.622860 0.500010 0.614620 -0.600509
O13   O     O_R   0.622850 0.499980 0.385280 -0.590861
O14   O     O_2   0.683376 0.191321 0.321231 -0.505187
Zn1   Zn    Zn3+2 0.500010 0.500020 0.653130 1.000352
Zn2   Zn    Zn3+2 0.499990 0.499980 0.346870 1.004676

loop_
_geom_bond_atom_site_label_1
_geom_bond_atom_site_label_2
_ccdc_geom_bond_type
Br3   C37   S    
C11   C16   S    
C16   O10   A    
C12   C24   S    
C14   C15   A    
O13   Zn2   S    
C2    H13   S    
H11   O6    S    
C3    H14   S    
C2    C3    A    
C33   H7    S    
Br2   C24   S    
C13   C19   A    
O9    Zn2   S    
C29   O14   D    
C25   C26   S    
C27   C34   T    
C10   C11   A    
C24   C28   S    
C13   C14   A    
H9    O2    S    
C2    C37   A    
C1    O1    A    
C15   H19   S    
C7    C37   A    
C21   H3    S    
C17   H2    S    
O10   Zn1   S    
C4    O9    A    
C18   N2    A    
O7    Zn2   S    
C8    C9    A    
C20   H15   S    
C22   O12   A    
C29   O2    S    
C10   C30   S    
C17   C18   A    
C28   C35   S    
C25   H5    S    
C30   O3    D    
C20   C21   A    
C16   O11   A    
C21   N2    A    
C12   H1    S    
C32   C33   S    
C6    C11   A    
N1    Zn2   S    
C30   O4    S    
C18   C19   A    
C7    C8    A    
H10   O4    S    
C32   H12   S    
C35   C36   T    
C15   C17   A    
C26   H6    S    
Br4   C5    S    
C22   O13   A    
O1    Zn1   S    
C31   O6    S    
C1    O7    A    
C19   N1    A    
C25   C28   S    
C22   C27   S    
C9    C10   A    
C12   C23   S    
C4    C36   S    
C25   H4    S    
C23   C26   S    
C4    O8    A    
C9    C29   S    
C6    C7    A    
C31   O5    D    
C14   H18   S    
Br1   C12   S    
C28   C33   S    
C23   C34   S    
O11   Zn2   S    
C1    C8    S    
C32   H8    S    
C23   C32   S    
C20   N1    A    
O12   Zn1   S    
C5    C6    A    
C13   H17   S    
C24   H16   S    
C3    C5    A    
C26   C31   S    
Br5   C33   S    
O8    Zn1   S    
N2    Zn1   S    
