data_mof_unit_43907.cif
_audit_creation_date              2012-10-26T18:54:16-0400
_audit_creation_method            fapswitch 2.2
_symmetry_space_group_name_H-M    P1
_symmetry_Int_Tables_number       1
_space_group_crystal_system       triclinic
_cell_length_a                    14.770755
_cell_length_b                    14.942403
_cell_length_c                    23.496111
_cell_angle_alpha                 75.359172
_cell_angle_beta                  102.826773
_cell_angle_gamma                 115.93015
_cell_volume                      4475.14777675

loop_
_atom_site_label
_atom_site_type_symbol
_atom_type_description
_atom_site_fract_x
_atom_site_fract_y
_atom_site_fract_z
_atom_type_partial_charge
C1    C     C_R   0.879932 0.312832 0.510944 0.571887
C2    C     C_R   0.068604 0.471768 0.312244 -0.156008
C3    C     C_R   0.074404 0.482946 0.774446 -0.076459
C4    C     C_R   0.068426 0.471739 0.252931 -0.091991
C5    C     C_R   0.997026 0.497283 0.790980 0.253425
C6    C     C_R   0.000187 0.500306 0.208943 0.287726
C7    C     C_R   0.811157 0.207617 0.528962 0.049478
C8    C     C_R   0.189635 0.795743 0.489864 0.035519
C9    C     C_R   0.770679 0.058798 0.605653 -0.136144
C10   C     C_R   0.215882 0.971918 0.457712 -0.137659
C11   C     C_R   0.841647 0.149231 0.579544 -0.157576
C12   C     C_R   0.120535 0.687652 0.491395 0.567071
C13   C     C_R   0.151528 0.869868 0.463848 -0.158592
C14   C     C_R   0.709545 0.173123 0.502659 0.080665
C15   C     C_R   0.293384 0.825362 0.514018 0.085879
C16   C     C_R   0.999587 0.499431 0.608939 0.536543
C17   C     C_R   0.000154 0.500228 0.391071 0.558461
C18   C     C_R   0.634641 0.089552 0.534046 0.041998
C19   C     C_R   0.356912 0.929659 0.513166 0.043420
C20   C     C_R   0.667441 0.029303 0.584043 0.034701
C21   C     C_R   0.318763 0.002143 0.480047 0.034405
C22   C     C_R   0.528658 0.062909 0.517606 0.027839
C23   C     C_R   0.919376 0.511821 0.747764 0.144940
C24   C     C_R   0.459764 0.964791 0.539786 0.029262
C25   C     C_R   0.494301 0.908703 0.590561 -0.139296
C26   C     C_R   0.488578 0.133444 0.484844 -0.135416
C27   C     C_R   0.596561 0.941143 0.612741 -0.127464
C28   C     C_R   0.384569 0.104018 0.468341 -0.124132
C29   C     C_R   0.712164 0.655936 0.390690 0.075043
C30   C     C_R   0.295171 0.352507 0.609117 0.077953
C31   C     C_R   0.797871 0.634676 0.413790 0.011476
C32   C     C_R   0.206853 0.368695 0.587098 0.005820
C33   C     C_R   0.712346 0.511656 0.491974 0.220553
C34   C     C_R   0.931415 0.528948 0.224413 0.149248
C35   C     C_R   0.283772 0.490137 0.505555 0.238449
C36   C     C_R   0.630036 0.541671 0.476180 -0.008384
C37   C     C_R   0.372516 0.468625 0.521664 -0.045413
C38   C     C_R   0.624535 0.604459 0.420346 0.094371
C39   C     C_R   0.381432 0.407352 0.578317 0.096916
C40   C     C_R   0.047645 0.589129 0.111690 0.421803
C41   C     C_R   0.951852 0.408050 0.888553 0.393363
C42   C     C_R   0.548618 0.502975 0.511429 0.008849
C43   C     C_R   0.454711 0.509687 0.486193 -0.021462
C44   C     C_R   0.445410 0.552568 0.425583 -0.152995
C45   C     C_R   0.920666 0.512428 0.688433 -0.091026
C46   C     C_R   0.560168 0.460771 0.571819 -0.112043
C47   C     C_R   0.529501 0.606527 0.394403 0.115722
C48   C     C_R   0.477698 0.407869 0.603869 0.114166
C49   C     C_R   0.954078 0.409802 0.127927 0.409539
C50   C     C_R   0.045696 0.587332 0.872390 0.392784
C51   C     C_R   0.952885 0.407405 0.068464 0.027263
C52   C     C_R   0.047415 0.589644 0.931929 0.028317
C53   C     C_R   0.000403 0.498745 0.030219 -0.029011
C54   C     C_R   0.999852 0.498301 0.970161 -0.027222
C55   C     C_R   0.048390 0.590541 0.051880 0.027349
C56   C     C_R   0.931669 0.528864 0.284047 -0.136450
C57   C     C_R   0.951707 0.406525 0.948469 0.028678
C58   C     C_R   0.905266 0.316315 0.046398 -0.122510
C59   C     C_R   0.095228 0.680702 0.954020 -0.122981
C60   C     C_R   0.904671 0.315882 0.987004 -0.122565
C61   C     C_R   0.095687 0.681150 0.013387 -0.122910
C62   C     C_R   0.998572 0.498441 0.671628 -0.024659
C63   C     C_R   0.000221 0.500341 0.328369 -0.009811
C64   C     C_R   0.075247 0.483370 0.715210 -0.156109
Cu1   Cu    Cu3+1 0.081740 0.475680 0.515360 0.970925
Cu2   Cu    Cu3+1 0.918260 0.524320 0.484640 0.931042
H1    H     H_    0.868223 0.245121 0.074900 0.168889
H2    H     H_    0.634062 0.468534 0.595572 0.143491
H3    H     H_    0.867193 0.244372 0.971407 0.168948
H4    H     H_    0.133114 0.752672 0.028972 0.168574
H5    H     H_    0.136142 0.472315 0.703580 0.135419
H6    H     H_    0.121999 0.449004 0.345389 0.126190
H7    H     H_    0.134108 0.471695 0.807655 0.129416
H8    H     H_    0.121419 0.449527 0.241018 0.122862
H9    H     H_    0.620346 0.896382 0.652118 0.118636
H10   H     H_    0.356131 0.160527 0.444062 0.115660
H11   H     H_    0.072458 0.848940 0.445467 0.133005
H12   H     H_    0.132316 0.751889 0.925523 0.168665
H13   H     H_    0.919898 0.175214 0.600065 0.123761
H14   H     H_    0.460443 0.601680 0.309933 0.225661
H15   H     H_    0.485648 0.708219 0.334604 0.237530
H16   H     H_    0.524217 0.308159 0.663940 0.243441
H17   H     H_    0.549675 0.415651 0.687647 0.231838
H18   H     H_    0.352309 0.635977 0.461229 0.224994
H19   H     H_    0.249505 0.555250 0.420474 0.217275
H20   H     H_    0.759846 0.422873 0.563718 0.268544
H21   H     H_    0.679325 0.361205 0.507339 0.244821
H22   H     H_    0.775390 0.798062 0.345388 0.225491
H23   H     H_    0.795973 0.014228 0.644490 0.122475
H24   H     H_    0.731554 0.706214 0.304148 0.229488
H25   H     H_    0.278892 0.302406 0.696122 0.231417
H26   H     H_    0.238184 0.210226 0.655411 0.225722
H27   H     H_    0.870523 0.589463 0.783793 0.256990
H28   H     H_    0.801584 0.462946 0.794222 0.252955
H29   H     H_    0.787750 0.509320 0.189401 0.231548
H30   H     H_    0.873059 0.630927 0.181513 0.237463
H31   H     H_    0.860475 0.523699 0.655626 0.143569
H32   H     H_    0.878260 0.551183 0.295428 0.124617
H33   H     H_    0.408555 0.779226 0.518323 0.233296
H34   H     H_    0.185527 0.027316 0.434200 0.119364
H35   H     H_    0.332426 0.718711 0.575103 0.235144
H36   H     H_    0.628041 0.156719 0.419747 0.242630
H37   H     H_    0.674662 0.275956 0.435488 0.235298
H38   H     H_    0.442239 0.842603 0.615766 0.119855
H39   H     H_    0.535892 0.212869 0.474971 0.113733
H40   H     H_    0.141313 0.328914 0.610881 0.119011
H41   H     H_    0.864878 0.673161 0.391266 0.125306
H42   H     H_    0.372950 0.543186 0.400303 0.101277
N1    N     N_R   0.000756 0.499727 0.148146 -0.377467
N2    N     N_3   0.295898 0.280265 0.662406 -0.577783
N3    N     N_3   0.838742 0.525934 0.763361 -0.634326
N4    N     N_3   0.861134 0.557455 0.179414 -0.589325
N5    N     N_3   0.335627 0.750669 0.530228 -0.604525
N6    N     N_3   0.689110 0.211817 0.440713 -0.625267
N7    N     N_R   0.998055 0.497558 0.852026 -0.402070
N8    N     N_R   0.795430 0.560810 0.461550 -0.235153
N9    N     N_R   0.204570 0.439190 0.538450 -0.217893
N10   N     N_3   0.514778 0.655875 0.334441 -0.569971
N11   N     N_3   0.494846 0.360365 0.664012 -0.570409
N12   N     N_3   0.280994 0.575751 0.461973 -0.538546
N13   N     N_3   0.697773 0.417611 0.531603 -0.645216
N14   N     N_3   0.715478 0.729596 0.337671 -0.577668
O1    O     O_R   0.977900 0.338110 0.520250 -0.509719
O2    O     O_2   0.906113 0.321047 0.866842 -0.497857
O3    O     O_2   0.908595 0.323225 0.165221 -0.491479
O4    O     O_2   0.091018 0.673914 0.835055 -0.497453
O5    O     O_R   0.022100 0.661890 0.479750 -0.518948
O6    O     O_R   0.839850 0.379180 0.494310 -0.503914
O7    O     O_R   0.160150 0.620820 0.505690 -0.422287
O8    O     O_R   0.069020 0.479430 0.595090 -0.509289
O9    O     O_R   0.930980 0.520570 0.404910 -0.504428
O10   O     O_R   0.930970 0.520500 0.569150 -0.517808
O11   O     O_R   0.069030 0.479500 0.430850 -0.491137
O12   O     O_2   0.093441 0.676174 0.133364 -0.490899

loop_
_geom_bond_atom_site_label_1
_geom_bond_atom_site_label_2
_ccdc_geom_bond_type
C61   H4    S    
C34   C56   A    
C8    C13   A    
C23   C45   A    
C17   O9    A    
H35   N5    S    
C45   C62   A    
C36   C42   A    
C1    O6    A    
C56   H32   S    
C32   N9    A    
Cu1   O8    S    
C12   O5    A    
C3    C64   A    
C15   C19   A    
H30   N4    S    
Cu2   N8    S    
C30   N2    S    
H14   N10   S    
H25   N2    S    
C19   C21   A    
H29   N4    S    
C27   H9    S    
C58   C60   A    
H28   N3    S    
C33   C36   A    
C34   N4    S    
Cu2   O5    S    
C26   H39   S    
C50   N7    A    
C42   C46   A    
C64   H5    S    
H17   N11   S    
C14   C18   A    
C62   C64   A    
C47   N10   S    
C49   C51   A    
C29   C38   A    
C50   C52   A    
C15   N5    S    
C50   O4    S    
C7    C14   A    
C16   O8    A    
C4    H8    S    
C44   C47   A    
H18   N12   S    
C53   C55   A    
C16   O10   A    
C1    C7    S    
C5    N7    S    
C33   N13   S    
H24   N14   S    
C35   N12   S    
C16   C62   S    
H16   N11   S    
C41   N7    A    
C2    H6    S    
C59   H12   S    
C52   C54   A    
C48   N11   S    
Cu2   O10   S    
C44   H42   S    
C10   C21   A    
C13   H11   S    
C59   C61   A    
C12   O7    A    
H37   N6    S    
C24   C25   A    
C4    C6    A    
C9    H23   S    
H21   N13   S    
C57   C60   A    
C53   C54   A    
C40   O12   S    
H15   N10   S    
C32   H40   S    
C6    C34   A    
C51   C53   A    
C37   C43   A    
H19   N12   S    
C7    C11   A    
C43   C44   A    
C1    O1    A    
C46   H2    S    
H36   N6    S    
C52   C59   A    
C9    C20   A    
C5    C23   A    
C8    C12   S    
C40   C55   A    
C29   N14   S    
H20   N13   S    
C56   C63   A    
C51   C58   A    
C10   H34   S    
C9    C11   A    
C38   C47   A    
C11   H13   S    
H27   N3    S    
H22   N14   S    
C21   C28   A    
C8    C15   A    
C17   O11   A    
C6    N1    S    
C22   C24   A    
C35   N9    A    
C42   C43   A    
C28   H10   S    
C31   N8    A    
C49   O3    S    
C2    C63   A    
C41   O2    S    
C49   N1    A    
Cu2   O9    S    
C33   N8    A    
C35   C37   A    
C18   C22   A    
C31   H41   S    
C3    C5    A    
C10   C13   A    
H33   N5    S    
Cu1   O7    S    
C25   H38   S    
C40   N1    A    
C20   C27   A    
C25   C27   A    
C23   N3    S    
C26   C28   A    
C36   C38   A    
C19   C24   A    
C41   C57   A    
C37   C39   A    
C14   N6    S    
C17   C63   S    
C30   C32   A    
H26   N2    S    
C60   H3    S    
C2    C4    A    
C55   C61   A    
Cu2   O6    S    
C30   C39   A    
C18   C20   A    
Cu1   O1    S    
C3    H7    S    
C46   C48   A    
C58   H1    S    
C29   C31   A    
Cu1   Cu2   S    
C22   C26   A    
Cu1   N9    S    
C45   H31   S    
Cu1   O11   S    
C39   C48   A    
C54   C57   A    
