data_mof_unit_50557.cif
_audit_creation_date              2013-03-05T16:48:54-0500
_audit_creation_method            fapswitch 2.2
_symmetry_space_group_name_H-M    P1
_symmetry_Int_Tables_number       1
_space_group_crystal_system       triclinic
_cell_length_a                    10.820701
_cell_length_b                    10.865365
_cell_length_c                    12.711563
_cell_angle_alpha                 93.051379
_cell_angle_beta                  93.104939
_cell_angle_gamma                 90.214447
_cell_volume                      1490.16683108

loop_
_atom_site_label
_atom_site_type_symbol
_atom_site_description
_atom_site_fract_x
_atom_site_fract_y
_atom_site_fract_z
_atom_type_partial_charge
O1    O     O_R   0.313000 0.493330 0.412070 -0.581670
O2    O     O_R   0.687000 0.506670 0.587930 -0.581663
O3    O     O_R   0.326280 0.506660 0.587930 -0.556968
O4    O     O_R   0.673720 0.493340 0.412070 -0.556951
C1    C     C_R   0.261908 0.496847 0.500506 0.796942
C2    C     C_R   0.738091 0.503152 0.499494 0.796996
O5    O     O_R   0.493370 0.312980 0.412070 -0.580659
O6    O     O_R   0.506630 0.687020 0.587930 -0.580681
O7    O     O_R   0.506650 0.326310 0.587930 -0.569875
O8    O     O_R   0.493350 0.673690 0.412070 -0.569871
C3    C     C_R   0.503718 0.261874 0.500865 0.790894
C4    C     C_R   0.496288 0.738126 0.499135 0.790901
Cu1   Cu    Cu3+1 0.492140 0.492110 0.395880 1.003390
Cu2   Cu    Cu3+1 0.507860 0.507890 0.604120 1.003379
H1    H     H_    0.743132 0.282369 0.954584 0.177441
H2    H     H_    0.256882 0.717616 0.045425 0.177269
C5    C     C_R   0.761749 0.253097 0.787335 -0.110470
C6    C     C_R   0.238253 0.746921 0.212670 -0.110485
H3    H     H_    0.846967 0.305490 0.788503 0.141474
H4    H     H_    0.153025 0.694546 0.211504 0.141398
C7    C     C_R   0.710584 0.198298 0.692510 -0.106788
C8    C     C_R   0.289421 0.801723 0.307492 -0.106783
H5    H     H_    0.756706 0.209275 0.620026 0.107870
H6    H     H_    0.243289 0.790767 0.379975 0.107859
C9    C     C_R   0.600718 0.128638 0.691798 0.138561
C10   C     C_R   0.399302 0.871359 0.308203 0.138545
C11   C     C_R   0.545261 0.112290 0.787659 -0.146827
C12   C     C_R   0.454776 0.887677 0.212345 -0.146769
H7    H     H_    0.463199 0.055460 0.789640 0.119508
H8    H     H_    0.536855 0.944484 0.210366 0.119528
C13   C     C_R   0.595716 0.168660 0.881758 -0.159275
C14   C     C_R   0.404317 0.831305 0.118249 -0.159260
H9    H     H_    0.551634 0.156633 0.954993 0.128629
H10   H     H_    0.448410 0.843309 0.045015 0.128600
C15   C     C_R   0.703708 0.239315 0.881555 -0.078121
C16   C     C_R   0.296308 0.760674 0.118452 -0.078177
C17   C     C_R   0.539947 0.938430 0.588811 -0.236347
C18   C     C_R   0.460076 0.061568 0.411186 -0.236323
H11   H     H_    0.573800 0.890662 0.657326 0.168859
H12   H     H_    0.426226 0.109335 0.342669 0.168855
C19   C     C_R   0.494111 0.871718 0.497631 -0.083840
C20   C     C_R   0.505907 0.128282 0.502368 -0.083856
C21   C     C_R   0.452638 0.933926 0.407346 -0.007855
C22   C     C_R   0.547385 0.066073 0.592653 -0.007879
H13   H     H_    0.281930 0.178156 0.884791 0.144495
H14   H     H_    0.718056 0.821604 0.115047 0.144482
C23   C     C_R   0.235511 0.191125 0.719122 -0.098743
C24   C     C_R   0.764608 0.808832 0.280725 -0.098719
H15   H     H_    0.272522 0.101630 0.697179 0.141957
H16   H     H_    0.727711 0.898402 0.302602 0.141972
C25   C     C_R   0.181593 0.262772 0.641552 -0.188882
C26   C     C_R   0.818539 0.737247 0.358335 -0.189022
H17   H     H_    0.177338 0.227269 0.560126 0.138589
H18   H     H_    0.822908 0.772857 0.439739 0.138653
C27   C     C_R   0.131054 0.378286 0.668646 -0.005724
C28   C     C_R   0.868948 0.621641 0.331313 -0.005757
C29   C     C_R   0.136289 0.422934 0.775802 0.367411
C30   C     C_R   0.863553 0.576833 0.224192 0.367540
C31   C     C_R   0.190749 0.348885 0.852900 -0.187674
C32   C     C_R   0.809096 0.650829 0.147056 -0.187625
H19   H     H_    0.196218 0.380671 0.935207 0.185899
H20   H     H_    0.803508 0.618943 0.064775 0.185907
C33   C     C_R   0.240077 0.234008 0.824641 -0.179249
C34   C     C_R   0.759904 0.765800 0.175239 -0.179229
C35   C     C_R   0.938272 0.451999 0.582175 -0.178619
C36   C     C_R   0.061722 0.547989 0.417822 -0.178776
H21   H     H_    0.890085 0.412452 0.644660 0.139415
H22   H     H_    0.109914 0.587528 0.355332 0.139428
C37   C     C_R   0.871727 0.504764 0.498930 -0.073632
C38   C     C_R   0.128268 0.495230 0.501068 -0.073725
C39   C     C_R   0.933698 0.554250 0.416030 0.075109
C40   C     C_R   0.066299 0.445739 0.583966 0.075148
N1    N     N_1   0.480320 0.480250 0.239400 -0.150749
N2    N     N_1   0.519680 0.519750 0.760600 -0.150747
C41   C     C_2   0.475227 0.458299 0.030720 -0.260673
C42   C     C_2   0.524754 0.541701 0.969279 -0.260735
C43   C     C_1   0.521562 0.527576 0.852955 0.240302
C44   C     C_1   0.478430 0.472423 0.147044 0.240266
H23   H     H_    0.568400 0.624195 0.006503 0.155592
H24   H     H_    0.431575 0.375807 0.993495 0.155629
N3    N     N_R   0.088927 0.542273 0.807335 0.104882
O9    O     O_R   0.089337 0.632510 0.744013 -0.364724
O10   O     O_R   0.056832 0.565016 0.903624 -0.359680
N4    N     N_R   0.910741 0.457380 0.192736 0.104979
O11   O     O_R   0.910375 0.367266 0.256189 -0.364740
O12   O     O_R   0.942622 0.434420 0.096412 -0.359733

loop_
_geom_bond_atom_site_label_1
_geom_bond_atom_site_label_2
_geom_bond_distance
_ccdc_geom_bond_type
C2    C37   1.446491 S    
C36   H22   1.080273 S    
C11   H7    1.081844 S    
C42   H23   1.085272 S    
C41   C42   1.354781 D    
N3    O9    1.301382 A    
C23   H15   1.081619 S    
O5    C3    1.283896 A    
C4    C19   1.452927 S    
O1    C1    1.278178 A    
Cu2   N2    1.983566 S    
N4    O12   1.301672 A    
C18   C20   1.400137 A    
C23   C33   1.394547 A    
C29   C31   1.407127 A    
C30   C32   1.407101 A    
C3    C20   1.452931 S    
C32   H20   1.082608 S    
O4    Cu1   1.964374 S    
C37   C39   1.408341 A    
C35   H21   1.080246 S    
N2    C43   1.171594 T    
N1    C44   1.171598 T    
C13   H9    1.082514 S    
C41   H24   1.085278 S    
C25   C27   1.404450 A    
C27   C40   1.480846 S    
C24   H16   1.081660 S    
Cu1   Cu2   2.639682 S    
C19   C21   1.415793 A    
O2    C2    1.278170 A    
C20   C22   1.415803 A    
C9    C22   1.486795 S    
H1    C15   1.082575 S    
N3    O10   1.301648 A    
C26   H18   1.083801 S    
C10   C21   1.486785 S    
C31   H19   1.082632 S    
C11   C13   1.397388 A    
C12   C14   1.397391 A    
N4    O11   1.301410 A    
O4    C2    1.278473 A    
C23   C25   1.393366 A    
C41   C44   1.476978 S    
H13   C33   1.082553 S    
C5    C7    1.400996 A    
H14   C34   1.082603 S    
C25   H17   1.083729 S    
C14   H10   1.082512 S    
O7    Cu2   1.972632 S    
C1    C38   1.446530 S    
C30   N4    1.441175 S    
C36   C39   1.386243 A    
C24   C26   1.393391 A    
O6    C4    1.283896 A    
C28   C39   1.480807 S    
C42   C43   1.476972 S    
O7    C3    1.276550 A    
O3    Cu2   1.964376 S    
O8    C4    1.276547 A    
Cu1   N1    1.983566 S    
C27   C29   1.419504 A    
C8    H6    1.083198 S    
O1    Cu1   1.960389 S    
C14   C16   1.395956 A    
C7    C9    1.406285 A    
O6    Cu2   1.968046 S    
C6    C8    1.400992 A    
C10   C12   1.406394 A    
O3    C1    1.278478 A    
O8    Cu1   1.972632 S    
C9    C11   1.406399 A    
C35   C40   1.386274 A    
C31   C33   1.396394 A    
C32   C34   1.396491 A    
C17   C22   1.387029 A    
C7    H5    1.083200 S    
C18   C21   1.387024 A    
C17   H11   1.084932 S    
H2    C16   1.082576 S    
C18   H12   1.084932 S    
C36   C38   1.397145 A    
C35   C37   1.397159 A    
C13   C15   1.395950 A    
C12   H8    1.081847 S    
C5    H3    1.080862 S    
C28   C30   1.419575 A    
C6    H4    1.080866 S    
C17   C19   1.400133 A    
O2    Cu2   1.960388 S    
C29   N3    1.441023 S    
C24   C34   1.394586 A    
O5    Cu1   1.968046 S    
C8    C10   1.406284 A    
C38   C40   1.408330 A    
C5    C15   1.396854 A    
C6    C16   1.396853 A    
C26   C28   1.404556 A    
