data_mof_unit_16493.cif
_audit_creation_date              2013-03-05T16:42:13-0500
_audit_creation_method            fapswitch 2.2
_symmetry_space_group_name_H-M    P1
_symmetry_Int_Tables_number       1
_space_group_crystal_system       triclinic
_cell_length_a                    14.907842
_cell_length_b                    10.658515
_cell_length_c                    9.900053
_cell_angle_alpha                 89.964961
_cell_angle_beta                  90.100706
_cell_angle_gamma                 90.996449
_cell_volume                      1572.83286819

loop_
_atom_site_label
_atom_site_type_symbol
_atom_site_description
_atom_site_fract_x
_atom_site_fract_y
_atom_site_fract_z
_atom_type_partial_charge
O1    O     O_R   0.500010 0.316790 0.614690 -0.599832
O2    O     O_R   0.500000 0.316760 0.385350 -0.572102
C1    C     C_R   0.508772 0.260770 0.499156 0.963112
O3    O     O_R   0.367850 0.499990 0.614680 -0.558374
O4    O     O_R   0.367840 0.499950 0.385340 -0.632516
C2    C     C_R   0.326999 0.496662 0.499991 0.969186
Zn1   Zn    Zn3+2 0.500010 0.500020 0.653130 1.050245
Zn2   Zn    Zn3+2 0.499990 0.499980 0.346870 1.070567
O5    O     O_R   0.500000 0.683240 0.614650 -0.623260
O6    O     O_R   0.499990 0.683210 0.385310 -0.614711
O7    O     O_R   0.632160 0.500050 0.614660 -0.624209
O8    O     O_R   0.632150 0.500010 0.385320 -0.564090
C3    C     C_R   0.501663 0.740297 0.499881 0.895687
C4    C     C_R   0.672788 0.501321 0.500254 0.876430
C5    C     C_R   0.815488 0.594114 0.565572 -0.187025
C6    C     C_R   0.767809 0.497876 0.501987 -0.042128
C7    C     C_R   0.809754 0.394665 0.446507 -0.130779
C8    C     C_R   0.902481 0.384984 0.455528 -0.005804
C9    C     C_R   0.952218 0.486573 0.512051 0.051292
C10   C     C_R   0.908153 0.590708 0.568624 0.131709
C11   C     C_R   0.946826 0.278078 0.407703 0.281815
C12   C     C_R   0.040298 0.278151 0.406872 -0.163213
C13   C     C_R   0.090560 0.382721 0.452372 -0.043443
C14   C     C_R   0.045811 0.485373 0.510483 0.023731
C15   C     C_R   0.094516 0.587643 0.566536 0.138857
C16   C     C_R   0.050197 0.688573 0.625146 -0.125810
C17   C     C_R   0.957197 0.690143 0.626123 -0.149092
C18   C     C_R   0.184659 0.385961 0.445197 0.299651
C19   C     C_R   0.231248 0.489485 0.501400 -0.161275
C20   C     C_R   0.187036 0.587919 0.562768 -0.198730
H1    H     H_    0.225220 0.665947 0.605748 0.176050
C21   C     C_R   0.552256 0.064471 0.610745 0.044960
C22   C     C_R   0.531467 0.130579 0.493441 -0.252174
C23   C     C_R   0.528725 0.064139 0.369091 0.333884
C24   C     C_R   0.516721 0.935161 0.373293 -0.178584
H2    H     H_    0.504207 0.885555 0.279788 0.237565
C25   C     C_R   0.517037 0.872260 0.497395 -0.154223
C26   C     C_R   0.544858 0.936605 0.612533 0.074645
C27   C     C_3   0.515299 0.931691 0.756594 -0.446955
C28   C     C_3   0.525894 0.074442 0.755986 0.143044
H3    H     H_    0.444375 0.899155 0.767190 0.218852
H4    H     H_    0.563847 0.882244 0.822277 0.247882
H5    H     H_    0.462446 0.124706 0.773596 0.179884
C29   C     C_R   0.451388 0.412183 0.071408 0.134967
N1    N     N_R   0.499390 0.499140 0.142800 -0.157036
C30   C     C_R   0.555965 0.578120 0.070671 0.357610
C31   C     C_R   0.555424 0.577758 0.927090 -0.093868
H6    H     H_    0.599192 0.641575 0.871979 0.162540
N2    N     N_R   0.499390 0.499180 0.857150 -0.121685
C32   C     C_R   0.449598 0.413595 0.929385 0.116817
C33   C     C_3   0.349089 0.392751 0.930556 0.423787
C34   C     C_3   0.354000 0.385813 0.084593 -0.467741
H7    H     H_    0.780305 0.672584 0.609336 0.155479
N3    N     N_R   0.600982 0.119791 0.839245 0.268520
O9    O     O_R   0.679665 0.069199 0.830654 -0.303410
O10   O     O_R   0.591225 0.217936 0.915193 -0.317876
N4    N     N_R   0.616234 0.662760 0.138009 0.214734
O11   O     O_R   0.694600 0.622245 0.173492 -0.332006
O12   O     O_R   0.607749 0.782402 0.116933 -0.379238
N5    N     N_R   0.296661 0.499991 0.884260 0.215745
O13   O     O_R   0.329123 0.613909 0.893210 -0.406268
O14   O     O_R   0.211365 0.484149 0.860353 -0.323876
N6    N     N_R   0.321069 0.275109 0.864505 0.208040
O15   O     O_R   0.324877 0.266397 0.733724 -0.353912
O16   O     O_R   0.281452 0.185257 0.932193 -0.307685
H8    H     H_    0.317975 0.462018 0.137136 0.226208
H9    H     H_    0.769080 0.322648 0.397774 0.203288
H10   H     H_    0.344021 0.291078 0.128539 0.285863
N7    N     N_R   0.898578 0.167580 0.363204 0.217726
O17   O     O_R   0.835888 0.118107 0.438634 -0.354542
O18   O     O_R   0.927574 0.104216 0.260295 -0.300768
H11   H     H_    0.072691 0.193676 0.373862 0.235133
N8    N     N_R   0.232565 0.285773 0.381773 0.187598
O19   O     O_R   0.298799 0.232450 0.443728 -0.366961
O20   O     O_R   0.209383 0.246524 0.262094 -0.369059
H12   H     H_    0.087494 0.766774 0.668905 0.179600
H13   H     H_    0.923638 0.769602 0.670322 0.184500
N9    N     N_R   0.535154 0.124501 0.239654 0.243114
O21   O     O_R   0.604171 0.196783 0.213172 -0.301611
O22   O     O_R   0.482585 0.089063 0.141221 -0.344449

loop_
_geom_bond_atom_site_label_1
_geom_bond_atom_site_label_2
_geom_bond_distance
_ccdc_geom_bond_type
N6    O16   1.302289 A    
C8    C11   1.409793 A    
N8    O19   1.300437 A    
C9    C10   1.415822 A    
C31   N2    1.361254 A    
N1    C30   1.380795 A    
Zn1   O7    2.007199 S    
C16   C17   1.386865 A    
C19   C20   1.389422 A    
C5    H7    1.085745 S    
C18   C19   1.407913 A    
C24   C25   1.399319 A    
C8    C9    1.416579 A    
C20   H1    1.086220 S    
O7    C4    1.285293 A    
N9    O22   1.301511 A    
N4    O12   1.300334 A    
C1    C22   1.435172 S    
C5    C6    1.388352 A    
N5    O14   1.301138 A    
C23   C24   1.383834 A    
N7    O18   1.301333 A    
O5    C3    1.288478 A    
Zn2   N1    2.020333 S    
C30   C31   1.421473 A    
C28   H5    1.109233 S    
C24   H2    1.080664 S    
C6    C7    1.388791 A    
C16   H12   1.083995 S    
C13   C14   1.414435 A    
C21   C26   1.365510 A    
C3    C25   1.421348 S    
C34   H10   1.107003 S    
C29   C34   1.479964 S    
C11   C12   1.393491 A    
N8    O20   1.300924 A    
O3    Zn1   2.005995 S    
C18   N8    1.439981 S    
C12   H11   1.080149 S    
C32   C33   1.510990 S    
C27   H4    1.111582 S    
C5    C10   1.382830 A    
N3    O10   1.299010 A    
C7    H9    1.082990 S    
C33   C34   1.528407 S    
C33   N6    1.468382 S    
C14   C15   1.412495 A    
Zn1   N2    2.019861 S    
O3    C2    1.287715 A    
C27   C28   1.526959 S    
N9    O21   1.301553 A    
C15   C16   1.399039 A    
C11   N7    1.438254 S    
N5    O13   1.302257 A    
O1    C1    1.298430 A    
C26   C27   1.494097 S    
C25   C26   1.389639 A    
C31   H6    1.082339 S    
Zn2   O8    2.005994 S    
C7    C8    1.390717 A    
C13   C18   1.404565 A    
O8    C4    1.288115 A    
C28   N3    1.464430 S    
C30   N4    1.426874 S    
C4    C6    1.417734 S    
C34   H8    1.111487 S    
C29   N1    1.358894 A    
C29   C32   1.406323 A    
C15   C20   1.379800 A    
Zn1   O5    1.989436 S    
N3    O9    1.302430 A    
O1    Zn1   1.989921 S    
O2    Zn2   1.989437 S    
C17   H13   1.083966 S    
O6    C3    1.287477 A    
O4    Zn2   2.007199 S    
C10   C17   1.397914 A    
C21   C22   1.395170 A    
O2    C1    1.282196 A    
C23   N9    1.436128 S    
N4    O11   1.300250 A    
O4    C2    1.289153 A    
C22   C23   1.420760 A    
C9    C14   1.395664 A    
C21   C28   1.495630 S    
N7    O17   1.301531 A    
N6    O15   1.299531 A    
C2    C19   1.428248 S    
C27   H3    1.112111 S    
Zn2   O6    1.989922 S    
N2    C32   1.368223 A    
C12   C13   1.406052 A    
C33   N5    1.468548 S    
