data_mof_unit_46914.cif
_audit_creation_date              2013-03-05T15:42:55-0500
_audit_creation_method            fapswitch 2.2
_symmetry_space_group_name_H-M    P1
_symmetry_Int_Tables_number       1
_space_group_crystal_system       triclinic
_cell_length_a                    8.370504
_cell_length_b                    15.307832
_cell_length_c                    23.014103
_cell_angle_alpha                 97.528158
_cell_angle_beta                  90.156755
_cell_angle_gamma                 99.639985
_cell_volume                      2881.27767943

loop_
_atom_site_label
_atom_site_type_symbol
_atom_site_description
_atom_site_fract_x
_atom_site_fract_y
_atom_site_fract_z
_atom_type_partial_charge
P1    P     P_3+3 0.054670 0.423610 0.368990 0.465576
O1    O     O_2   0.888680 0.450300 0.360330 -0.334744
O2    O     O_3   0.129270 0.451230 0.431380 -0.455320
O3    O     O_3   0.676100 0.614850 0.396630 -0.387945
O4    O     O_2   0.797301 0.555619 0.298612 -0.334345
O5    O     O_3   0.982754 0.307698 0.358313 -0.571596
O6    O     O_3   0.726080 0.715143 0.303685 -0.510233
H1    H     H_    0.760944 0.773860 0.390517 0.106471
C1    C     C_3   0.727381 0.873105 0.336315 0.128234
H2    H     H_    0.860743 0.895474 0.338534 0.115535
P2    P     P_3+3 0.674060 0.707690 0.546600 0.489638
P3    P     P_3+3 0.145002 0.775634 0.419875 0.438254
O7    O     O_2   0.851930 0.720960 0.529560 -0.313662
O8    O     O_3   0.095720 0.661380 0.425720 -0.367233
O9    O     O_2   0.027215 0.818413 0.461739 -0.433203
O10   O     O_3   0.675932 0.742168 0.622669 -0.650354
O11   O     O_3   0.082845 0.809126 0.354426 -0.594495
C2    C     C_3   0.136332 0.764337 0.302954 1.493838
C3    C     C_3   0.071255 0.806312 0.252006 -0.968851
H3    H     H_    0.940447 0.807860 0.255690 0.287830
H4    H     H_    0.135640 0.875982 0.252182 0.217409
C4    C     C_3   0.242441 0.752692 0.640053 1.222080
H5    H     H_    0.318925 0.724909 0.604693 -0.144532
C5    C     C_3   0.350751 0.821959 0.684466 -1.100797
H6    H     H_    0.359827 0.797659 0.727487 0.255918
H7    H     H_    0.473282 0.839640 0.666792 0.225817
H8    H     H_    0.300351 0.884995 0.693530 0.288749
Ba1   Ba    Ba6+2 0.857590 0.542650 0.472590 1.594340
C6    C     C_3   0.109210 0.258221 0.355159 0.179751
H9    H     H_    0.070062 0.198043 0.377143 0.093618
H10   H     H_    0.217777 0.295118 0.379316 0.095348
C7    C     C_3   0.145168 0.227105 0.291463 0.062149
H11   H     H_    0.236029 0.181918 0.290959 0.132632
H12   H     H_    0.198226 0.285000 0.269079 0.103838
C8    C     C_3   0.686673 0.673143 0.656452 0.874849
H13   H     H_    0.627217 0.606716 0.634701 0.022815
C9    C     C_3   0.602403 0.692449 0.714955 -0.165553
H14   H     H_    0.630904 0.765276 0.730951 0.148795
H15   H     H_    0.469862 0.671840 0.707983 0.146559
P4    P     P_3+3 0.135040 0.576460 0.631020 0.538160
O12   O     O_2   0.301020 0.549730 0.639710 -0.423671
O13   O     O_3   0.060450 0.548840 0.568630 -0.371150
O14   O     O_3   0.513610 0.385220 0.603380 -0.349058
O15   O     O_3   0.164334 0.685265 0.669704 -0.594307
P5    P     P_3+3 0.047451 0.219622 0.570957 0.510681
O16   O     O_3   0.611400 0.391150 0.470030 -0.383957
O17   O     O_3   0.093990 0.338690 0.574280 -0.317942
O18   O     O_2   0.183785 0.181262 0.536354 -0.407625
O19   O     O_3   0.074599 0.190727 0.640982 -0.526631
Ba2   Ba    Ba6+2 0.332250 0.457420 0.527420 1.602821
P6    P     P_3+3 0.661349 0.606530 0.320870 0.473672
C10   C     C_3   0.688421 0.776988 0.350608 0.344969
H16   H     H_    0.557935 0.762277 0.360501 0.064697
H17   H     H_    0.673447 0.916700 0.370532 0.063327
O20   O     O_3   0.578310 0.608920 0.529980 -0.419045
C11   C     C_3   0.534890 0.329614 0.344554 0.379069
H18   H     H_    0.428573 0.362851 0.342479 0.007856
H19   H     H_    0.631950 0.378522 0.367668 0.166479
C12   C     C_3   0.588314 0.304695 0.282417 -0.898340
H20   H     H_    0.495924 0.252232 0.258012 0.234461
H21   H     H_    0.604093 0.364466 0.259236 0.222054
H22   H     H_    0.704951 0.279534 0.283425 0.286555
P7    P     P_3+3 0.515656 0.278076 0.448399 0.450273
O21   O     O_2   0.337770 0.279070 0.470480 -0.372038
O22   O     O_3   0.496480 0.251992 0.371766 -0.596915
H23   H     H_    0.085671 0.767075 0.208886 0.199263
C13   C     C_3   0.937546 0.201406 0.674435 1.150670
H24   H     H_    0.823692 0.169049 0.649769 -0.197500
C14   C     C_3   0.946815 0.155142 0.728892 -0.917093
H25   H     H_    0.057700 0.186061 0.755519 0.270485
H26   H     H_    0.838693 0.161209 0.756031 0.222330
H27   H     H_    0.950570 0.083066 0.715751 0.228171
P8    P     P_3+3 0.539662 0.406172 0.680481 0.498759
C15   C     C_3   0.477891 0.235220 0.663988 0.265336
H28   H     H_    0.579060 0.232892 0.632884 0.026876
O23   O     O_2   0.389824 0.443660 0.704898 -0.365081
O24   O     O_3   0.522194 0.305078 0.709510 -0.579906
H29   H     H_    0.368029 0.245066 0.640374 0.201200
H30   H     H_    0.553545 0.117924 0.694111 0.059664
C16   C     C_3   0.440762 0.146141 0.688974 0.109840
H31   H     H_    0.391684 0.158276 0.733570 0.158511
H32   H     H_    0.024791 0.258255 0.032821 0.167947
H33   H     H_    0.937860 0.257484 0.931900 0.165272
C17   C     C_R   0.341755 0.518121 0.329215 -0.549259
C18   C     C_R   0.125638 0.558447 0.936198 -0.317457
C19   C     C_R   0.085116 0.554623 0.875516 0.595235
O25   O     O_2   0.123462 0.620701 0.850840 -0.547856
N1    N     N_R   0.003435 0.476788 0.843698 -0.166161
C20   C     C_R   0.971589 0.399296 0.870066 0.537338
O26   O     O_2   0.901545 0.330263 0.841876 -0.588521
C21   C     C_R   0.021568 0.398961 0.929290 -0.001432
C22   C     C_R   0.098309 0.479111 0.962601 -0.059514
C23   C     C_R   0.193952 0.639536 0.971181 0.498770
C24   C     C_R   0.252584 0.639094 0.028712 0.501382
C25   C     C_R   0.229238 0.558841 0.055045 -0.290055
C26   C     C_R   0.148567 0.479580 0.022308 -0.070333
C27   C     C_R   0.996448 0.320209 0.956095 -0.125538
C28   C     C_R   0.046933 0.320608 0.014371 -0.123133
C29   C     C_R   0.123527 0.399900 0.048441 -0.029555
C30   C     C_R   0.173032 0.401423 0.108170 0.544877
N2    N     N_R   0.241042 0.481107 0.142056 -0.163569
C31   C     C_R   0.282881 0.556634 0.113611 0.578906
C32   C     C_2   0.787381 0.465177 0.768843 -0.188754
C33   C     C_3   0.731459 0.481097 0.708383 0.159844
C34   C     C_1   0.014140 0.509669 0.682137 0.351524
C35   C     C_2   0.066557 0.503650 0.736230 -0.207990
C36   C     C_2   0.948147 0.478309 0.783157 0.131963
C37   C     C_R   0.428889 0.526886 0.229715 -0.325650
C38   C     C_R   0.461058 0.545999 0.290342 0.206080
C39   C     C_R   0.189518 0.470443 0.309679 0.143970
C40   C     C_R   0.149930 0.457661 0.247652 0.497565
C41   C     C_R   0.272806 0.486715 0.206272 -0.019081
O27   O     O_2   0.153572 0.331930 0.129960 -0.564496
O28   O     O_2   0.369272 0.622487 0.138885 -0.590035
C42   C     C_2   0.864503 0.474735 0.664671 0.224794
H34   H     H_    0.525896 0.546045 0.200550 0.192403
H35   H     H_    0.191853 0.528819 0.749259 0.193441
H36   H     H_    0.698111 0.451659 0.802066 0.167304
H37   H     H_    0.370404 0.530902 0.375761 0.194186
C43   C     C_R   0.751726 0.224849 0.515569 0.242425
C44   C     C_R   0.847538 0.167526 0.534218 0.084262
C45   C     C_R   0.793201 0.074814 0.522983 -0.361414
C46   C     C_R   0.643300 0.039411 0.491944 0.105349
C47   C     C_R   0.558513 0.101853 0.469128 -0.382169
C48   C     C_R   0.611322 0.194142 0.481918 0.182169
C49   C     C_R   0.422933 0.906228 0.454614 -0.302510
C50   C     C_R   0.355156 0.815795 0.449150 0.249220
C51   C     C_R   0.583152 0.785650 0.505093 0.304340
C52   C     C_R   0.650490 0.877237 0.510556 -0.305430
C53   C     C_R   0.573711 0.939777 0.484684 0.062508
C54   C     C_R   0.437715 0.755533 0.473105 -0.505196
H38   H     H_    0.351618 0.948562 0.436288 0.150687
H39   H     H_    0.869918 0.032531 0.538616 0.164203
H40   H     H_    0.760486 0.898046 0.536672 0.154696
H41   H     H_    0.450888 0.081705 0.441816 0.167986
H42   H     H_    0.383124 0.685832 0.470225 0.176667
O29   O     O_3   0.004438 0.179353 0.261744 -0.711067
H43   H     H_    0.949226 0.223842 0.245668 0.375447
O30   O     O_3   0.849507 0.671438 0.667514 -0.738759
H44   H     H_    0.895790 0.730666 0.689406 0.365765
O31   O     O_3   0.655225 0.645874 0.757673 -0.724357
H45   H     H_    0.591749 0.659469 0.793096 0.351693
O32   O     O_3   0.663983 0.878669 0.280319 -0.576975
C55   C     C_3   0.696519 0.968161 0.268996 -0.099421
H46   H     H_    0.829268 0.993086 0.268883 0.158590
H47   H     H_    0.636690 0.012275 0.301160 0.135966
H48   H     H_    0.646338 0.971403 0.224820 0.159116
O33   O     O_3   0.937017 0.292609 0.691367 -0.742099
H49   H     H_    0.829568 0.297223 0.708268 0.302757
O34   O     O_3   0.321204 0.084869 0.654514 -0.575711
C56   C     C_3   0.386363 0.053398 0.600996 -0.079677
H50   H     H_    0.473329 0.008101 0.608085 0.114036
H51   H     H_    0.445335 0.108447 0.577722 0.115231
H52   H     H_    0.285637 0.017422 0.571374 0.156739
O35   O     O_3   0.067239 0.673370 0.297104 -0.741632
H53   H     H_    0.139549 0.642493 0.318119 0.298804
O36   O     O_3   0.343383 0.716900 0.057450 -0.552101
C57   C     C_3   0.240020 0.770693 0.087355 -0.065630
H54   H     H_    0.307611 0.811277 0.125804 0.148488
H55   H     H_    0.128390 0.731714 0.103694 0.074336
H56   H     H_    0.208076 0.818855 0.059152 0.136870
O37   O     O_3   0.208322 0.720730 0.949598 -0.558600
C58   C     C_3   0.056627 0.750254 0.953431 -0.093234
H57   H     H_    0.971201 0.714278 0.917875 0.169373
H58   H     H_    0.075934 0.822301 0.948316 0.158630
H59   H     H_    0.998198 0.742799 0.996345 0.060080
O38   O     O_3   0.996532 0.412370 0.229208 -0.604459
C59   C     C_3   0.914274 0.463461 0.195877 -0.037591
H60   H     H_    0.909914 0.436612 0.148880 0.100308
H61   H     H_    0.963935 0.536467 0.201914 0.125612
H62   H     H_    0.785568 0.454801 0.208093 0.152729
O39   O     O_3   0.308662 0.776788 0.303675 -0.716649
C60   C     C_3   0.364948 0.741724 0.249196 -0.197288
H63   H     H_    0.382289 0.793752 0.219494 0.196233
H64   H     H_    0.283099 0.681075 0.228810 0.163693
H65   H     H_    0.482640 0.721618 0.254918 0.238956
O40   O     O_3   0.828186 0.450626 0.606155 -0.659154
H66   H     H_    0.752644 0.489671 0.595581 0.336374
O41   O     O_3   0.801359 0.314140 0.528235 -0.607702
C61   C     C_3   0.906268 0.340449 0.484252 0.244029
H67   H     H_    0.840783 0.341270 0.443216 0.106628
H68   H     H_    0.000744 0.298122 0.473412 0.048295
H69   H     H_    0.966420 0.407549 0.501976 0.227453
O42   O     O_3   0.120920 0.795568 0.620294 -0.624824
C62   C     C_3   0.176384 0.835608 0.571828 -0.133033
H70   H     H_    0.301783 0.873244 0.578151 0.062965
H71   H     H_    0.093892 0.881866 0.562451 0.193685
H72   H     H_    0.175254 0.780494 0.536251 0.175770

loop_
_geom_bond_atom_site_label_1
_geom_bond_atom_site_label_2
_geom_bond_distance
_ccdc_geom_bond_type
O14   P8    1.767565 S    
P7    O22   1.757291 S    
O36   C57   1.411979 S    
Ba2   O21   2.877188 S    
C25   C26   1.406776 A    
C5    H8    1.112071 S    
C51   C52   1.409917 A    
C27   C28   1.404011 A    
C1    O32   1.410576 S    
C46   C47   1.431686 A    
P3    C50   1.857172 S    
C18   C19   1.427638 A    
C11   H18   1.100402 S    
N2    C41   1.489690 S    
C16   O34   1.413007 S    
Ba1   O16   2.826912 S    
N2    C31   1.397091 Am   
C9    O31   1.398994 S    
C49   C50   1.394642 A    
C23   O37   1.384937 S    
O2    Ba1   2.959616 S    
C58   H58   1.109389 S    
C43   O41   1.353002 S    
C5    H7    1.108521 S    
O6    C10   1.412707 S    
C2    C3    1.547749 S    
C6    C7    1.527685 S    
O10   C8    1.405600 S    
C19   N1    1.385321 Am   
C59   H61   1.115557 S    
C62   H71   1.108046 S    
C35   C36   1.511980 S    
C49   C53   1.421450 A    
O32   C55   1.409879 S    
C26   C29   1.414453 A    
C22   C26   1.434713 A    
C37   C38   1.403390 A    
C3    H23   1.108557 S    
P1    O1    1.532017 D    
P5    O17   1.790317 S    
C14   H26   1.110791 S    
C39   C40   1.445123 A    
C4    O42   1.404109 S    
C13   O33   1.400183 S    
C57   H56   1.107615 S    
C8    O30   1.391056 S    
Ba1   Ba2   4.606562 S    
C18   C22   1.413355 A    
P8    C33   1.868134 S    
C4    O15   1.385451 S    
C3    H3    1.102399 S    
C15   O24   1.396470 S    
P3    O11   1.757756 S    
P1    Ba1   3.408301 S    
C56   H50   1.111476 S    
O7    Ba1   2.877078 S    
P5    O19   1.750098 S    
C20   C21   1.425554 A    
C6    H9    1.110798 S    
O19   C13   1.403635 S    
C1    H2    1.110446 S    
H1    C10   1.110224 S    
C47   H41   1.074632 S    
C61   H69   1.091260 S    
P4    O13   1.542032 S    
C12   H20   1.109014 S    
P6    C38   1.861626 S    
C15   C16   1.533352 S    
C57   H55   1.115569 S    
H32   C28   1.083077 S    
C14   H25   1.111201 S    
C1    C10   1.531710 S    
C18   C23   1.419114 A    
C55   H48   1.109215 S    
O3    Ba1   2.763958 S    
Ba1   O20   2.949328 S    
C61   H68   1.112541 S    
O17   Ba2   2.784814 S    
C60   H64   1.105672 S    
C9    H15   1.106640 S    
C12   H21   1.107723 S    
C15   H28   1.112455 S    
O3    P6    1.734017 S    
C13   H24   1.114041 S    
C58   H59   1.114048 S    
C5    H6    1.109036 S    
C55   H47   1.113133 S    
C54   H42   1.081508 S    
O38   C59   1.417324 S    
N1    C36   1.471251 S    
C43   C48   1.384389 A    
C55   H46   1.112917 S    
C62   H72   1.094786 S    
P5    C44   1.876093 S    
C60   H63   1.107759 S    
C17   C39   1.399307 A    
C37   C41   1.419956 A    
P1    O2    1.542058 S    
C8    H13   1.108172 S    
C7    H12   1.112257 S    
C14   H27   1.110867 S    
C45   H39   1.076895 S    
C9    H14   1.112742 S    
C31   O28   1.215480 D    
P1    C39   1.909201 S    
C33   C42   1.509470 S    
P2    O10   1.760279 S    
C29   C30   1.430750 A    
P3    O9    1.544441 D    
C49   H38   1.074246 S    
O11   C2    1.402370 S    
C23   C24   1.412026 A    
P7    C48   1.867641 S    
C10   H16   1.108123 S    
C21   C27   1.410232 A    
C44   C45   1.405322 A    
C42   O40   1.368273 S    
O13   Ba2   2.960468 S    
P4    O12   1.532316 D    
P3    O8    1.751440 S    
C28   C29   1.409398 A    
C24   O36   1.386120 S    
C46   C53   1.525959 S    
C15   H29   1.108541 S    
C57   H54   1.106586 S    
P8    O23   1.542260 D    
C4    C5    1.542720 S    
H30   C16   1.114059 S    
C32   H36   1.085637 S    
C40   O38   1.389716 S    
C51   C54   1.398098 A    
O12   Ba2   2.813189 S    
C21   C22   1.411592 A    
P2    O20   1.586069 S    
O39   C60   1.411968 S    
C8    C9    1.538973 S    
O2    Ba2   2.766171 S    
C52   C53   1.427385 A    
C34   C35   1.338433 D    
P5    O18   1.545377 D    
C59   H60   1.103806 S    
C12   H22   1.109144 S    
P1    O5    1.760201 S    
C40   C41   1.457983 A    
C3    H4    1.110965 S    
C19   O25   1.221264 D    
C34   C42   1.316428 D    
C4    H5    1.120861 S    
C30   O27   1.221409 D    
Ba2   O20   2.826268 S    
C16   H31   1.111107 S    
C32   C36   1.359948 D    
O30   H44   0.993758 S    
C25   C31   1.425881 A    
O14   Ba2   2.763290 S    
C56   H52   1.105377 S    
C2    O39   1.422789 S    
O41   C61   1.396853 S    
O37   C58   1.416581 S    
O29   H43   0.992341 S    
O16   Ba2   2.948400 S    
C17   C38   1.393539 A    
O34   C56   1.408124 S    
C11   C12   1.519247 S    
O16   P7    1.787072 S    
O8    Ba1   2.784261 S    
C7    H11   1.109595 S    
C37   H34   1.081977 S    
P2    C51   1.874736 S    
C20   O26   1.221530 D    
O6    P6    1.756723 S    
C7    O29   1.402141 S    
C35   H35   1.082125 S    
O31   H45   0.992547 S    
P2    O7    1.527921 D    
C62   H70   1.108844 S    
P2    Ba1   3.439553 S    
C17   H37   1.082246 S    
P4    Ba2   3.408929 S    
Ba1   O13   2.765562 S    
C30   N2    1.391363 Am   
C60   H65   1.092719 S    
C11   H19   1.092301 S    
O33   H49   0.990548 S    
C56   H51   1.105021 S    
C24   C25   1.424788 A    
C50   C54   1.406111 A    
C52   H40   1.076573 S    
C58   H57   1.109511 S    
O1    Ba1   2.812631 S    
C2    O35   1.404428 S    
P7    O21   1.576478 D    
P4    O15   1.760770 S    
O5    C6    1.397794 S    
C47   C48   1.399662 A    
N1    C20   1.389259 Am   
C6    H10   1.094070 S    
O40   H66   0.990014 S    
H33   C27   1.083144 S    
C32   C33   1.529059 S    
P8    O24   1.748772 S    
C43   C44   1.389199 A    
O4    P6    1.536358 D    
O42   C62   1.386359 S    
C1    H17   1.111046 S    
C59   H62   1.104917 S    
C13   C14   1.526025 S    
C45   C46   1.429787 A    
O35   H53   0.988834 S    
C61   H67   1.093201 S    
C11   O22   1.405567 S    
P4    C34   1.851631 S    
