data_mof_unit_47568.cif
_audit_creation_date              2012-12-11T18:13:21-0500
_audit_creation_method            fapswitch 2.2
_symmetry_space_group_name_H-M    P1
_symmetry_Int_Tables_number       1
_space_group_crystal_system       triclinic
_cell_length_a                    8.189345
_cell_length_b                    12.752944
_cell_length_c                    18.704138
_cell_angle_alpha                 99.772708
_cell_angle_beta                  91.14731
_cell_angle_gamma                 98.863935
_cell_volume                      1899.94982791

loop_
_atom_site_label
_atom_site_type_symbol
_atom_type_description
_atom_site_fract_x
_atom_site_fract_y
_atom_site_fract_z
_atom_type_partial_charge
Ba1   Ba    Ba6+2 0.852780 0.548340 0.465070 1.639056
Ba2   Ba    Ba6+2 0.337060 0.451750 0.534940 1.637215
C1    C     C_3   0.579413 0.895766 0.251065 -0.425782
C2    C     C_3   0.632850 0.819341 0.297800 0.347819
C3    C     C_3   0.442838 0.242580 0.310681 0.316350
C4    C     C_3   0.435948 0.188165 0.230929 -0.226729
C5    C     C_3   0.068575 0.244714 0.736817 0.398349
C6    C     C_3   0.087786 0.223601 0.813984 -0.374392
C7    C     C_3   0.567390 0.182193 0.719677 0.369349
C8    C     C_3   0.651608 0.147490 0.783540 -0.234560
C9    C     C_R   0.990513 0.452675 0.048920 0.006643
C10   C     C_R   0.889815 0.398137 0.095670 0.036277
C11   C     C_R   0.726908 0.351258 0.072380 -0.088822
C12   C     C_3   0.130486 0.762978 0.266270 0.366167
C13   C     C_R   0.664316 0.358345 0.003552 -0.089791
C14   C     C_R   0.765025 0.409809 0.955781 0.036806
C15   C     C_R   0.928903 0.456998 0.978266 0.013523
C16   C     C_R   0.705417 0.411978 0.885366 -0.118006
C17   C     C_R   0.810289 0.454348 0.834644 -0.044823
C18   C     C_R   0.972974 0.506264 0.857798 -0.002985
C19   C     C_R   0.031013 0.508032 0.930138 -0.008423
C20   C     C_R   0.759390 0.443257 0.760852 -0.020107
C21   C     C_R   0.870868 0.481007 0.711355 -0.280465
C22   C     C_R   0.024904 0.542936 0.734111 0.053265
C23   C     C_3   0.113148 0.789032 0.190349 -0.370205
C24   C     C_R   0.077716 0.556053 0.808890 -0.048657
C25   C     C_R   0.152998 0.501544 0.072361 -0.007694
C26   C     C_R   0.212969 0.500059 0.143961 -0.001181
C27   C     C_R   0.109201 0.448227 0.192295 -0.043638
C28   C     C_R   0.951776 0.392417 0.165303 -0.043940
C29   C     C_R   0.232830 0.614816 0.836321 -0.047328
C30   C     C_R   0.293241 0.612603 0.906943 0.034600
C31   C     C_R   0.192843 0.557923 0.953785 0.006704
C32   C     C_R   0.254130 0.554186 0.024627 0.013303
C33   C     C_R   0.454249 0.662783 0.931203 -0.085431
C34   C     C_3   0.201987 0.789808 0.619060 0.325337
C35   C     C_R   0.516224 0.656810 0.000358 -0.088648
C36   C     C_R   0.416954 0.603115 0.047531 0.033158
C37   C     C_R   0.376657 0.550545 0.166878 -0.049266
C38   C     C_R   0.477838 0.599219 0.117438 -0.112984
C39   C     C_R   0.433260 0.552246 0.238988 -0.003977
C40   C     C_R   0.326738 0.507487 0.287471 -0.287741
C41   C     C_R   0.166481 0.454788 0.265882 0.033440
C42   C     C_R   0.762900 0.184640 0.535519 -0.268164
C43   C     C_R   0.431046 0.809512 0.470946 -0.267730
C44   C     C_R   0.400187 0.986384 0.450126 -0.100792
C45   C     C_3   0.186197 0.908096 0.636734 -0.318122
C46   C     C_R   0.338006 0.877583 0.443709 -0.019640
C47   C     C_R   0.579780 0.850384 0.511186 0.050125
C48   C     C_R   0.642609 0.962562 0.520885 -0.058907
C49   C     C_R   0.551978 0.030775 0.488603 -0.052014
C50   C     C_R   0.614877 0.141870 0.496072 0.061093
C51   C     C_R   0.856739 0.118226 0.564175 -0.014957
C52   C     C_R   0.794708 0.008490 0.559345 -0.109447
C53   C     C_3   0.959541 0.215523 0.382902 0.279084
C54   C     C_3   0.924115 0.093268 0.365988 -0.379112
C55   C     C_3   0.607192 0.761419 0.694155 0.322652
C56   C     C_3   0.581607 0.858283 0.749953 -0.383342
H1    H     H_    0.722328 0.865675 0.341505 0.077438
H2    H     H_    0.288508 0.952532 0.674910 0.095859
H3    H     H_    0.067014 0.917583 0.662293 0.134249
H4    H     H_    0.850050 0.246946 0.405697 0.017840
H5    H     H_    0.064391 0.239921 0.423468 0.082763
H6    H     H_    0.812026 0.067162 0.329374 0.120955
H7    H     H_    0.903150 0.059859 0.416474 0.088822
H8    H     H_    0.030717 0.061509 0.339280 0.147255
H9    H     H_    0.489580 0.729344 0.664494 0.085198
H10   H     H_    0.518082 0.957409 0.284734 0.102178
H11   H     H_    0.697742 0.892658 0.783012 0.119909
H12   H     H_    0.481962 0.835311 0.786429 0.089228
H13   H     H_    0.544348 0.920123 0.720777 0.090912
H14   H     H_    0.521715 0.784605 0.324050 -0.053480
H15   H     H_    0.491235 0.849922 0.206747 0.113499
H16   H     H_    0.314966 0.246337 0.328311 0.029896
H17   H     H_    0.515115 0.325239 0.316975 0.026917
H18   H     H_    0.374354 0.102992 0.225783 0.127568
H19   H     H_    0.564122 0.188111 0.212382 0.116953
H20   H     H_    0.688497 0.936409 0.226483 0.130029
H21   H     H_    0.149572 0.723782 0.149719 0.072455
H22   H     H_    0.937811 0.252215 0.725778 -0.105005
H23   H     H_    0.219746 0.224628 0.828685 0.145782
H24   H     H_    0.041236 0.286922 0.852706 0.067740
H25   H     H_    0.016814 0.143821 0.818828 0.109159
H26   H     H_    0.662563 0.209698 0.682460 -0.074858
H27   H     H_    0.487959 0.110885 0.687436 0.047202
H28   H     H_    0.739234 0.216395 0.813389 0.099598
H29   H     H_    0.724501 0.083547 0.762117 0.074207
H30   H     H_    0.044843 0.687435 0.268880 0.097211
H31   H     H_    0.647419 0.309658 0.107675 0.066282
H32   H     H_    0.537770 0.321850 0.987230 0.063999
H33   H     H_    0.831971 0.468801 0.654529 0.078159
H34   H     H_    0.578869 0.375634 0.869801 0.099350
H35   H     H_    0.873597 0.346134 0.198443 0.095940
H36   H     H_    0.309840 0.660311 0.802586 0.085511
H37   H     H_    0.533241 0.706092 0.896595 0.054648
H38   H     H_    0.641647 0.695267 0.017245 0.069352
H39   H     H_    0.604279 0.635843 0.132735 0.108709
H40   H     H_    0.259464 0.750323 0.275782 -0.072236
H41   H     H_    0.371075 0.511198 0.342866 0.076460
H42   H     H_    0.325520 0.035133 0.426132 0.107048
H43   H     H_    0.811486 0.269342 0.539137 0.058692
H44   H     H_    0.381738 0.724535 0.464751 0.069759
H45   H     H_    0.982927 0.796730 0.177755 0.149291
H46   H     H_    0.194050 0.866023 0.186567 0.107398
H47   H     H_    0.105677 0.749694 0.577455 0.107762
O1    O     O_2   0.873090 0.425890 0.325140 -0.454741
O2    O     O_3   0.730813 0.793863 0.648809 -0.628740
O3    O     O_3   0.090818 0.848702 0.317090 -0.599172
O4    O     O_2   0.316610 0.574140 0.674900 -0.480727
O5    O     O_3   0.067290 0.565720 0.585630 -0.495355
O6    O     O_3   0.530210 0.372990 0.631200 -0.456926
O7    O     O_3   0.190279 0.746564 0.683159 -0.649306
O8    O     O_3   0.611340 0.366290 0.463630 -0.468792
O9    O     O_3   0.108550 0.314140 0.595200 -0.484044
O10   O     O_2   0.197067 0.123546 0.552876 -0.482446
O11   O     O_3   0.116402 0.159622 0.687987 -0.591016
O12   O     O_3   0.122420 0.434370 0.414380 -0.496442
O13   O     O_3   0.578370 0.633800 0.536380 -0.484203
O14   O     O_2   0.341510 0.231850 0.465510 -0.478053
O15   O     O_3   0.520596 0.179281 0.350606 -0.666153
O16   O     O_2   0.421857 0.457504 0.756281 -0.497144
O17   O     O_3   0.465971 0.258655 0.745625 -0.587163
O18   O     O_3   0.659500 0.627100 0.368810 -0.469508
O19   O     O_2   0.774531 0.546487 0.243852 -0.493841
O20   O     O_3   0.996638 0.253908 0.318474 -0.645078
O21   O     O_3   0.711107 0.742387 0.254139 -0.599093
O22   O     O_2   0.848200 0.768190 0.534530 -0.456751
O23   O     O_3   0.081160 0.685950 0.404810 -0.489339
O24   O     O_2   0.999342 0.878415 0.450291 -0.488149
P1    P     P_3+3 0.041040 0.394770 0.336330 0.966476
P2    P     P_3+3 0.672880 0.754030 0.556100 0.971319
P3    P     P_3+3 0.128129 0.823803 0.404685 0.943819
P4    P     P_3+3 0.148670 0.605320 0.663680 0.969799
P5    P     P_3+3 0.068824 0.176901 0.599532 0.957474
P6    P     P_3+3 0.643972 0.614562 0.275024 0.954644
P7    P     P_3+3 0.524604 0.229803 0.443719 0.937311
P8    P     P_3+3 0.546437 0.384526 0.725041 0.952786
H48   H     H_    0.191129 0.941958 0.586021 0.101733
C57   C     C_3   0.662951 0.675338 0.731070 -0.264875
H49   H     H_    0.790482 0.702093 0.755555 0.068121
H50   H     H_    0.579217 0.654784 0.773895 0.078644
H51   H     H_    0.659844 0.603059 0.688819 0.099746
C58   C     C_3   0.341544 0.243960 0.181767 -0.517810
H52   H     H_    0.211825 0.242218 0.198158 0.146061
H53   H     H_    0.403204 0.328208 0.184285 0.128596
H54   H     H_    0.340093 0.201308 0.124785 0.143480
H55   H     H_    0.148014 0.322051 0.732827 0.096414
C59   C     C_3   0.527969 0.106835 0.836708 -0.382785
H56   H     H_    0.425063 0.046913 0.807620 0.132350
H57   H     H_    0.591961 0.068544 0.875805 0.114614
H58   H     H_    0.475978 0.175088 0.867862 0.135557
H59   H     H_    0.869068 0.960139 0.583542 0.107996
H60   H     H_    0.322313 0.782427 0.595721 -0.105405

loop_
_geom_bond_atom_site_label_1
_geom_bond_atom_site_label_2
_ccdc_geom_bond_type
C22   P4    S    
C58   H54   S    
C53   C54   S    
Ba2   O4    S    
C6    H25   S    
Ba2   O9    S    
C39   C40   A    
C42   C51   A    
C1    H10   S    
C59   H58   S    
C39   P6    S    
O7    P4    S    
C45   H48   S    
Ba2   O13   S    
C5    C6    S    
C37   C39   A    
C51   C52   A    
C47   P2    S    
C20   P8    S    
C48   C52   A    
C6    H24   S    
C26   C27   A    
C33   C35   A    
C35   C36   A    
C59   H57   S    
C16   C17   A    
C28   H35   S    
C3    C4    S    
C57   H51   S    
C56   H13   S    
O11   P5    S    
C13   C14   A    
C53   H4    S    
C55   C57   S    
C34   C45   S    
C58   H53   S    
Ba1   Ba2   S    
O16   P8    D    
C3    H16   S    
O13   P2    S    
C7    H27   S    
C45   H2    S    
O20   P1    S    
Ba2   O5    S    
C53   O20   S    
Ba2   O14   S    
C14   C15   A    
O8    P7    S    
C53   H5    S    
C34   O7    S    
C21   C22   A    
Ba1   O23   S    
C43   C47   A    
C7    C8    S    
Ba1   O1    S    
O24   P3    D    
C10   C28   A    
C42   C50   A    
C12   O3    S    
C24   C29   A    
C23   H21   S    
C27   C41   A    
Ba1   O8    S    
C55   H9    S    
O23   P3    S    
Ba2   O12   S    
C34   H60   S    
C12   H40   S    
C5    H55   S    
C25   C32   A    
C8    H29   S    
C44   C46   A    
Ba2   O6    S    
Ba2   P4    S    
C3    O15   S    
O4    P4    D    
C49   C50   A    
C30   C33   A    
C17   C20   A    
C59   H56   S    
O2    P2    S    
Ba1   P1    S    
C38   H39   S    
C23   H45   S    
C4    H19   S    
C52   H59   S    
C26   C37   A    
C48   C49   A    
C44   C49   A    
C15   C19   A    
C6    H23   S    
C35   H38   S    
O18   P6    S    
O15   P7    S    
C5    O11   S    
C3    H17   S    
Ba1   O18   S    
C27   C28   A    
Ba1   O5    S    
C29   C30   A    
C9    C25   A    
C42   H43   S    
C54   H6    S    
C7    O17   S    
O9    P5    S    
C56   H11   S    
Ba1   O12   S    
C10   C11   A    
O12   P1    S    
C55   O2    S    
O21   P6    S    
C11   C13   A    
C50   P7    S    
C21   H33   S    
C40   C41   A    
C1    C2    S    
C2    H14   S    
O6    P8    S    
C43   C46   A    
O1    P1    D    
C44   H42   S    
C8    H28   S    
O19   P6    D    
C11   H31   S    
C34   H47   S    
C32   C36   A    
C41   P1    S    
C56   H12   S    
C51   P5    S    
Ba1   O22   S    
O17   P8    S    
C22   C24   A    
Ba1   P2    S    
C9    C15   A    
C45   H3    S    
C57   H49   S    
C23   H46   S    
C4    H18   S    
O10   P5    D    
C33   H37   S    
C29   H36   S    
O14   P7    D    
C2    O21   S    
C16   H34   S    
C30   C31   A    
C17   C18   A    
C58   H52   S    
C12   H30   S    
C40   H41   S    
C13   H32   S    
C36   C38   A    
C57   H50   S    
C55   C56   S    
C18   C24   A    
C54   H8    S    
C2    H1    S    
Ba2   O8    S    
C31   C32   A    
Ba1   O13   S    
C12   C23   S    
C1    H15   S    
O22   P2    D    
O3    P3    S    
C43   H44   S    
C7    H26   S    
C37   C38   A    
C19   C31   A    
C18   C19   A    
C14   C16   A    
C47   C48   A    
C25   C26   A    
C20   C21   A    
C46   P3    S    
O5    P4    S    
C4    C58   S    
C1    H20   S    
C54   H7    S    
C9    C10   A    
C8    C59   S    
C5    H22   S    
