data_mof_unit_31460.cif
_audit_creation_date              2012-10-26T20:03:22-0400
_audit_creation_method            fapswitch 2.2
_symmetry_space_group_name_H-M    P1
_symmetry_Int_Tables_number       1
_space_group_crystal_system       triclinic
_cell_length_a                    10.615355
_cell_length_b                    12.332999
_cell_length_c                    13.207093
_cell_angle_alpha                 116.744072
_cell_angle_beta                  77.471656
_cell_angle_gamma                 101.44691
_cell_volume                      1497.21031067

loop_
_atom_site_label
_atom_site_type_symbol
_atom_type_description
_atom_site_fract_x
_atom_site_fract_y
_atom_site_fract_z
_atom_type_partial_charge
C1    C     C_R   0.511495 0.854836 0.286635 0.524808
C2    C     C_R   0.498654 0.566614 0.009312 0.032499
C3    C     C_R   0.459854 0.650317 0.123604 0.023226
C4    C     C_R   0.740365 0.999800 0.499783 0.547428
C5    C     C_R   0.456031 0.440078 0.975836 0.029997
C6    C     C_R   0.365538 0.400798 0.052473 0.052349
C7    C     C_R   0.316683 0.486460 0.159411 -0.139870
C8    C     C_R   0.361691 0.609477 0.193983 -0.123802
C9    C     C_R   0.501684 0.350969 0.868622 -0.133836
C10   C     C_R   0.365269 0.190069 0.911100 -0.129148
C11   C     C_R   0.519293 0.773024 0.163661 -0.003184
C12   C     C_3   0.013111 0.907871 0.523822 -0.128638
C13   C     C_R   0.707374 0.347102 0.328958 -0.149840
C14   C     C_R   0.324023 0.759216 0.645111 0.046292
C15   C     C_R   0.285821 0.662625 0.676654 -0.161453
C16   C     C_R   0.480587 0.145126 0.713338 0.552306
C17   C     C_R   0.351989 0.559378 0.622027 -0.137231
C18   C     C_R   0.458003 0.551429 0.534565 -0.006132
C19   C     C_R   0.493769 0.653066 0.505287 0.181121
C20   C     C_R   0.529852 0.447109 0.475284 -0.013807
C21   C     C_R   0.635251 0.447037 0.388475 0.037522
C22   C     C_R   0.668523 0.546713 0.361479 -0.174328
C23   C     C_3   0.954464 0.892239 0.419722 -0.142295
C24   C     C_R   0.599668 0.647256 0.418589 -0.095639
C25   C     C_R   0.502433 0.342033 0.497857 0.039851
C26   C     C_R   0.675456 0.247064 0.355303 0.039149
C27   C     C_R   0.259651 0.000089 0.500089 0.567479
C28   C     C_3   0.986282 0.091919 0.475351 -0.114512
C29   C     C_3   0.066050 0.983619 0.395572 -0.149106
C30   C     C_3   0.122797 0.999124 0.499484 0.067792
C31   C     C_3   0.043590 0.104248 0.577454 0.105918
C32   C     C_3   0.933172 0.015798 0.604230 -0.091116
C33   C     C_3   0.877196 0.000247 0.499881 0.025714
C34   C     C_R   0.322536 0.276138 0.020165 -0.128437
C35   C     C_R   0.452792 0.228058 0.834318 0.002845
C36   C     C_R   0.598394 0.815158 0.085701 -0.134648
C37   C     C_R   0.624189 0.736265 0.970813 -0.142170
C38   C     C_R   0.577331 0.613050 0.932827 -0.121140
Cu1   Cu    Cu3+1 0.529830 0.098270 0.475420 0.925293
Cu2   Cu    Cu3+1 0.470170 0.901730 0.524580 0.912307
H1    H     H_    0.123089 0.969874 0.310476 0.111189
H2    H     H_    0.424165 0.334184 0.562304 0.118831
H3    H     H_    0.272096 0.838945 0.688063 0.124393
H4    H     H_    0.973525 0.168427 0.457291 0.115674
H5    H     H_    0.318222 0.487452 0.649946 0.098018
H6    H     H_    0.204592 0.667805 0.743733 0.101428
H7    H     H_    0.633538 0.718653 0.391638 0.182444
H8    H     H_    0.876862 0.030758 0.689839 0.113660
H9    H     H_    0.026422 0.832303 0.542992 0.118651
H10   H     H_    0.913990 0.804498 0.354639 0.105439
H11   H     H_    0.326005 0.094976 0.885344 0.121205
H12   H     H_    0.574775 0.374534 0.808926 0.115930
H13   H     H_    0.243384 0.458284 0.216840 0.105261
H14   H     H_    0.253122 0.245686 0.078152 0.103115
H15   H     H_    0.019891 0.274365 0.703242 0.223336
H16   H     H_    0.165501 0.262563 0.620843 0.226891
H17   H     H_    0.643159 0.908963 0.113984 0.126327
H18   H     H_    0.602010 0.557430 0.842562 0.104709
H19   H     H_    0.684353 0.770080 0.911238 0.116975
H20   H     H_    0.315598 0.671996 0.275460 0.149499
H21   H     H_    0.730746 0.169644 0.309655 0.116837
H22   H     H_    0.749243 0.547279 0.295297 0.105596
H23   H     H_    0.788063 0.346445 0.262467 0.089919
N1    N     N_R   0.575030 0.246270 0.438190 -0.233626
N2    N     N_R   0.425760 0.754330 0.561190 -0.236111
N3    N     N_3   0.095386 0.219268 0.663774 -0.629338
O1    O     O_R   0.537510 0.972500 0.318130 -0.504234
O2    O     O_R   0.487140 0.806530 0.359650 -0.529254
O3    O     O_R   0.708330 0.082950 0.479220 -0.506418
O4    O     O_R   0.657960 0.916980 0.520740 -0.518518
O5    O     O_R   0.512860 0.193470 0.640350 -0.505841
O6    O     O_R   0.462490 0.027500 0.681870 -0.504536
O7    O     O_R   0.342040 0.083020 0.479260 -0.501477
O8    O     O_R   0.291670 0.917050 0.520780 -0.519539

loop_
_geom_bond_atom_site_label_1
_geom_bond_atom_site_label_2
_ccdc_geom_bond_type
C31   N3    S    
C16   O6    A    
C4    O4    A    
C12   H9    S    
C7    C8    A    
Cu1   N1    S    
C9    H12   S    
C12   C23   S    
C28   C29   S    
C29   C30   S    
Cu2   O4    S    
C23   C29   S    
C11   C36   A    
C26   H21   S    
C17   H5    S    
C2    C3    A    
C16   C35   S    
C30   C31   S    
C20   C25   A    
C1    O2    A    
C18   C19   A    
C26   N1    A    
C38   H18   S    
C23   C33   S    
C1    C11   S    
C10   C35   A    
C27   O8    A    
C29   H1    S    
C21   C22   A    
C12   C32   S    
C27   C30   S    
C32   H8    S    
C16   O5    A    
C10   H11   S    
C4    O3    A    
C3    C8    A    
Cu1   Cu2   S    
C23   H10   S    
C28   H4    S    
C6    C34   A    
C25   N1    A    
C5    C9    A    
C37   C38   A    
C22   H22   S    
C2    C38   A    
C31   C32   S    
C13   H23   S    
C17   C18   A    
Cu1   O3    S    
C13   C21   A    
C10   C34   A    
C37   H19   S    
C28   C33   S    
C36   H17   S    
Cu2   N2    S    
C22   C24   A    
C13   C26   A    
C2    C5    A    
C7    H13   S    
H15   N3    S    
C15   C17   A    
C4    C33   S    
C36   C37   A    
Cu2   O6    S    
C12   C30   S    
C24   H7    S    
Cu1   O1    S    
C28   C31   S    
C25   H2    S    
C34   H14   S    
C6    C7    A    
C32   C33   S    
C19   C24   A    
C8    H20   S    
C5    C6    A    
H16   N3    S    
C1    O1    A    
C14   N2    A    
Cu2   O8    S    
C19   N2    A    
C18   C20   A    
Cu1   O7    S    
C3    C11   A    
C20   C21   A    
Cu2   O2    S    
C9    C35   A    
Cu1   O5    S    
C14   C15   A    
C15   H6    S    
C27   O7    A    
C14   H3    S    
