data_mof_unit_67511.cif
_audit_creation_date              2012-12-10T16:47:25-0500
_audit_creation_method            fapswitch 2.2
_symmetry_space_group_name_H-M    P1
_symmetry_Int_Tables_number       1
_space_group_crystal_system       triclinic
_cell_length_a                    10.635155
_cell_length_b                    8.706954
_cell_length_c                    7.457191
_cell_angle_alpha                 102.138722
_cell_angle_beta                  95.199257
_cell_angle_gamma                 92.427547
_cell_volume                      670.97864268

loop_
_atom_site_label
_atom_site_type_symbol
_atom_type_description
_atom_site_fract_x
_atom_site_fract_y
_atom_site_fract_z
_atom_type_partial_charge
C1    C     C_R   0.498950 0.200762 0.455149 0.856578
C2    C     C_R   0.501050 0.799238 0.544851 0.856578
C3    C     C_R   0.259809 0.500128 0.500899 0.901151
C4    C     C_R   0.740191 0.499872 0.499101 0.901151
C5    C     C_3   0.051926 0.512709 0.673645 0.393311
C6    C     C_3   0.948073 0.487291 0.326354 0.393311
C7    C     C_3   0.958198 0.377594 0.566102 0.361781
C8    C     C_3   0.041802 0.622406 0.433898 0.361782
C9    C     C_3   0.876332 0.499543 0.498184 -0.289935
C10   C     C_3   0.123668 0.500457 0.501816 -0.289935
C11   C     C_3   0.969435 0.634520 0.605720 -0.116383
C12   C     C_3   0.030565 0.365480 0.394280 -0.116383
C13   C     C_2   0.518305 0.037803 0.436068 0.135470
C14   C     C_2   0.481695 0.962197 0.563932 0.135470
Cu1   Cu    Cu3+1 0.514140 0.517380 0.684380 1.106411
Cu2   Cu    Cu3+1 0.485860 0.482620 0.315620 1.106411
H1    H     H_    0.398241 0.381817 0.949065 0.278175
H2    H     H_    0.601759 0.618183 0.050934 0.278175
N1    N     N_2   0.464560 0.456420 0.038510 -0.164408
N2    N     N_2   0.535440 0.543580 0.961490 -0.164408
O1    O     O_R   0.509190 0.286130 0.619780 -0.566008
O2    O     O_R   0.490810 0.713870 0.380220 -0.566008
O3    O     O_R   0.485310 0.256770 0.308360 -0.542592
O4    O     O_R   0.514690 0.743230 0.691640 -0.542592
O5    O     O_R   0.328790 0.514640 0.655680 -0.559290
O6    O     O_R   0.671210 0.485360 0.344320 -0.559290
O7    O     O_R   0.304910 0.485280 0.344260 -0.553914
O8    O     O_R   0.695090 0.514720 0.655740 -0.553914
Cl1   Cl    Cl    0.900270 0.214292 0.651101 -0.497432
Cl2   Cl    Cl    0.099730 0.785707 0.348899 -0.497432
Cl3   Cl    Cl    0.125585 0.531291 0.902386 -0.455499
Cl4   Cl    Cl    0.874415 0.468708 0.097614 -0.455499
C15   C     C_3   0.932905 0.786883 0.725407 -0.526869
H3    H     H_    0.019228 0.864298 0.781559 0.274654
H4    H     H_    0.869028 0.848073 0.641409 0.243075
H5    H     H_    0.883589 0.760382 0.841352 0.258619
C16   C     C_3   0.067095 0.213117 0.274593 -0.526870
H6    H     H_    0.980772 0.135702 0.218441 0.274654
H7    H     H_    0.116411 0.239618 0.158648 0.258619
H8    H     H_    0.130971 0.151926 0.358591 0.243076
Cl5   Cl    Cl    0.610769 0.955788 0.256995 -0.536896
Cl6   Cl    Cl    0.389231 0.044212 0.743005 -0.536896

loop_
_geom_bond_atom_site_label_1
_geom_bond_atom_site_label_2
_ccdc_geom_bond_type
C2    O2    A    
C6    Cl4   S    
C1    O1    A    
C16   H6    S    
C7    Cl1   S    
Cu2   O3    S    
C4    O6    A    
N1    N2    D    
C11   C15   S    
C14   Cl6   S    
C8    Cl2   S    
C15   H5    S    
Cu2   O7    S    
C13   Cl5   S    
C15   H3    S    
C5    C10   S    
C16   H7    S    
C3    C10   S    
C13   C14   D    
Cu2   O6    S    
C9    C11   S    
Cu1   O8    S    
C7    C12   S    
C10   C12   S    
C6    C9    S    
Cu2   N1    S    
C6    C12   S    
C3    O7    A    
Cu1   O4    S    
C15   H4    S    
C5    C11   S    
C16   H8    S    
H2    N2    S    
C8    C11   S    
C2    O4    A    
Cu1   N2    S    
C2    C14   S    
Cu1   O5    S    
C1    C13   S    
Cu1   Cu2   S    
C7    C9    S    
Cu1   O1    S    
C3    O5    A    
C8    C10   S    
C4    O8    A    
C12   C16   S    
C5    C7    S    
C6    C8    S    
C1    O3    A    
H1    N1    S    
C4    C9    S    
Cu2   O2    S    
C5    Cl3   S    
