data_mof_unit_54849.cif
_audit_creation_date              2012-12-11T15:22:44-0500
_audit_creation_method            fapswitch 2.2
_symmetry_space_group_name_H-M    P1
_symmetry_Int_Tables_number       1
_space_group_crystal_system       triclinic
_cell_length_a                    22.447989
_cell_length_b                    12.984851
_cell_length_c                    27.015602
_cell_angle_alpha                 90.000191
_cell_angle_beta                  90.238714
_cell_angle_gamma                 90.00026
_cell_volume                      7874.54177985

loop_
_atom_site_label
_atom_site_type_symbol
_atom_type_description
_atom_site_fract_x
_atom_site_fract_y
_atom_site_fract_z
_atom_type_partial_charge
C1    C     C_R   0.720985 0.345067 0.178406 0.542920
C2    C     C_R   0.482712 0.262936 0.896067 0.078593
C3    C     C_R   0.012509 0.589885 0.555408 -0.171774
C4    C     C_R   0.499986 0.086638 0.394094 -0.127555
C5    C     C_R   0.500024 0.086664 0.605904 -0.127541
C6    C     C_R   0.999982 0.586651 0.394095 -0.127538
C7    C     C_R   0.000022 0.586654 0.605906 -0.127488
C8    C     C_R   0.734156 0.981201 0.376201 -0.010201
C9    C     C_R   0.265857 0.981264 0.623799 -0.009909
C10   C     C_R   0.234161 0.481150 0.376184 -0.010027
C11   C     C_R   0.765844 0.481195 0.623800 -0.010194
C12   C     C_R   0.722088 0.883423 0.395928 0.070835
C13   C     C_R   0.017288 0.762936 0.103934 0.078595
C14   C     C_R   0.277509 0.883336 0.604081 0.070742
C15   C     C_R   0.222274 0.383281 0.395884 0.070767
C16   C     C_R   0.777905 0.383412 0.604076 0.070826
C17   C     C_R   0.720481 0.871225 0.447301 -0.128201
C18   C     C_R   0.279094 0.871119 0.552709 -0.128291
C19   C     C_R   0.220679 0.371021 0.447254 -0.128068
C20   C     C_R   0.779516 0.371209 0.552703 -0.128219
C21   C     C_R   0.729688 0.956219 0.478692 0.012650
C22   C     C_R   0.270276 0.956230 0.521309 0.012640
C23   C     C_R   0.229729 0.456035 0.478663 0.012689
C24   C     C_R   0.982703 0.762938 0.896069 0.078599
C25   C     C_R   0.770317 0.456200 0.521310 0.012624
C26   C     C_R   0.738639 0.054160 0.458491 0.372311
C27   C     C_R   0.261728 0.054288 0.541506 0.372344
C28   C     C_R   0.238502 0.554046 0.458487 0.372306
C29   C     C_R   0.761372 0.554146 0.541508 0.372316
C30   C     C_R   0.741454 0.066052 0.407764 -0.079318
C31   C     C_R   0.258943 0.066213 0.592237 -0.079010
C32   C     C_R   0.241289 0.566013 0.407763 -0.078978
C33   C     C_R   0.758555 0.566045 0.592235 -0.079319
C34   C     C_R   0.786264 0.981439 0.556250 -0.040254
C35   C     C_R   0.507389 0.263676 0.052203 0.037632
C36   C     C_R   0.214009 0.982116 0.443617 -0.040432
C37   C     C_R   0.286246 0.481397 0.556237 -0.040118
C38   C     C_R   0.713726 0.481386 0.443761 -0.040275
C39   C     C_R   0.721184 0.347633 0.321743 0.557347
C40   C     C_R   0.278818 0.347620 0.678253 0.557274
C41   C     C_R   0.221191 0.847631 0.321744 0.557149
C42   C     C_R   0.778816 0.847632 0.678257 0.557334
C43   C     C_R   0.797236 0.957618 0.605388 -0.156428
C44   C     C_R   0.203039 0.958228 0.394477 -0.156371
C45   C     C_R   0.297207 0.457618 0.605383 -0.156351
C46   C     C_R   0.492612 0.263676 0.947796 0.037635
C47   C     C_R   0.702751 0.457573 0.394623 -0.156434
C48   C     C_R   0.705818 0.857564 0.607903 0.374915
C49   C     C_R   0.294072 0.857059 0.392193 0.374735
C50   C     C_R   0.205869 0.357350 0.607861 0.374992
C51   C     C_R   0.794186 0.357584 0.392093 0.374939
C52   C     C_R   0.694973 0.881800 0.558447 -0.056540
C53   C     C_R   0.304890 0.881306 0.441647 -0.056528
C54   C     C_R   0.195044 0.381522 0.558397 -0.056511
C55   C     C_R   0.805032 0.381810 0.441550 -0.056497
C56   C     C_R   0.736051 0.941271 0.532121 0.020485
C57   C     C_R   0.007385 0.763676 0.052205 0.037637
C58   C     C_R   0.263989 0.941352 0.467867 0.020423
C59   C     C_R   0.236087 0.441085 0.532088 0.020663
C60   C     C_R   0.763948 0.441247 0.467883 0.020486
C61   C     C_R   0.758631 0.891840 0.631110 0.020412
C62   C     C_R   0.241433 0.891860 0.368876 0.020296
C63   C     C_R   0.258636 0.391768 0.631093 0.020435
C64   C     C_R   0.741365 0.391834 0.368893 0.020422
C65   C     C_R   0.554561 0.158937 0.321742 0.546227
C66   C     C_R   0.445436 0.158938 0.678256 0.546219
C67   C     C_R   0.054563 0.658937 0.321743 0.546233
C68   C     C_R   0.992606 0.763677 0.947798 0.037633
C69   C     C_R   0.945438 0.658937 0.678257 0.546248
C70   C     C_R   0.731121 0.004066 0.323653 0.566388
C71   C     C_R   0.268875 0.004060 0.676351 0.566481
C72   C     C_R   0.231127 0.504042 0.323643 0.566475
C73   C     C_R   0.768878 0.504064 0.676348 0.566387
C74   C     C_R   0.515104 0.074876 0.102482 -0.111584
C75   C     C_R   0.484898 0.074875 0.897517 -0.111571
C76   C     C_R   0.015103 0.574875 0.102483 -0.111569
C77   C     C_R   0.984895 0.574877 0.897518 -0.111569
C78   C     C_R   0.506185 0.075014 0.051584 -0.051299
C79   C     C_R   0.503368 0.169512 0.025994 -0.028487
C80   C     C_R   0.493817 0.075014 0.948415 -0.051299
C81   C     C_R   0.006183 0.575014 0.051585 -0.051301
C82   C     C_R   0.993814 0.575015 0.948416 -0.051301
C83   C     C_R   0.497183 0.981567 0.974376 0.411003
C84   C     C_R   0.502820 0.981567 0.025622 0.410999
C85   C     C_R   0.997181 0.481568 0.974377 0.411014
C86   C     C_R   0.002819 0.481567 0.025623 0.411015
C87   C     C_R   0.496633 0.169512 0.974005 -0.028487
C88   C     C_R   0.003365 0.669512 0.025995 -0.028487
C89   C     C_R   0.279013 0.345072 0.821592 0.542936
C90   C     C_R   0.996629 0.669513 0.974007 -0.028487
C91   C     C_R   0.503544 0.356294 0.025515 -0.108055
C92   C     C_R   0.496455 0.356294 0.974485 -0.108057
C93   C     C_R   0.003538 0.856295 0.025517 -0.108059
C94   C     C_R   0.996448 0.856295 0.974488 -0.108060
C95   C     C_R   0.741986 0.954069 0.130072 0.021059
C96   C     C_R   0.258015 0.954065 0.869927 0.021086
C97   C     C_R   0.241986 0.454064 0.130073 0.021088
C98   C     C_R   0.758010 0.454067 0.869926 0.021073
C99   C     C_R   0.793229 0.980978 0.102059 0.063404
C100  C     C_R   0.220987 0.845074 0.178408 0.542878
C101  C     C_R   0.206770 0.980964 0.897940 0.063435
C102  C     C_R   0.293230 0.480970 0.102060 0.063446
C103  C     C_R   0.706771 0.480993 0.897942 0.063434
C104  C     C_R   0.793842 0.964719 0.051215 -0.110521
C105  C     C_R   0.206155 0.964701 0.948783 -0.110501
C106  C     C_R   0.293845 0.464706 0.051217 -0.110497
C107  C     C_R   0.706157 0.464732 0.948785 -0.110509
C108  C     C_R   0.744458 0.923202 0.026761 -0.022935
C109  C     C_R   0.255542 0.923198 0.973239 -0.022926
C110  C     C_R   0.244461 0.423189 0.026763 -0.022926
C111  C     C_R   0.779013 0.845073 0.821592 0.542926
C112  C     C_R   0.755533 0.423179 0.973234 -0.022936
C113  C     C_R   0.696472 0.886953 0.054713 -0.105510
C114  C     C_R   0.303531 0.886960 0.945287 -0.105508
C115  C     C_R   0.196474 0.386942 0.054715 -0.105503
C116  C     C_R   0.803512 0.386908 0.945281 -0.105496
C117  C     C_R   0.553335 0.158011 0.177661 0.556899
C118  C     C_R   0.446665 0.158011 0.822338 0.556925
C119  C     C_R   0.053335 0.658011 0.177661 0.556917
C120  C     C_R   0.946664 0.658011 0.822339 0.556920
C121  C     C_R   0.695733 0.898325 0.105978 0.064197
C122  C     C_R   0.475319 0.166853 0.871475 -0.013702
C123  C     C_R   0.304270 0.898329 0.894022 0.064205
C124  C     C_R   0.195734 0.398318 0.105980 0.064200
C125  C     C_R   0.804256 0.398299 0.894017 0.064193
C126  C     C_R   0.719690 0.825839 0.949883 -0.096004
C127  C     C_R   0.280331 0.825869 0.050123 -0.096008
C128  C     C_R   0.219691 0.325830 0.949884 -0.096005
C129  C     C_R   0.780244 0.325737 0.050097 -0.095998
C130  C     C_R   0.726424 0.809613 0.899520 -0.102937
C131  C     C_R   0.273599 0.809646 0.100486 -0.102955
C132  C     C_R   0.226424 0.309607 0.899521 -0.102941
C133  C     C_R   0.524683 0.166853 0.128524 -0.013707
C134  C     C_R   0.773509 0.309507 0.100459 -0.102913
C135  C     C_R   0.782665 0.968175 0.892362 -0.103332
C136  C     C_R   0.217320 0.968164 0.107636 -0.103334
C137  C     C_R   0.282667 0.468168 0.892364 -0.103327
C138  C     C_R   0.717373 0.468182 0.107640 -0.103336
C139  C     C_R   0.774327 0.986241 0.942730 -0.104469
C140  C     C_R   0.225658 0.986229 0.057267 -0.104471
C141  C     C_R   0.274329 0.486231 0.942733 -0.104466
C142  C     C_R   0.725709 0.486245 0.057271 -0.104456
C143  C     C_R   0.745014 0.912820 0.972353 0.032815
C144  C     C_R   0.975315 0.666855 0.871477 -0.013697
C145  C     C_R   0.254987 0.912824 0.027648 0.032810
C146  C     C_R   0.245016 0.412808 0.972355 0.032814
C147  C     C_R   0.754974 0.412778 0.027640 0.032825
C148  C     C_R   0.760017 0.878254 0.870795 0.022411
C149  C     C_R   0.239986 0.878263 0.129207 0.022394
C150  C     C_R   0.260017 0.378249 0.870796 0.022415
C151  C     C_R   0.739974 0.378215 0.129197 0.022452
C152  C     C_R   0.529233 0.169503 0.371442 -0.036312
C153  C     C_R   0.470751 0.169506 0.628553 -0.036348
C154  C     C_R   0.029242 0.669504 0.371445 -0.036384
C155  C     C_R   0.024682 0.666853 0.128525 -0.013700
C156  C     C_R   0.970759 0.669505 0.628556 -0.036311
C157  C     C_R   0.543918 0.256924 0.399630 -0.082636
C158  C     C_R   0.456029 0.256900 0.600359 -0.082644
C159  C     C_R   0.043946 0.756910 0.399636 -0.082653
C160  C     C_R   0.956053 0.756909 0.600364 -0.082641
C161  C     C_R   0.532733 0.259318 0.450149 0.453287
C162  C     C_R   0.467207 0.259292 0.549839 0.453498
C163  C     C_R   0.032763 0.759302 0.450156 0.453414
C164  C     C_R   0.967235 0.759301 0.549844 0.453311
C165  C     C_R   0.731828 0.000803 0.179427 0.561689
C166  C     C_R   0.517292 0.262936 0.103932 0.078599
C167  C     C_R   0.268172 0.000802 0.820573 0.561726
C168  C     C_R   0.231829 0.500802 0.179427 0.561721
C169  C     C_R   0.768171 0.500803 0.820572 0.561701
C170  C     C_R   0.504865 0.175283 0.473107 0.065936
C171  C     C_R   0.495106 0.175282 0.526885 0.065939
C172  C     C_R   0.004880 0.675281 0.473112 0.065877
C173  C     C_R   0.995120 0.675282 0.526889 0.065896
C174  C     C_R   0.487495 0.089870 0.444592 -0.171724
C175  C     C_R   0.512509 0.089895 0.555405 -0.171850
C176  C     C_R   0.987495 0.589882 0.444593 -0.171861
Cr1   Cr    Cr6+3 0.756570 0.170940 0.251190 1.127028
Cr2   Cr    Cr6+3 0.374010 0.036240 0.749520 1.098654
Cr3   Cr    Cr6+3 0.125990 0.536240 0.250480 1.098747
Cr4   Cr    Cr6+3 0.874010 0.536240 0.749520 1.098792
Cr5   Cr    Cr6+3 0.243430 0.170940 0.748810 1.127116
Cr6   Cr    Cr6+3 0.256570 0.670940 0.251190 1.127064
Cr7   Cr    Cr6+3 0.743430 0.670940 0.748810 1.127009
Cr8   Cr    Cr6+3 0.623740 0.299110 0.249580 1.085543
Cr9   Cr    Cr6+3 0.376260 0.299110 0.750420 1.085488
Cr10  Cr    Cr6+3 0.123740 0.799110 0.249580 1.085521
Cr11  Cr    Cr6+3 0.876260 0.799110 0.750420 1.085553
Cr12  Cr    Cr6+3 0.625990 0.036240 0.250480 1.098742
F1    F     F_    0.552635 0.340848 0.477009 -0.576829
F2    F     F_    0.333357 0.795139 0.368359 -0.605093
F3    F     F_    0.166439 0.295920 0.631805 -0.604989
F4    F     F_    0.833659 0.296287 0.368123 -0.605120
F5    F     F_    0.744249 0.138457 0.487853 -0.653643
F6    F     F_    0.256514 0.138660 0.512140 -0.653613
F7    F     F_    0.243958 0.638337 0.487871 -0.653725
F8    F     F_    0.755769 0.638441 0.512142 -0.653580
F9    F     F_    0.447272 0.340791 0.522975 -0.576662
F10   F     F_    0.052680 0.840817 0.477017 -0.576577
F11   F     F_    0.947315 0.840812 0.522983 -0.576810
F12   F     F_    0.494223 0.889908 0.950222 -0.579914
F13   F     F_    0.505781 0.889908 0.049776 -0.579923
F14   F     F_    0.994221 0.389910 0.950223 -0.579909
F15   F     F_    0.005781 0.389908 0.049776 -0.579903
F16   F     F_    0.666354 0.796222 0.631863 -0.605119
H1    H     H_    0.481039 0.001625 0.878575 0.221779
H2    H     H_    0.341352 0.850930 0.963215 0.168057
H3    H     H_    0.158657 0.350899 0.036787 0.168060
H4    H     H_    0.841320 0.350836 0.963210 0.168069
H5    H     H_    0.567896 0.320869 0.383377 0.156933
H6    H     H_    0.432031 0.320824 0.616609 0.156927
H7    H     H_    0.067936 0.820842 0.383385 0.157121
H8    H     H_    0.932063 0.820841 0.616615 0.156932
H9    H     H_    0.534560 0.024814 0.538333 0.135870
H10   H     H_    0.465467 0.024768 0.461667 0.135981
H11   H     H_    0.034552 0.524797 0.538334 0.135929
H12   H     H_    0.518963 0.001626 0.121423 0.221771
H13   H     H_    0.965455 0.524791 0.461667 0.135880
H14   H     H_    0.511308 0.018181 0.626826 0.172945
H15   H     H_    0.488728 0.018135 0.373176 0.172834
H16   H     H_    0.011295 0.518163 0.626826 0.172951
H17   H     H_    0.988711 0.518159 0.373175 0.172977
H18   H     H_    0.818840 0.026777 0.536347 0.199537
H19   H     H_    0.181584 0.027955 0.463433 0.199119
H20   H     H_    0.318785 0.526831 0.536343 0.199373
H21   H     H_    0.681147 0.526700 0.463671 0.199515
H22   H     H_    0.838033 0.985673 0.622161 0.173871
H23   H     H_    0.981037 0.501627 0.878576 0.221776
H24   H     H_    0.162399 0.986726 0.377605 0.173974
H25   H     H_    0.337966 0.485776 0.622176 0.173790
H26   H     H_    0.661947 0.485604 0.377856 0.173866
H27   H     H_    0.713549 0.795233 0.462659 0.209571
H28   H     H_    0.285723 0.795041 0.537359 0.209920
H29   H     H_    0.213877 0.294976 0.462596 0.209429
H30   H     H_    0.786442 0.295212 0.537347 0.209599
H31   H     H_    0.655543 0.851696 0.540273 0.145702
H32   H     H_    0.344148 0.850740 0.459909 0.146022
H33   H     H_    0.155655 0.351308 0.540205 0.145616
H34   H     H_    0.018963 0.501625 0.121424 0.221780
H35   H     H_    0.844470 0.351730 0.459719 0.145697
H36   H     H_    0.747680 0.142812 0.392939 0.174628
H37   H     H_    0.253035 0.143043 0.607070 0.173886
H38   H     H_    0.247362 0.642821 0.392952 0.174821
H39   H     H_    0.752336 0.642808 0.607058 0.174642
H40   H     H_    0.493647 0.430628 0.956839 0.171014
H41   H     H_    0.506349 0.430628 0.043160 0.171015
H42   H     H_    0.993640 0.930629 0.956843 0.171009
H43   H     H_    0.006343 0.930628 0.043163 0.171014
H44   H     H_    0.697773 0.766777 0.971425 0.125012
H45   H     H_    0.808597 0.022176 0.870772 0.161229
H46   H     H_    0.302264 0.766820 0.028585 0.125032
H47   H     H_    0.197773 0.266768 0.971425 0.125013
H48   H     H_    0.802118 0.266640 0.028545 0.124962
H49   H     H_    0.709351 0.738752 0.883940 0.166053
H50   H     H_    0.290689 0.738803 0.116071 0.166069
H51   H     H_    0.209350 0.238748 0.883939 0.166044
H52   H     H_    0.790535 0.238601 0.116031 0.165991
H53   H     H_    0.833246 0.985922 0.030595 0.143770
H54   H     H_    0.166748 0.985893 0.969401 0.143763
H55   H     H_    0.333249 0.485907 0.030597 0.143765
H56   H     H_    0.191374 0.022149 0.129222 0.161239
H57   H     H_    0.666759 0.485956 0.969409 0.143782
H58   H     H_    0.792742 0.055767 0.958785 0.121214
H59   H     H_    0.207228 0.055740 0.041210 0.121231
H60   H     H_    0.292745 0.555755 0.958789 0.121237
H61   H     H_    0.707331 0.555806 0.041221 0.121229
H62   H     H_    0.308599 0.522170 0.870774 0.161225
H63   H     H_    0.691482 0.522229 0.129240 0.161182
H64   H     H_    0.658655 0.850911 0.036785 0.168066
I1    I     I_    0.622995 0.824228 0.141956 -0.221337
I2    I     I_    0.521739 0.407538 0.143283 -0.245505
I3    I     I_    0.978251 0.907541 0.856720 -0.245511
I4    I     I_    0.021735 0.907537 0.143286 -0.245577
I5    I     I_    0.873028 0.048580 0.130120 -0.265267
I6    I     I_    0.126969 0.048556 0.869876 -0.265282
I7    I     I_    0.373029 0.548574 0.130122 -0.265355
I8    I     I_    0.626975 0.548617 0.869884 -0.265325
I9    I     I_    0.377010 0.824238 0.858045 -0.221374
I10   I     I_    0.122996 0.324224 0.141958 -0.221324
I11   I     I_    0.876988 0.324195 0.858035 -0.221324
I12   I     I_    0.708737 0.752301 0.350484 -0.292200
I13   I     I_    0.290275 0.752072 0.649542 -0.292364
I14   I     I_    0.209187 0.252136 0.350394 -0.293080
I15   I     I_    0.791231 0.252283 0.649526 -0.292246
I16   I     I_    0.478273 0.407535 0.856714 -0.245584
O1    O     O_R   0.769900 0.064540 0.196060 -0.482545
O2    O     O_R   0.433710 0.069580 0.694600 -0.498052
O3    O     O_R   0.066290 0.569580 0.305400 -0.498019
O4    O     O_R   0.933710 0.569580 0.694600 -0.498000
O5    O     O_R   0.680760 0.993330 0.302620 -0.480820
O6    O     O_R   0.319240 0.993330 0.697380 -0.481035
O7    O     O_R   0.180760 0.493330 0.302620 -0.480951
O8    O     O_R   0.819240 0.493330 0.697380 -0.480824
O9    O     O_3   0.668770 0.168760 0.250420 -0.290249
O10   O     O_3   0.331230 0.168760 0.749580 -0.290272
O11   O     O_3   0.168770 0.668760 0.250420 -0.290239
O12   O     O_R   0.230100 0.064540 0.803940 -0.482543
O13   O     O_3   0.831230 0.668760 0.749580 -0.290252
O14   O     O_R   0.750800 0.274080 0.199250 -0.500229
O15   O     O_R   0.249200 0.274080 0.800750 -0.500261
O16   O     O_R   0.250800 0.774080 0.199250 -0.500324
O17   O     O_R   0.749200 0.774080 0.800750 -0.500244
O18   O     O_R   0.669990 0.371670 0.194150 -0.486966
O19   O     O_R   0.330010 0.371670 0.805850 -0.486982
O20   O     O_R   0.169990 0.871670 0.194150 -0.486993
O21   O     O_R   0.830010 0.871670 0.805850 -0.486980
O22   O     O_R   0.574600 0.238480 0.197800 -0.465945
O23   O     O_R   0.269900 0.564540 0.196060 -0.482552
O24   O     O_R   0.425400 0.238480 0.802200 -0.465940
O25   O     O_R   0.074600 0.738480 0.197800 -0.465943
O26   O     O_R   0.925400 0.738480 0.802200 -0.465945
O27   O     O_R   0.566130 0.068680 0.194240 -0.502426
O28   O     O_R   0.433870 0.068680 0.805760 -0.502410
O29   O     O_R   0.066130 0.568680 0.194240 -0.502409
O30   O     O_R   0.933870 0.568680 0.805760 -0.502411
O31   O     O_R   0.680610 0.992490 0.199570 -0.474190
O32   O     O_R   0.319390 0.992490 0.800430 -0.474207
O33   O     O_R   0.180610 0.492490 0.199570 -0.474198
O34   O     O_R   0.730100 0.564540 0.803940 -0.482542
O35   O     O_R   0.819390 0.492490 0.800430 -0.474191
O36   O     O_R   0.770060 0.065440 0.307230 -0.476506
O37   O     O_R   0.229940 0.065440 0.692770 -0.476147
O38   O     O_R   0.270060 0.565440 0.307230 -0.476065
O39   O     O_R   0.729940 0.565440 0.692770 -0.476490
O40   O     O_R   0.750960 0.274920 0.302300 -0.438084
O41   O     O_R   0.249040 0.274920 0.697700 -0.438020
O42   O     O_R   0.250960 0.774920 0.302300 -0.437972
O43   O     O_R   0.749040 0.774920 0.697700 -0.438082
O44   O     O_R   0.670160 0.372580 0.305320 -0.526582
O45   O     O_R   0.574760 0.239320 0.300850 -0.501712
O46   O     O_R   0.329840 0.372580 0.694680 -0.526599
O47   O     O_R   0.170160 0.872580 0.305320 -0.526532
O48   O     O_R   0.829840 0.872580 0.694680 -0.526584
O49   O     O_R   0.425240 0.239320 0.699150 -0.501723
O50   O     O_R   0.074760 0.739320 0.300850 -0.501691
O51   O     O_R   0.925240 0.739320 0.699150 -0.501709
O52   O     O_R   0.566290 0.069580 0.305400 -0.498034

loop_
_geom_bond_atom_site_label_1
_geom_bond_atom_site_label_2
_ccdc_geom_bond_type
C21   C26   A    
C34   C56   A    
Cr9   O49   S    
C132  C150  A    
C107  C112  A    
Cr5   O12   S    
C120  C144  S    
C142  H61   S    
Cr6   O11   S    
C136  C140  A    
C117  C133  S    
C79   C87   A    
Cr11  O13   S    
C135  C139  A    
C43   C61   A    
C72   O7    A    
C103  I8    S    
C97   C124  A    
C95   C99   A    
C3    H11   S    
C75   C122  A    
C29   C33   A    
C126  C143  A    
C28   F7    S    
C159  H7    S    
Cr7   O17   S    
C98   C169  S    
Cr7   O43   S    
C162  C171  A    
C163  F10   S    
C140  H59   S    
C136  H56   S    
Cr9   O24   S    
C68   C90   A    
C25   C60   S    
C12   I12   S    
C81   C86   A    
C72   O38   A    
C80   C83   A    
C42   O43   A    
Cr12  O5    S    
C73   O39   A    
C25   C29   A    
Cr10  O20   S    
C27   C31   A    
C128  H47   S    
C1    O14   A    
C28   C32   A    
C13   I4    S    
C47   C64   A    
C124  I10   S    
C111  O17   A    
C126  H44   S    
C17   C21   A    
Cr8   O44   S    
C120  O30   A    
C108  C113  A    
C100  O20   A    
C19   C23   A    
C70   O5    A    
Cr3   O29   S    
Cr5   O37   S    
C39   O40   A    
C156  C160  A    
C16   C20   A    
C4    H15   S    
C164  C173  A    
C107  H57   S    
Cr8   O22   S    
C50   F3    S    
C85   F14   S    
C127  C145  A    
C89   C150  S    
C176  H13   S    
Cr1   O14   S    
C36   C44   A    
C37   C45   A    
C89   O15   A    
C170  C174  A    
C152  C157  A    
C49   C62   A    
C32   H38   S    
Cr9   O19   S    
C109  C145  S    
C51   C64   A    
C30   H36   S    
C140  C145  A    
C22   C58   S    
C66   C153  S    
C53   C58   A    
C123  I9    S    
C138  C151  A    
C82   C85   A    
C76   C155  A    
Cr12  O27   S    
C70   O36   A    
C111  C148  S    
C75   H1    S    
Cr1   O1    S    
C165  O31   A    
C67   O50   A    
C77   C82   A    
C49   C53   A    
C134  C151  A    
Cr3   O3    S    
C73   O8    A    
C51   C55   A    
C127  C131  A    
C129  C147  A    
C81   C88   A    
C169  O35   A    
C48   C52   A    
C69   O4    A    
C117  O22   A    
Cr12  O52   S    
C103  C107  A    
Cr8   O45   S    
C133  C166  A    
C157  H5    S    
C105  H54   S    
Cr6   O38   S    
C41   O47   A    
C85   C86   A    
C23   C59   S    
Cr4   O8    S    
C67   C154  S    
C167  O32   A    
Cr12  O31   S    
C13   C57   A    
C170  C171  S    
C118  C122  S    
C165  O1    A    
C153  C158  A    
C93   H43   S    
C139  C143  A    
C98   C125  A    
C7    C156  A    
Cr4   O13   S    
C164  F11   S    
C50   C63   A    
C34   H18   S    
C54   C59   A    
C14   I13   S    
C4    C152  A    
C71   O37   A    
C69   C156  S    
Cr5   O15   S    
Cr6   O16   S    
C66   O2    A    
C91   C92   A    
Cr1   O36   S    
C2    I16   S    
C49   F2    S    
C68   C94   A    
C41   O42   A    
Cr11  O26   S    
C137  H62   S    
C83   C84   A    
C8    C12   A    
C27   F6    S    
C116  H4    S    
C23   C28   A    
C53   H32   S    
C37   C59   A    
C109  C114  A    
C38   C60   A    
C7    H16   S    
Cr1   O40   S    
C26   C30   A    
C116  C125  A    
C119  O25   A    
C106  H55   S    
C101  I6    S    
C33   H39   S    
C114  C123  A    
C121  I1    S    
C112  C116  A    
C65   O45   A    
C46   C87   A    
C167  O12   A    
C111  O21   A    
C105  C109  A    
C96   C123  A    
C18   C22   A    
C120  O26   A    
C142  C147  A    
Cr2   O28   S    
C168  O33   A    
C39   O44   A    
C11   C33   A    
C97   C168  S    
C48   F16   S    
C8    C70   S    
C112  C147  S    
C154  C159  A    
C65   O52   A    
C128  C146  A    
C35   C79   A    
C137  C150  A    
C40   O41   A    
C89   O19   A    
C113  C121  A    
C15   I14   S    
C83   F12   S    
C96   C101  A    
C86   F15   S    
C172  C176  A    
C10   C72   S    
C84   F13   S    
C117  O27   A    
Cr1   O9    S    
C118  O28   A    
Cr2   O6    S    
C168  O23   A    
Cr3   O11   S    
Cr2   O32   S    
C136  C149  A    
C47   H26   S    
Cr2   O2    S    
C15   C19   A    
C39   C64   S    
C50   C54   A    
C40   C63   S    
Cr10  O25   S    
C160  C164  A    
C3    C7    A    
C46   C92   A    
C20   C25   A    
C126  C130  A    
C98   C103  A    
C35   C166  A    
Cr6   O23   S    
C76   H34   S    
Cr11  O48   S    
C12   C17   A    
C71   O6    A    
C102  I7    S    
C97   C102  A    
C43   H22   S    
C95   C121  A    
C99   C104  A    
C4    C174  A    
C55   C60   A    
C5    C175  A    
C41   C62   S    
C135  H45   S    
C95   C165  S    
C40   O46   A    
C2    C122  A    
C99   I5    S    
C34   C43   A    
C138  C142  A    
C174  H10   S    
C76   C81   A    
C9    C14   A    
C11   C16   A    
C5    H14   S    
Cr11  O21   S    
C96   C167  S    
C44   H24   S    
C36   H19   S    
C6    C154  A    
C141  C146  A    
C38   H21   S    
C88   C90   A    
C77   H23   S    
C11   C73   S    
C157  C161  A    
C104  C108  A    
Cr11  O51   S    
C137  C141  A    
C115  C124  A    
C31   H37   S    
C9    C71   S    
C54   H33   S    
C21   C56   S    
C100  C149  S    
C82   C90   A    
C127  H46   S    
C8    C30   A    
C16   I15   S    
C113  H64   S    
C134  H52   S    
C24   C144  A    
C138  H63   S    
C1    C151  S    
C24   C68   A    
C129  C134  A    
C130  H49   S    
C74   C78   A    
C18   H28   S    
C26   F5    S    
C110  C115  A    
Cr7   O13   S    
C108  C143  S    
C52   H31   S    
C158  H6    S    
Cr7   O39   S    
C91   H41   S    
C93   C94   A    
C115  H3    S    
C14   C18   A    
C17   H27   S    
C131  H50   S    
C2    C46   A    
C162  F9    S    
Cr4   O30   S    
C175  H9    S    
C80   C87   A    
C36   C58   A    
C10   C15   A    
C69   O51   A    
Cr10  O50   S    
C74   C133  A    
C66   O49   A    
C13   C155  A    
C67   O3    A    
C132  H51   S    
C3    C173  A    
C118  O24   A    
Cr2   O10   S    
C119  O29   A    
Cr3   O7    S    
C100  O16   A    
C75   C80   A    
C42   O48   A    
Cr12  O9    S    
Cr3   O33   S    
C6    H17   S    
Cr5   O41   S    
C129  H48   S    
C57   C93   A    
C166  I2    S    
C45   H25   S    
C19   H29   S    
C101  C105  A    
C160  H8    S    
C24   I3    S    
C130  C148  A    
Cr7   O34   S    
Cr5   O10   S    
C161  F1    S    
C9    C31   A    
C78   C79   A    
C125  I11   S    
C44   C62   A    
C171  C175  A    
C45   C63   A    
C114  H2    S    
Cr4   O4    S    
Cr10  O11   S    
C10   C32   A    
C94   H42   S    
Cr8   O9    S    
C42   C61   S    
C38   C47   A    
C161  C170  A    
C169  O34   A    
Cr10  O47   S    
C20   H30   S    
C1    O18   A    
C141  H60   S    
C159  C163  A    
C172  C173  S    
C106  C110  A    
C128  C132  A    
C119  C155  S    
C74   H12   S    
C163  C172  A    
C37   H20   S    
Cr9   O46   S    
C29   F8    S    
Cr6   O42   S    
C57   C88   A    
C22   C27   A    
C65   C152  S    
C77   C144  A    
C110  C146  S    
C92   H40   S    
C48   C61   A    
C6    C176  A    
C5    C153  A    
C102  C106  A    
C104  H53   S    
C131  C149  A    
C158  C162  A    
C78   C84   A    
C135  C148  A    
C139  H58   S    
Cr9   O10   S    
C55   H35   S    
C51   F4    S    
C52   C56   A    
Cr8   O18   S    
Cr4   O35   S    
C35   C91   A    
