data_mof_unit_33795.cif
_audit_creation_date              2012-12-10T16:57:46-0500
_audit_creation_method            fapswitch 2.2
_symmetry_space_group_name_H-M    P1
_symmetry_Int_Tables_number       1
_space_group_crystal_system       triclinic
_cell_length_a                    7.763695
_cell_length_b                    8.578201
_cell_length_c                    18.940369
_cell_angle_alpha                 91.043136
_cell_angle_beta                  85.10186
_cell_angle_gamma                 93.712232
_cell_volume                      1254.05537345

loop_
_atom_site_label
_atom_site_type_symbol
_atom_type_description
_atom_site_fract_x
_atom_site_fract_y
_atom_site_fract_z
_atom_type_partial_charge
C1    C     C_R   0.545886 0.794822 0.498172 0.970522
C2    C     C_R   0.454112 0.205176 0.501808 0.972054
C3    C     C_2   0.570058 0.958279 0.497112 -0.381097
C4    C     C_2   0.429936 0.041705 0.502825 -0.385164
C5    C     C_R   0.501522 0.504233 0.634990 0.872803
C6    C     C_R   0.499698 0.502804 0.365135 0.867830
C7    C     C_R   0.352718 0.560492 0.752274 -0.259990
C8    C     C_R   0.645344 0.483817 0.244693 -0.258645
C9    C     C_R   0.355563 0.610014 0.822645 0.234854
C10   C     C_R   0.664515 0.527315 0.173739 0.230602
C11   C     C_R   0.516315 0.629771 0.853044 0.052515
C12   C     C_R   0.539695 0.618903 0.147379 0.054091
C13   C     C_R   0.670177 0.604932 0.810679 -0.218178
C14   C     C_R   0.399516 0.665402 0.192912 -0.230015
C15   C     C_R   0.665544 0.557952 0.740371 -0.201077
C16   C     C_R   0.381628 0.620994 0.263278 -0.201500
C17   C     C_R   0.506784 0.535157 0.710816 -0.058582
C18   C     C_R   0.505047 0.530904 0.289511 -0.055932
C19   C     C_R   0.539523 0.650331 0.071694 0.291470
C20   C     C_R   0.526261 0.657106 0.929611 0.289232
H1    H     H_    0.228977 0.546092 0.729648 0.156370
H2    H     H_    0.741485 0.414145 0.264879 0.155100
H3    H     H_    0.795138 0.619498 0.832020 0.160407
H4    H     H_    0.302599 0.735796 0.173900 0.162109
H5    H     H_    0.786555 0.541722 0.708999 0.157079
H6    H     H_    0.273959 0.660907 0.297557 0.162558
H7    H     H_    0.702349 0.009442 0.491664 0.179559
H8    H     H_    0.297645 0.990538 0.508269 0.179643
H9    H     H_    0.013852 0.381680 0.447185 0.190310
H10   H     H_    0.986141 0.618282 0.552837 0.187291
N1    N     N_R   0.680419 0.653624 0.958171 -0.187675
N2    N     N_R   0.386607 0.661766 0.043384 -0.193202
N3    N     N_R   0.686922 0.650317 0.027934 -0.135691
N4    N     N_R   0.380221 0.664627 0.973734 -0.132561
N5    N     N_2   0.950330 0.457950 0.481240 -0.174391
N6    N     N_2   0.049670 0.542050 0.518760 -0.176026
O1    O     O_R   0.389250 0.738570 0.504600 -0.612048
O2    O     O_R   0.610750 0.261430 0.495400 -0.610197
O3    O     O_R   0.678400 0.711620 0.492580 -0.628170
O4    O     O_R   0.321600 0.288380 0.507420 -0.627045
O5    O     O_R   0.355380 0.513500 0.607880 -0.619827
O6    O     O_R   0.644620 0.486500 0.392120 -0.615814
O7    O     O_R   0.644530 0.486550 0.595850 -0.626047
O8    O     O_R   0.355470 0.513450 0.404150 -0.627168
Zn1   Zn    Zn3+2 0.306930 0.517990 0.508030 0.936740
Zn2   Zn    Zn3+2 0.693070 0.482010 0.491970 0.939629
N7    N     N_2   0.195857 0.637729 0.862050 -0.296019
H11   H     H_    0.095033 0.559899 0.850351 0.220272
C21   C     C_3   0.149074 0.798072 0.860749 -0.761793
H12   H     H_    0.123937 0.829988 0.806117 0.226467
H13   H     H_    0.254194 0.878339 0.879545 0.252678
H14   H     H_    0.029786 0.812137 0.896397 0.252926
N8    N     N_2   0.804376 0.471832 0.128902 -0.301557
H15   H     H_    0.819869 0.354434 0.135078 0.223819
C22   C     C_3   0.965850 0.564271 0.132841 -0.742654
H16   H     H_    0.011830 0.557011 0.186609 0.224188
H17   H     H_    0.949483 0.688380 0.120599 0.253168
H18   H     H_    0.065241 0.518941 0.093512 0.261779

loop_
_geom_bond_atom_site_label_1
_geom_bond_atom_site_label_2
_ccdc_geom_bond_type
C8    H2    S    
C22   H16   S    
N1    N3    A    
C15   C17   A    
C1    O1    A    
C11   C13   A    
O5    Zn1   S    
C2    O2    A    
N8    C22   S    
C2    C4    S    
N7    H11   S    
C13   C15   A    
H10   N6    S    
C21   H14   S    
C20   N4    A    
C3    H7    S    
C5    O7    A    
N6    Zn1   S    
N7    C21   S    
C6    O8    A    
N8    H15   S    
C9    C11   A    
C10   C12   A    
O3    Zn2   S    
C19   N2    A    
C12   C19   S    
C16   C18   A    
C4    H8    S    
C12   C14   A    
C9    N7    S    
C22   H17   S    
C16   H6    S    
O4    Zn1   S    
C6    C18   S    
O7    Zn2   S    
C14   C16   A    
C11   C20   S    
O2    Zn2   S    
C15   H5    S    
C1    O3    A    
O1    Zn1   S    
C3    C4    D    
C2    O4    A    
C5    C17   S    
O8    Zn1   S    
C13   H3    S    
C8    C10   A    
C21   H12   S    
O6    Zn2   S    
C22   H18   S    
C14   H4    S    
C7    C9    A    
C10   N8    S    
H9    N5    S    
C5    O5    A    
C21   H13   S    
N2    N4    A    
C7    H1    S    
N5    Zn2   S    
C6    O6    A    
C8    C18   A    
N5    N6    D    
C19   N3    A    
C1    C3    S    
C20   N1    A    
C7    C17   A    
