data_mof_unit_38653.cif
_audit_creation_date              2012-12-10T19:47:22-0500
_audit_creation_method            fapswitch 2.2
_symmetry_space_group_name_H-M    P1
_symmetry_Int_Tables_number       1
_space_group_crystal_system       triclinic
_cell_length_a                    10.92774
_cell_length_b                    10.830637
_cell_length_c                    12.732717
_cell_angle_alpha                 92.06372
_cell_angle_beta                  93.288663
_cell_angle_gamma                 87.06561
_cell_volume                      1501.69160497

loop_
_atom_site_label
_atom_site_type_symbol
_atom_type_description
_atom_site_fract_x
_atom_site_fract_y
_atom_site_fract_z
_atom_type_partial_charge
C1    C     C_R   0.261900 0.499189 0.500420 0.887490
C2    C     C_R   0.738101 0.500787 0.499580 0.887224
C3    C     C_R   0.496711 0.871438 0.496391 -0.237586
C4    C     C_R   0.503389 0.128562 0.503580 -0.237637
C5    C     C_R   0.416416 0.941481 0.428665 0.020288
C6    C     C_R   0.583736 0.058515 0.571261 0.020078
C7    C     C_R   0.268900 0.210156 0.733547 0.683696
C8    C     C_R   0.730945 0.789732 0.266485 0.682953
C9    C     C_R   0.210070 0.276444 0.651716 -0.311552
C10   C     C_R   0.789839 0.723460 0.348297 -0.310774
C11   C     C_R   0.141116 0.386222 0.673181 -0.109112
C12   C     C_R   0.858862 0.613719 0.326810 -0.108642
C13   C     C_R   0.135654 0.431866 0.777642 0.651931
C14   C     C_R   0.864318 0.568088 0.222343 0.651848
C15   C     C_R   0.196964 0.366849 0.859909 0.150882
C16   C     C_R   0.802938 0.633087 0.140092 0.151088
C17   C     C_R   0.263484 0.255179 0.837837 0.237008
C18   C     C_R   0.736351 0.744722 0.162190 0.236837
C19   C     C_R   0.942749 0.453156 0.584595 0.667440
C20   C     C_R   0.057247 0.546755 0.415383 0.667793
C21   C     C_R   0.871753 0.502448 0.499142 -0.292793
C22   C     C_R   0.128247 0.497501 0.500852 -0.292753
C23   C     C_R   0.504835 0.261915 0.501507 0.878368
C24   C     C_R   0.495212 0.738087 0.498489 0.878527
C25   C     C_R   0.929390 0.550367 0.414011 -0.022676
C26   C     C_R   0.070605 0.449571 0.585977 -0.022657
C27   C     C_2   0.517671 0.457191 0.036345 0.209850
C28   C     C_2   0.482281 0.542806 0.963649 0.209782
C29   C     C_1   0.506636 0.527951 0.851132 0.356427
C30   C     C_1   0.493341 0.472050 0.148865 0.356197
C31   C     C_R   0.900217 0.123245 0.680283 0.633515
C32   C     C_R   0.100029 0.876236 0.319724 0.633897
C33   C     C_R   0.799876 0.117462 0.607039 0.218377
C34   C     C_R   0.200408 0.882114 0.392908 0.218055
C35   C     C_R   0.680540 0.111447 0.642340 -0.194010
C36   C     C_R   0.319644 0.888552 0.357543 -0.194072
C37   C     C_R   0.663265 0.119454 0.750997 0.659772
C38   C     C_R   0.336787 0.880929 0.248862 0.659960
C39   C     C_R   0.763526 0.128308 0.823158 -0.217536
C40   C     C_R   0.236498 0.871956 0.176754 -0.217683
C41   C     C_R   0.881970 0.127925 0.788271 0.258918
C42   C     C_R   0.118145 0.871848 0.211720 0.259033
C43   C     C_R   0.579807 0.930225 0.566669 0.644599
C44   C     C_R   0.420310 0.069773 0.433289 0.644757
Cu1   Cu    Cu3+1 0.492140 0.492110 0.395880 1.106620
Cu2   Cu    Cu3+1 0.507860 0.507890 0.604120 1.106860
H1    H     H_    0.749855 0.128010 0.906602 0.285942
H2    H     H_    0.250064 0.872514 0.093302 0.285975
H3    H     H_    0.213778 0.239423 0.571690 0.238869
H4    H     H_    0.786123 0.760470 0.428329 0.238830
N1    N     N_1   0.480320 0.480250 0.239400 -0.140092
N2    N     N_1   0.519680 0.519750 0.760600 -0.140012
O1    O     O_R   0.313000 0.493330 0.412070 -0.501540
O2    O     O_R   0.687000 0.506670 0.587930 -0.501505
O3    O     O_R   0.326280 0.506660 0.587930 -0.607916
O4    O     O_R   0.673720 0.493340 0.412070 -0.608127
O5    O     O_R   0.493370 0.312980 0.412070 -0.500813
O6    O     O_R   0.506630 0.687020 0.587930 -0.500758
O7    O     O_R   0.506650 0.326310 0.587930 -0.606750
O8    O     O_R   0.493350 0.673690 0.412070 -0.606988
Cl1   Cl    Cl    0.006560 0.124165 0.881188 -0.340618
Cl2   Cl    Cl    0.993462 0.875374 0.118898 -0.340638
F1    F     F_    0.070002 0.538709 0.799338 -0.510985
F2    F     F_    0.930018 0.461273 0.200625 -0.511046
Cl3   Cl    Cl    0.183437 0.423110 0.990411 -0.290529
Cl4   Cl    Cl    0.816458 0.576861 0.009576 -0.290670
F3    F     F_    0.887609 0.403496 0.665212 -0.629726
F4    F     F_    0.112385 0.596335 0.334732 -0.629495
Cl5   Cl    Cl    0.396230 0.677221 0.000495 -0.448494
Cl6   Cl    Cl    0.603661 0.322746 0.999490 -0.448477
F5    F     F_    0.015458 0.115894 0.646349 -0.562836
F6    F     F_    0.984858 0.883219 0.353747 -0.563183
Cl7   Cl    Cl    0.826763 0.105644 0.471793 -0.367741
Cl8   Cl    Cl    0.173641 0.893516 0.528189 -0.367804
F7    F     F_    0.550880 0.107196 0.787617 -0.527214
F8    F     F_    0.449032 0.893684 0.212187 -0.526669
F9    F     F_    0.660969 0.861941 0.628915 -0.613296
F10   F     F_    0.339118 0.138057 0.371067 -0.613261
Cl9   Cl    Cl    0.333282 0.166599 0.940125 -0.232913
Cl10  Cl    Cl    0.666454 0.833278 0.059928 -0.232980
F11   F     F_    0.325412 0.098744 0.711292 -0.523426
F12   F     F_    0.674362 0.901114 0.288769 -0.523701

loop_
_geom_bond_atom_site_label_1
_geom_bond_atom_site_label_2
_ccdc_geom_bond_type
C30   N1    T    
Cu1   O8    S    
Cu2   O7    S    
C28   Cl5   S    
C41   Cl1   S    
C39   C41   A    
C38   F8    S    
Cu1   Cu2   S    
C23   O7    A    
Cu1   O5    S    
C8    F12   S    
C28   C29   S    
C19   C21   A    
C20   C25   A    
Cu1   N1    S    
C15   Cl3   S    
C5    C36   S    
Cu2   N2    S    
C17   Cl9   S    
C6    C35   S    
C40   H2    S    
C19   C26   A    
C1    O1    A    
Cu1   O4    S    
C7    C17   A    
Cu2   O3    S    
C31   C33   A    
C19   F3    S    
C42   Cl2   S    
C40   C42   A    
C37   F7    S    
Cu1   O1    S    
C1    C22   S    
Cu2   O6    S    
C27   C30   S    
C3    C24   S    
C9    H3    S    
C4    C6    A    
C2    O2    A    
C4    C23   S    
C4    C44   A    
C11   C26   S    
C8    C18   A    
C32   C34   A    
C13   F1    S    
C24   O8    A    
C3    C43   A    
Cu2   O2    S    
C2    C21   S    
C16   C18   A    
C9    C11   A    
C27   Cl6   S    
C10   C12   A    
C34   Cl8   S    
C14   F2    S    
C24   O6    A    
C7    F11   S    
C5    C44   A    
C12   C14   A    
C6    C43   A    
C13   C15   A    
C14   C16   A    
C16   Cl4   S    
C10   H4    S    
C39   H1    S    
C33   Cl7   S    
C23   O5    A    
C21   C25   A    
C31   C41   A    
C35   C37   A    
C20   F4    S    
C8    C10   A    
C20   C22   A    
C3    C5    A    
C15   C17   A    
C43   F9    S    
C12   C25   S    
C44   F10   S    
C1    O3    A    
C37   C39   A    
C2    O4    A    
C38   C40   A    
C11   C13   A    
C36   C38   A    
C33   C35   A    
C34   C36   A    
C7    C9    A    
C18   Cl10  S    
C22   C26   A    
C27   C28   D    
C32   C42   A    
C31   F5    S    
C32   F6    S    
C29   N2    T    
