data_mof_unit_6617.cif
_audit_creation_date              2012-12-10T17:14:25-0500
_audit_creation_method            fapswitch 2.2
_symmetry_space_group_name_H-M    P1
_symmetry_Int_Tables_number       1
_space_group_crystal_system       triclinic
_cell_length_a                    15.287565
_cell_length_b                    14.811439
_cell_length_c                    10.250385
_cell_angle_alpha                 90.014601
_cell_angle_beta                  85.323958
_cell_angle_gamma                 90.026889
_cell_volume                      2313.27762465

loop_
_atom_site_label
_atom_site_type_symbol
_atom_type_description
_atom_site_fract_x
_atom_site_fract_y
_atom_site_fract_z
_atom_type_partial_charge
C1    C     C_R   0.386582 0.119878 0.551756 0.883449
C2    C     C_2   0.509383 0.985074 0.072628 -0.113004
C3    C     C_2   0.990311 0.516774 0.926777 -0.114516
C4    C     C_2   0.008634 0.519113 0.072738 -0.116655
C5    C     C_2   0.330798 0.797160 0.570526 -0.061592
C6    C     C_2   0.676566 0.194045 0.426993 -0.065011
C7    C     C_2   0.680526 0.812170 0.418662 -0.044892
C8    C     C_2   0.324973 0.193015 0.571740 -0.040678
C9    C     C_2   0.824017 0.306969 0.574760 -0.049844
C10   C     C_2   0.179436 0.689418 0.420819 -0.043405
C11   C     C_2   0.174324 0.304019 0.426026 -0.050083
C12   C     C_R   0.614868 0.881417 0.446801 0.876439
C13   C     C_2   0.830040 0.701903 0.571190 -0.065477
C14   C     C_2   0.324981 0.744372 0.464087 -0.219859
C15   C     C_2   0.677904 0.254232 0.525900 -0.205976
C16   C     C_2   0.759500 0.826356 0.463349 -0.228456
C17   C     C_2   0.244607 0.177019 0.533036 -0.234684
C18   C     C_2   0.744379 0.323317 0.533173 -0.239095
C19   C     C_2   0.259592 0.673461 0.460575 -0.227058
C20   C     C_2   0.179113 0.246860 0.527631 -0.218138
C21   C     C_2   0.824446 0.755148 0.465330 -0.216610
C22   C     C_3   0.358901 0.999001 0.134202 -0.245994
C23   C     C_R   0.613453 0.120821 0.448185 0.856537
C24   C     C_3   0.291165 0.031967 0.241095 -0.291916
C25   C     C_3   0.198671 0.027866 0.195276 -1.014290
C26   C     C_3   0.640337 0.001668 0.868715 -0.227953
C27   C     C_3   0.710750 0.022644 0.759135 -0.294496
C28   C     C_3   0.801699 0.001807 0.802710 -1.016528
C29   C     C_3   0.859874 0.492934 0.131295 -0.249169
C30   C     C_3   0.792535 0.459292 0.237709 -0.290619
C31   C     C_3   0.701239 0.456394 0.187617 -1.014220
C32   C     C_3   0.140395 0.502433 0.868018 -0.230478
C33   C     C_3   0.209831 0.471620 0.762722 -0.295880
C34   C     C_R   0.387651 0.877272 0.551568 0.867098
C35   C     C_3   0.301165 0.486041 0.809776 -1.016547
C36   C     C_3   0.744418 0.190390 0.310268 -0.401470
C37   C     C_3   0.703144 0.204423 0.180224 -0.317269
C38   C     C_3   0.773406 0.214421 0.066502 -0.926866
C39   C     C_3   0.277358 0.773901 0.698384 -0.390937
C40   C     C_3   0.283708 0.840469 0.811556 -0.351312
C41   C     C_3   0.218066 0.815447 0.926205 -0.930099
C42   C     C_3   0.359829 0.285228 0.606056 -0.420217
C43   C     C_3   0.436895 0.313049 0.508204 -0.334009
C44   C     C_3   0.478367 0.401794 0.545574 -0.921434
C45   C     C_R   0.887391 0.622387 0.551766 0.870514
C46   C     C_3   0.653591 0.726531 0.350766 -0.409364
C47   C     C_3   0.571406 0.685244 0.424424 -0.332273
C48   C     C_3   0.537935 0.603719 0.353286 -0.906765
C49   C     C_3   0.150160 0.778827 0.365998 -0.417231
C50   C     C_3   0.071782 0.817039 0.452359 -0.328661
C51   C     C_3   0.041312 0.907699 0.403006 -0.906147
C52   C     C_3   0.853335 0.215082 0.622614 -0.415110
C53   C     C_3   0.954136 0.204771 0.611512 -0.343416
C54   C     C_3   0.984026 0.109464 0.640558 -0.919410
C55   C     C_3   0.774796 0.723466 0.698191 -0.393184
C56   C     C_R   0.112885 0.378624 0.448148 0.858134
C57   C     C_3   0.783642 0.658743 0.812842 -0.350626
C58   C     C_3   0.717826 0.683491 0.927527 -0.927020
C59   C     C_3   0.235472 0.301225 0.301651 -0.395816
C60   C     C_3   0.186684 0.279269 0.180415 -0.322435
C61   C     C_3   0.250814 0.264414 0.060239 -0.922855
C62   C     C_R   0.114292 0.619336 0.447254 0.879080
C63   C     C_R   0.887015 0.379387 0.551775 0.888109
C64   C     C_2   0.490468 0.984744 0.927247 -0.112090
H1    H     H_    0.627915 0.252673 0.607644 0.170359
H2    H     H_    0.424548 0.974119 0.899555 0.139243
H3    H     H_    0.073998 0.533893 0.100249 0.144797
H4    H     H_    0.924149 0.525699 0.898945 0.141275
H5    H     H_    0.195608 0.062439 0.099629 0.280820
H6    H     H_    0.177804 0.956648 0.185706 0.273178
H7    H     H_    0.152291 0.062045 0.268104 0.266412
H8    H     H_    0.291472 0.990381 0.330287 0.254971
H9    H     H_    0.305109 0.103322 0.262606 0.242401
H10   H     H_    0.351143 0.046066 0.051404 0.160318
H11   H     H_    0.341488 0.929178 0.106008 0.171263
H12   H     H_    0.362885 0.758358 0.371959 0.178772
H13   H     H_    0.822833 0.055785 0.868263 0.276351
H14   H     H_    0.803021 0.935958 0.854294 0.266779
H15   H     H_    0.848500 0.996480 0.715116 0.268331
H16   H     H_    0.703150 0.980884 0.673163 0.260399
H17   H     H_    0.707755 0.095020 0.732132 0.225160
H18   H     H_    0.647601 0.054987 0.943723 0.161062
H19   H     H_    0.655347 0.934326 0.910003 0.165964
H20   H     H_    0.678217 0.525736 0.168437 0.274918
H21   H     H_    0.701787 0.416563 0.095728 0.280007
H22   H     H_    0.654751 0.423863 0.262101 0.261833
H23   H     H_    0.225704 0.109414 0.504769 0.143148
H24   H     H_    0.809269 0.389254 0.262742 0.246100
H25   H     H_    0.789913 0.503869 0.324581 0.251288
H26   H     H_    0.838542 0.560354 0.098423 0.170078
H27   H     H_    0.856869 0.443013 0.050521 0.163925
H28   H     H_    0.312044 0.558472 0.831224 0.267350
H29   H     H_    0.309296 0.446028 0.899315 0.272211
H30   H     H_    0.351796 0.464707 0.733303 0.274525
H31   H     H_    0.200470 0.398616 0.744152 0.224231
H32   H     H_    0.206684 0.510474 0.671798 0.257447
H33   H     H_    0.156218 0.572602 0.897633 0.169342
H34   H     H_    0.773824 0.889162 0.512011 0.141411
H35   H     H_    0.147973 0.455279 0.950989 0.163843
H36   H     H_    0.814004 0.275346 0.079766 0.267902
H37   H     H_    0.816611 0.154098 0.060225 0.263977
H38   H     H_    0.741710 0.221165 0.973289 0.249534
H39   H     H_    0.661569 0.145558 0.159424 0.232423
H40   H     H_    0.661027 0.265495 0.185958 0.233596
H41   H     H_    0.796898 0.241013 0.319230 0.230225
H42   H     H_    0.776925 0.123228 0.309060 0.176012
H43   H     H_    0.149940 0.817661 0.896003 0.267286
H44   H     H_    0.231957 0.746684 0.962581 0.261489
H45   H     H_    0.275138 0.608614 0.502614 0.141830
H46   H     H_    0.223122 0.864155 0.007015 0.252796
H47   H     H_    0.350708 0.837860 0.845786 0.236561
H48   H     H_    0.269384 0.910154 0.779096 0.222271
H49   H     H_    0.207228 0.769096 0.678015 0.226067
H50   H     H_    0.298140 0.706191 0.730729 0.209723
H51   H     H_    0.431999 0.458238 0.534143 0.261067
H52   H     H_    0.497138 0.399194 0.647915 0.266730
H53   H     H_    0.538592 0.413770 0.479988 0.255421
H54   H     H_    0.488708 0.260693 0.504435 0.216419
H55   H     H_    0.413994 0.319629 0.408600 0.220049
H56   H     H_    0.727293 0.390432 0.500568 0.149003
H57   H     H_    0.308441 0.337592 0.604911 0.227678
H58   H     H_    0.382069 0.282125 0.706520 0.209970
H59   H     H_    0.532744 0.618888 0.248055 0.267059
H60   H     H_    0.583001 0.546344 0.363567 0.268944
H61   H     H_    0.471857 0.584858 0.397733 0.254804
H62   H     H_    0.586411 0.664883 0.524608 0.219462
H63   H     H_    0.517660 0.735729 0.433649 0.219863
H64   H     H_    0.638712 0.744498 0.249621 0.205099
H65   H     H_    0.706781 0.675300 0.342565 0.222854
H66   H     H_    0.089655 0.960748 0.423004 0.267873
H67   H     H_    0.862788 0.741963 0.373287 0.176986
H68   H     H_    0.032561 0.904621 0.296594 0.268646
H69   H     H_    0.977217 0.925285 0.455440 0.248383
H70   H     H_    0.015763 0.769307 0.453328 0.216511
H71   H     H_    0.089717 0.825316 0.554558 0.220252
H72   H     H_    0.203850 0.829503 0.358122 0.227574
H73   H     H_    0.130148 0.766957 0.265567 0.201437
H74   H     H_    0.966223 0.092574 0.744728 0.274064
H75   H     H_    0.954465 0.060756 0.574880 0.262516
H76   H     H_    0.056419 0.104645 0.622706 0.253775
H77   H     H_    0.980760 0.222370 0.510498 0.215415
H78   H     H_    0.135313 0.253742 0.615788 0.165274
H79   H     H_    0.982703 0.251009 0.681957 0.238661
H80   H     H_    0.827452 0.206229 0.726200 0.212328
H81   H     H_    0.825905 0.160798 0.563304 0.224392
H82   H     H_    0.729746 0.753386 0.961319 0.260097
H83   H     H_    0.649611 0.678323 0.898278 0.267353
H84   H     H_    0.724692 0.636683 0.010118 0.249298
H85   H     H_    0.771067 0.588187 0.782366 0.222949
H86   H     H_    0.850796 0.663940 0.846085 0.236706
H87   H     H_    0.792160 0.792508 0.729905 0.216504
H88   H     H_    0.704681 0.724317 0.676488 0.225320
H89   H     H_    0.575656 0.976255 0.100305 0.141504
H90   H     H_    0.293662 0.324362 0.043166 0.260979
H91   H     H_    0.292700 0.204642 0.074011 0.267367
H92   H     H_    0.213906 0.253252 0.972688 0.254672
H93   H     H_    0.145933 0.217821 0.198323 0.232490
H94   H     H_    0.142702 0.335902 0.158586 0.237548
H95   H     H_    0.267878 0.368172 0.288206 0.177175
H96   H     H_    0.288642 0.251406 0.309872 0.225299
N1    N     N_2   0.549450 0.000000 0.831550 -0.070012
N2    N     N_2   0.450550 0.000000 0.168450 -0.070608
N3    N     N_2   0.049450 0.500000 0.831550 -0.071344
N4    N     N_2   0.950550 0.500000 0.168450 -0.069957
O1    O     O_R   0.398960 0.091100 0.433300 -0.631700
O2    O     O_R   0.569290 0.908910 0.353790 -0.609077
O3    O     O_R   0.569290 0.091090 0.353790 -0.607137
O4    O     O_R   0.430710 0.908910 0.646210 -0.610253
O5    O     O_R   0.930710 0.591090 0.646210 -0.610477
O6    O     O_R   0.069290 0.408910 0.353790 -0.605629
O7    O     O_R   0.069290 0.591090 0.353790 -0.610507
O8    O     O_R   0.930710 0.408910 0.646210 -0.609270
O9    O     O_R   0.601040 0.908900 0.566700 -0.624520
O10   O     O_R   0.601040 0.091100 0.566700 -0.631777
O11   O     O_R   0.398960 0.908900 0.433300 -0.630168
O12   O     O_R   0.898960 0.591100 0.433300 -0.627014
O13   O     O_R   0.101040 0.408900 0.566700 -0.639459
O14   O     O_R   0.101040 0.591100 0.566700 -0.619968
O15   O     O_R   0.898960 0.408900 0.433300 -0.633032
O16   O     O_R   0.430710 0.091090 0.646210 -0.603383
Zn1   Zn    Zn3+2 0.478810 0.000000 0.357840 0.911246
Zn2   Zn    Zn3+2 0.521190 0.000000 0.642160 0.916269
Zn3   Zn    Zn3+2 0.978810 0.500000 0.357840 0.912496
Zn4   Zn    Zn3+2 0.021190 0.500000 0.642160 0.910087

loop_
_geom_bond_atom_site_label_1
_geom_bond_atom_site_label_2
_ccdc_geom_bond_type
O12   Zn3   S    
C61   H92   S    
C16   C21   S    
C31   H21   S    
C41   H44   S    
C49   H73   S    
O6    Zn3   S    
C15   C18   S    
C1    C8    S    
C3    H4    S    
C61   H90   S    
O10   Zn2   S    
C46   H65   S    
C63   O8    A    
C55   H88   S    
C40   H48   S    
C23   O10   A    
C54   H74   S    
C53   C54   S    
C62   O7    A    
O2    Zn1   S    
C42   H58   S    
C26   C27   S    
C26   H19   S    
C46   H64   S    
C36   C37   S    
C37   C38   S    
C60   H94   S    
C38   H37   S    
C50   H71   S    
C12   O2    A    
C30   C31   S    
C22   N2    S    
C1    O16   A    
C58   H84   S    
C24   H9    S    
C15   H1    S    
C32   N3    S    
C61   H91   S    
C17   C20   S    
C63   O15   A    
C32   H33   S    
N1    Zn2   S    
C28   H15   S    
C21   H67   S    
C34   O11   A    
C48   H61   S    
C59   H95   S    
C54   H76   S    
C54   H75   S    
C44   H51   S    
C2    C64   S    
C39   H49   S    
C57   H85   S    
C4    N4    D    
C25   H7    S    
C28   H14   S    
C3    N3    D    
O11   Zn1   S    
C35   H28   S    
C35   H29   S    
C6    C15   D    
C59   C60   S    
C26   H18   S    
C31   H22   S    
C17   H23   S    
C5    C34   S    
C29   N4    S    
C2    N2    D    
C10   C62   S    
C9    C52   S    
C22   H11   S    
C48   H59   S    
C30   H25   S    
C34   O4    A    
C33   H31   S    
C29   H26   S    
C51   H66   S    
O16   Zn2   S    
C40   H47   S    
O15   Zn3   S    
C56   O13   A    
C19   H45   S    
C7    C12   S    
C11   C20   D    
C36   H42   S    
C7    C46   S    
C20   H78   S    
C27   H17   S    
C60   H93   S    
N2    Zn1   S    
C38   H36   S    
C27   H16   S    
C50   H70   S    
C45   O12   A    
C39   C40   S    
C37   H39   S    
C52   H81   S    
C58   H83   S    
C31   H20   S    
C60   C61   S    
C53   H79   S    
C14   H12   S    
C43   C44   S    
O5    Zn4   S    
C62   O14   A    
C29   C30   S    
C37   H40   S    
C59   H96   S    
O8    Zn4   S    
C47   C48   S    
C1    O1    A    
C10   C19   D    
C39   H50   S    
C57   H86   S    
C50   C51   S    
C13   C21   D    
C52   H80   S    
C24   C25   S    
C47   H63   S    
C28   H13   S    
C5    C14   D    
C23   O3    A    
C7    C16   D    
C49   H72   S    
O9    Zn2   S    
C2    H89   S    
O4    Zn2   S    
C41   H46   S    
C55   C57   S    
C22   C24   S    
C25   H5    S    
C42   C43   S    
C22   H10   S    
C30   H24   S    
C3    C4    S    
C33   H32   S    
C18   H56   S    
C29   H27   S    
C52   C53   S    
C24   H8    S    
C47   H62   S    
C35   H30   S    
O7    Zn3   S    
C46   C47   S    
C40   C41   S    
C41   H43   S    
C56   O6    A    
N3    Zn4   S    
C9    C63   S    
C14   C19   S    
C11   C59   S    
C8    C42   S    
C64   N1    D    
C45   O5    A    
C48   H60   S    
C4    H3    S    
C51   H68   S    
C58   H82   S    
C55   H87   S    
O13   Zn4   S    
C26   N1    S    
C8    C17   D    
C32   H35   S    
O1    Zn1   S    
C32   C33   S    
C5    C39   S    
C38   H38   S    
N4    Zn3   S    
C13   C45   S    
C51   H69   S    
C16   H34   S    
C57   C58   S    
O3    Zn1   S    
C44   H53   S    
C6    C23   S    
C33   C35   S    
C6    C36   S    
C53   H77   S    
O14   Zn4   S    
C43   H54   S    
C9    C18   D    
C44   H52   S    
C49   C50   S    
C43   H55   S    
C27   C28   S    
C25   H6    S    
C10   C49   S    
C36   H41   S    
C11   C56   S    
C42   H57   S    
C64   H2    S    
C12   O9    A    
C13   C55   S    
