data_mof_unit_43588.cif
_audit_creation_date              2013-03-05T16:02:24-0500
_audit_creation_method            fapswitch 2.2
_symmetry_space_group_name_H-M    P1
_symmetry_Int_Tables_number       1
_space_group_crystal_system       triclinic
_cell_length_a                    15.083562
_cell_length_b                    14.149243
_cell_length_c                    10.824098
_cell_angle_alpha                 89.313552
_cell_angle_beta                  87.162965
_cell_angle_gamma                 91.644799
_cell_volume                      2306.09986513

loop_
_atom_site_label
_atom_site_type_symbol
_atom_site_description
_atom_site_fract_x
_atom_site_fract_y
_atom_site_fract_z
_atom_type_partial_charge
O1    O     O_R   0.367860 0.580280 0.500020 -0.523211
O2    O     O_R   0.367860 0.419720 0.500020 -0.597854
C1    C     C_R   0.326643 0.498898 0.501879 0.945165
O3    O     O_R   0.500000 0.580270 0.314790 -0.576030
O4    O     O_R   0.500000 0.419730 0.314790 -0.630658
C2    C     C_R   0.503741 0.500201 0.257823 0.954138
Zn1   Zn    Zn3+2 0.500020 0.607200 0.499990 1.020884
Zn2   Zn    Zn3+2 0.500020 0.392800 0.499990 0.964079
O5    O     O_R   0.632160 0.580270 0.499960 -0.660420
O6    O     O_R   0.632160 0.419730 0.499960 -0.567114
O7    O     O_R   0.500030 0.580270 0.685200 -0.559639
O8    O     O_R   0.500030 0.419730 0.685200 -0.688809
C3    C     C_R   0.673742 0.500762 0.500366 0.906498
C4    C     C_R   0.503092 0.499546 0.742036 0.960942
C5    C     C_3   0.407223 0.468266 0.079911 0.488823
C6    C     C_3   0.576849 0.423177 0.070843 0.504337
C7    C     C_3   0.402545 0.487448 0.935301 0.222325
C8    C     C_3   0.566978 0.411642 0.925010 0.255284
C9    C     C_3   0.534352 0.601420 0.069053 0.630886
C10   C     C_3   0.505589 0.498901 0.120875 -0.164715
C11   C     C_3   0.504208 0.497848 0.878987 -0.164802
C12   C     C_3   0.545800 0.597738 0.924395 0.624876
C13   C     C_R   0.822148 0.581104 0.469161 0.059641
C14   C     C_R   0.770295 0.501713 0.510394 -0.130616
C15   C     C_R   0.810596 0.422153 0.560712 0.334779
C16   C     C_R   0.902504 0.424320 0.577940 -0.028591
C17   C     C_R   0.953294 0.505357 0.537497 -0.063483
C18   C     C_R   0.911668 0.587765 0.497872 0.066867
C19   C     C_R   0.945528 0.346482 0.629961 0.176150
C20   C     C_R   0.037681 0.339385 0.609503 0.178676
C21   C     C_R   0.088905 0.420766 0.569399 -0.027452
C22   C     C_R   0.046045 0.503556 0.532825 -0.128168
C23   C     C_R   0.095920 0.583253 0.484767 -0.082861
C24   C     C_R   0.054746 0.670621 0.470164 0.425176
C25   C     C_R   0.961732 0.673881 0.485116 0.095838
C26   C     C_R   0.182189 0.423826 0.569343 0.328138
C27   C     C_R   0.230250 0.497475 0.506756 -0.205488
C28   C     C_R   0.186993 0.574272 0.457131 0.379077
C29   C     C_R   0.561389 0.802315 0.428012 0.423966
C30   C     C_R   0.565891 0.203901 0.435544 0.497174
N1    N     N_R   0.500070 0.750030 0.500050 -0.172526
N2    N     N_R   0.500070 0.249970 0.500050 -0.209404
C31   C     C_R   0.438629 0.794289 0.573361 0.501431
C32   C     C_R   0.433877 0.198919 0.565176 0.416341
C33   C     C_R   0.430982 0.895169 0.566071 -0.125614
C34   C     C_R   0.431249 0.097759 0.567875 -0.030105
C35   C     C_R   0.499370 0.949329 0.501817 -0.079218
C36   C     C_R   0.499035 0.050187 0.500835 -0.111181
C37   C     C_R   0.567866 0.902093 0.437052 -0.035710
C38   C     C_R   0.566375 0.103291 0.432006 -0.056756
C39   C     C_R   0.357300 0.942884 0.619106 0.146708
C40   C     C_R   0.362316 0.042552 0.633518 0.216074
C41   C     C_R   0.632719 0.054118 0.362126 0.198773
C42   C     C_R   0.639387 0.955600 0.378346 0.212763
C43   C     C_3   0.329760 0.515966 0.156207 -0.816734
H1    H     H_    0.329889 0.495570 0.255025 0.212942
H2    H     H_    0.330565 0.593823 0.152489 0.287893
H3    H     H_    0.264763 0.490038 0.124037 0.227541
C44   C     C_3   0.673640 0.450667 0.107487 -0.847381
H4    H     H_    0.719286 0.391436 0.090854 0.213230
H5    H     H_    0.704418 0.511437 0.055139 0.289370
H6    H     H_    0.674864 0.465948 0.207702 0.232771
C45   C     C_3   0.076983 0.241851 0.616024 -0.871186
H7    H     H_    0.028716 0.186965 0.586346 0.234109
H8    H     H_    0.135721 0.235959 0.551019 0.284688
H9    H     H_    0.094581 0.224698 0.711919 0.235728
O9    O     O_3   0.227547 0.360613 0.637937 -0.739647
H10   H     H_    0.193725 0.350743 0.718139 0.336528
O10   O     O_3   0.235140 0.638699 0.381717 -0.700467
H11   H     H_    0.196708 0.658725 0.315039 0.350831
O11   O     O_3   0.107123 0.752081 0.452462 -0.754760
H12   H     H_    0.072429 0.801740 0.413715 0.338573
C46   C     C_3   0.918475 0.768139 0.505990 -0.934133
H13   H     H_    0.958095 0.812010 0.568812 0.257572
H14   H     H_    0.913558 0.806782 0.416851 0.237085
H15   H     H_    0.851748 0.759406 0.553187 0.257351
O12   O     O_3   0.613158 0.760093 0.338189 -0.785051
H16   H     H_    0.605248 0.691751 0.348057 0.408737
O13   O     O_3   0.635724 0.255121 0.380157 -0.761643
H17   H     H_    0.611599 0.312476 0.344710 0.398620
O14   O     O_3   0.387750 0.738921 0.656311 -0.724217
H18   H     H_    0.379561 0.775315 0.733435 0.334875
O15   O     O_3   0.367445 0.245896 0.626023 -0.734697
H19   H     H_    0.392872 0.306337 0.652063 0.391129
C47   C     C_3   0.268133 0.891234 0.642114 -0.818537
H20   H     H_    0.213357 0.936707 0.614799 0.242735
H21   H     H_    0.262275 0.827482 0.584040 0.312139
H22   H     H_    0.257329 0.871243 0.741300 0.225231
C48   C     C_3   0.294828 0.087213 0.722225 -0.792490
H23   H     H_    0.255843 0.034863 0.781075 0.214551
H24   H     H_    0.329413 0.132519 0.788900 0.255557
H25   H     H_    0.247189 0.128423 0.670062 0.280783
C49   C     C_3   0.692355 0.102970 0.262056 -0.816858
H26   H     H_    0.721845 0.052433 0.195241 0.218514
H27   H     H_    0.652784 0.149730 0.204749 0.248764
H28   H     H_    0.747291 0.143301 0.303812 0.266411
C50   C     C_3   0.727971 0.910895 0.348026 -0.839044
H29   H     H_    0.784043 0.963491 0.347316 0.220775
H30   H     H_    0.742392 0.859763 0.422004 0.240961
H31   H     H_    0.728058 0.876235 0.256569 0.275881
O16   O     O_3   0.392744 0.370111 0.101412 -0.741523
H32   H     H_    0.384098 0.356291 0.191282 0.379505
O17   O     O_3   0.556800 0.335379 0.131734 -0.733234
H33   H     H_    0.605022 0.290714 0.112938 0.336377
C51   C     C_3   0.345719 0.408444 0.873274 -0.720425
H34   H     H_    0.278298 0.402065 0.919609 0.232058
H35   H     H_    0.336931 0.427413 0.775279 0.236331
H36   H     H_    0.370291 0.336758 0.874243 0.250420
C52   C     C_3   0.530593 0.307487 0.899572 -0.740439
H37   H     H_    0.512463 0.292579 0.804541 0.240242
H38   H     H_    0.582139 0.254651 0.915279 0.203315
H39   H     H_    0.475929 0.281623 0.962963 0.291199
C53   C     C_3   0.346460 0.576674 0.905329 -0.792582
H40   H     H_    0.361713 0.640498 0.957890 0.301828
H41   H     H_    0.352528 0.595076 0.805466 0.286083
H42   H     H_    0.274243 0.563366 0.926488 0.211297
C54   C     C_3   0.659917 0.410369 0.851158 -0.784573
H43   H     H_    0.705822 0.471156 0.859711 0.271336
H44   H     H_    0.699169 0.349921 0.881881 0.211174
H45   H     H_    0.651865 0.400754 0.751131 0.287717
O18   O     O_3   0.468220 0.665494 0.106114 -0.763941
H46   H     H_    0.489813 0.731206 0.086806 0.365154
O19   O     O_3   0.614295 0.631583 0.121438 -0.800297
H47   H     H_    0.627279 0.698893 0.098787 0.349407
O20   O     O_3   0.502114 0.676379 0.875007 -0.794426
H48   H     H_    0.541705 0.713070 0.814798 0.359453
O21   O     O_3   0.636492 0.605451 0.885730 -0.832299
H49   H     H_    0.659812 0.670328 0.901085 0.333150
C55   C     C_3   0.788173 0.646217 0.371542 -0.814959
H50   H     H_    0.842834 0.677798 0.310680 0.242071
H51   H     H_    0.744643 0.606951 0.308897 0.251393
H52   H     H_    0.751146 0.702670 0.417941 0.275878
O22   O     O_3   0.761046 0.339338 0.578228 -0.738441
H53   H     H_    0.791724 0.290478 0.528543 0.357500
C56   C     C_3   0.896946 0.275113 0.716724 -0.869422
H54   H     H_    0.838656 0.306493 0.765363 0.267660
H55   H     H_    0.876364 0.211158 0.665832 0.241528
H56   H     H_    0.940451 0.253179 0.791117 0.234068

loop_
_geom_bond_atom_site_label_1
_geom_bond_atom_site_label_2
_geom_bond_distance
_ccdc_geom_bond_type
C56   H56   1.110557 S    
C43   H1    1.104630 S    
C45   H8    1.109464 S    
C49   H26   1.109513 S    
C8    C11   1.652512 S    
C46   H14   1.110030 S    
C46   H13   1.110796 S    
C9    C10   1.589747 S    
C8    C52   1.589688 S    
C32   O15   1.364932 S    
C39   C47   1.520226 S    
C50   H29   1.110083 S    
C26   O9    1.374338 S    
C7    C53   1.579063 S    
O19   H47   0.992199 S    
C29   N1    1.373415 A    
O12   H16   0.974851 S    
Zn1   O7    2.036141 S    
C51   H35   1.106276 S    
C9    O19   1.414784 S    
C16   C17   1.413364 A    
O16   H32   0.991423 S    
C29   O12   1.370212 S    
C4    C11   1.483211 S    
C26   C27   1.400534 A    
Zn2   N2    2.020952 S    
C53   H40   1.097936 S    
C54   H44   1.111034 S    
C47   H20   1.110927 S    
C20   C21   1.419521 A    
O7    C4    1.293910 A    
C33   C39   1.417644 A    
C37   C42   1.419317 A    
C34   C40   1.436336 A    
C13   C55   1.511720 S    
Zn1   O5    2.039936 S    
C24   C25   1.406445 A    
O5    C3    1.303703 A    
C25   C46   1.515930 S    
O15   H19   0.977521 S    
C18   C25   1.416630 A    
C13   C14   1.405618 A    
C42   C50   1.517642 S    
C48   H24   1.110441 S    
C19   C20   1.403311 A    
C15   O22   1.377660 S    
C6    C10   1.618309 S    
C53   H42   1.112190 S    
C30   N2    1.370226 A    
O20   H48   0.993182 S    
C28   O10   1.382111 S    
C44   H4    1.110530 S    
C49   H27   1.108252 S    
C11   C12   1.621432 S    
N1    C31   1.361296 A    
C40   C48   1.520589 S    
N2    C32   1.375601 A    
O3    Zn1   2.045010 S    
C20   C45   1.519760 S    
C50   H30   1.106498 S    
C32   C34   1.430648 A    
O14   H18   0.990480 S    
C33   C35   1.416278 A    
C5    C10   1.618246 S    
C51   H36   1.089965 S    
C34   C36   1.415222 A    
C44   H5    1.102416 S    
C38   C41   1.426623 A    
C47   H21   1.109569 S    
C41   C49   1.519897 S    
O9    H10   0.991230 S    
C56   H54   1.108847 S    
C9    C12   1.568425 S    
C14   C15   1.410948 A    
C35   C37   1.408809 A    
C54   H45   1.105033 S    
C12   O20   1.421555 S    
C15   C16   1.407421 A    
C41   C42   1.409954 A    
C7    C11   1.623888 S    
C39   C40   1.420947 A    
C3    C14   1.465439 S    
O1    C1    1.292274 A    
C6    C44   1.571154 S    
C5    C43   1.570285 S    
C27   C28   1.398713 A    
C7    C51   1.566841 S    
C6    O17   1.417098 S    
C35   C36   1.427138 A    
Zn2   O8    2.045108 S    
C23   C24   1.409959 A    
C30   O13   1.370183 S    
C6    C8    1.602667 S    
C13   C18   1.401293 A    
C5    O16   1.414389 S    
C48   H25   1.109710 S    
C31   C33   1.436869 A    
C8    C54   1.579685 S    
O18   H46   0.992694 S    
O3    C2    1.297631 A    
C19   C56   1.518340 S    
O8    C4    1.293238 A    
C49   H28   1.110254 S    
C43   H2    1.101575 S    
O22   H53   0.991928 S    
C31   O14   1.374518 S    
C46   H15   1.108922 S    
O13   H17   0.980572 S    
C52   H39   1.097819 S    
O21   H49   0.992414 S    
O17   H33   0.992311 S    
C50   H31   1.109974 S    
C55   H50   1.109705 S    
C47   H22   1.109927 S    
C56   H55   1.109708 S    
C9    O18   1.413818 S    
C44   H6    1.109550 S    
C29   C37   1.417245 A    
C17   C22   1.398402 A    
O1    Zn1   2.018725 S    
C21   C22   1.415831 A    
O2    Zn2   2.040204 S    
O6    C3    1.291154 A    
O4    Zn2   2.036043 S    
C5    C7    1.590779 S    
C2    C10   1.481562 S    
C51   H34   1.112209 S    
C23   C28   1.401055 A    
C22   C23   1.416553 A    
C55   H52   1.099841 S    
C52   H38   1.111619 S    
O2    C1    1.296644 A    
O11   H12   0.989562 S    
C54   H43   1.096269 S    
C12   O21   1.411394 S    
O4    C2    1.286809 A    
C30   C38   1.424746 A    
C36   C38   1.420985 A    
Zn1   N1    2.020923 S    
O10   H11   0.991550 S    
C45   H9    1.109819 S    
C45   H7    1.110408 S    
C1    C27   1.451850 S    
C16   C19   1.418978 A    
Zn2   O6    2.018448 S    
C43   H3    1.110495 S    
C17   C18   1.412248 A    
C21   C26   1.406456 A    
C55   H51   1.109831 S    
C48   H23   1.107617 S    
C52   H37   1.098672 S    
C24   O11   1.384480 S    
C53   H41   1.107550 S    
