data_mof_unit_12558.cif
_audit_creation_date              2012-10-26T20:57:17-0400
_audit_creation_method            fapswitch 2.2
_symmetry_space_group_name_H-M    P1
_symmetry_Int_Tables_number       1
_space_group_crystal_system       triclinic
_cell_length_a                    14.709679
_cell_length_b                    14.718281
_cell_length_c                    15.876174
_cell_angle_alpha                 76.904884
_cell_angle_beta                  102.733859
_cell_angle_gamma                 114.830177
_cell_volume                      3007.67240391

loop_
_atom_site_label
_atom_site_type_symbol
_atom_type_description
_atom_site_fract_x
_atom_site_fract_y
_atom_site_fract_z
_atom_type_partial_charge
C1    C     C_R   0.880318 0.312319 0.515101 0.547254
C2    C     C_R   0.360940 0.920039 0.504575 0.035332
C3    C     C_R   0.679360 0.001072 0.546287 0.052402
C4    C     C_R   0.321836 0.995227 0.496703 0.052011
C5    C     C_R   0.533644 0.049968 0.520859 0.036137
C6    C     C_R   0.467505 0.946375 0.521054 0.034962
C7    C     C_R   0.510104 0.872466 0.539738 -0.131740
C8    C     C_R   0.491442 0.122320 0.514392 -0.129256
C9    C     C_R   0.614001 0.899602 0.552940 -0.126918
C10   C     C_R   0.387591 0.095039 0.503059 -0.127354
C11   C     C_R   0.716128 0.669165 0.356168 -0.152435
C12   C     C_R   0.119663 0.687665 0.486159 0.546668
C13   C     C_R   0.283508 0.330285 0.643385 -0.153890
C14   C     C_R   0.797327 0.639139 0.378501 0.045329
C15   C     C_R   0.202473 0.360571 0.621248 0.045162
C16   C     C_R   0.999617 0.500018 0.659930 0.552193
C17   C     C_R   0.000387 0.499991 0.340067 0.552851
C18   C     C_R   0.714571 0.508873 0.487796 0.042962
C19   C     C_R   0.285457 0.491122 0.512249 0.042441
C20   C     C_R   0.628686 0.534991 0.467683 0.004844
C21   C     C_R   0.371169 0.464731 0.532154 0.004774
C22   C     C_R   0.631927 0.617873 0.400738 0.038459
C23   C     C_R   0.784095 0.027043 0.556425 -0.129134
C24   C     C_R   0.367763 0.381615 0.598884 0.038150
C25   C     C_R   0.540999 0.483094 0.511564 0.023355
C26   C     C_R   0.458821 0.516561 0.488231 0.022045
C27   C     C_R   0.467212 0.600759 0.422018 -0.132229
C28   C     C_R   0.532513 0.398761 0.577648 -0.133894
C29   C     C_R   0.551705 0.649690 0.379044 -0.115800
C30   C     C_R   0.447878 0.349630 0.620435 -0.120664
C31   C     C_3   0.980709 0.407777 0.043133 0.135772
C32   C     C_3   0.019295 0.592308 0.956826 0.135791
C33   C     C_3   0.908666 0.437395 0.967056 0.244110
C34   C     C_R   0.216951 0.969627 0.483094 -0.129015
C35   C     C_3   0.091341 0.562694 0.032906 0.244307
C36   C     C_1   0.998929 0.500013 0.749351 0.002237
C37   C     C_1   0.001085 0.500024 0.250636 0.002230
C38   C     C_3   0.072232 0.468229 0.992820 -0.110415
C39   C     C_3   0.927775 0.531857 0.007146 -0.110573
C40   C     C_3   0.999517 0.499303 0.916611 0.004359
C41   C     C_3   0.000492 0.500780 0.083356 0.004423
C42   C     C_1   0.998966 0.499777 0.824852 0.005669
C43   C     C_1   0.001048 0.500286 0.175127 0.005795
C44   C     C_R   0.812681 0.204753 0.526664 0.000724
C45   C     C_R   0.850477 0.128333 0.547307 -0.133822
C46   C     C_R   0.187327 0.794891 0.484278 0.000764
C47   C     C_3   0.958335 0.232494 0.048204 -0.274608
C48   C     C_3   0.041467 0.767554 0.951641 -0.275287
C49   C     C_R   0.150008 0.869795 0.477758 -0.133736
C50   C     C_R   0.708320 0.178877 0.517160 -0.126818
C51   C     C_R   0.291741 0.821037 0.494746 -0.124084
C52   C     C_R   0.639958 0.077418 0.528809 0.035295
Cl1   Cl    Cl    0.787565 0.354291 0.922649 -0.607852
Cl2   Cl    Cl    0.212437 0.645833 0.077280 -0.607774
Cu1   Cu    Cu3+1 0.081740 0.475690 0.522610 0.949368
Cu2   Cu    Cu3+1 0.918260 0.524310 0.477390 0.949155
H1    H     H_    0.280191 0.551488 0.461215 0.123191
H2    H     H_    0.130813 0.442234 0.986456 0.136604
H3    H     H_    0.643326 0.840525 0.567265 0.117344
H4    H     H_    0.358576 0.152837 0.498766 0.116672
H5    H     H_    0.317122 0.762530 0.494106 0.117893
H6    H     H_    0.681848 0.239481 0.498044 0.122251
H7    H     H_    0.069401 0.851113 0.469617 0.130005
H8    H     H_    0.931013 0.146726 0.555199 0.128283
H9    H     H_    0.814596 0.968889 0.570795 0.110428
H10   H     H_    0.186739 0.026707 0.477710 0.110125
H11   H     H_    0.465451 0.792235 0.547302 0.108437
H12   H     H_    0.719976 0.448718 0.539022 0.123338
H13   H     H_    0.536636 0.200656 0.520604 0.102720
H14   H     H_    0.554436 0.713700 0.328358 0.128376
H15   H     H_    0.444985 0.285381 0.670891 0.127436
H16   H     H_    0.896601 0.282931 0.125161 0.272019
H17   H     H_    0.944633 0.159943 0.093424 0.142955
H18   H     H_    0.032632 0.257028 0.025848 0.148944
H19   H     H_    0.897514 0.219685 0.991245 0.194545
H20   H     H_    0.103452 0.717192 0.874863 0.272108
H21   H     H_    0.055197 0.840089 0.906409 0.142239
H22   H     H_    0.102182 0.780393 0.008677 0.194650
H23   H     H_    0.136968 0.320440 0.654972 0.126533
H24   H     H_    0.967091 0.742974 0.973862 0.148751
H25   H     H_    0.862775 0.679204 0.344700 0.127648
H26   H     H_    0.719416 0.732559 0.304702 0.100624
H27   H     H_    0.280056 0.266670 0.694648 0.099782
H28   H     H_    0.409557 0.631273 0.401621 0.107280
H29   H     H_    0.590147 0.368215 0.597986 0.104544
H30   H     H_    0.869191 0.557847 0.013509 0.136415
N1    N     N_R   0.795440 0.560790 0.443380 -0.233872
N2    N     N_R   0.204560 0.439210 0.556620 -0.233501
N3    N     N_2   0.958749 0.307631 0.093394 -0.493678
N4    N     N_2   0.041247 0.692440 0.906539 -0.494290
O1    O     O_R   0.977900 0.338120 0.529810 -0.508140
O2    O     O_R   0.022100 0.661880 0.470190 -0.508364
O3    O     O_R   0.839850 0.379180 0.491620 -0.511205
O4    O     O_R   0.160150 0.620820 0.508380 -0.510927
O5    O     O_R   0.069010 0.479460 0.640020 -0.499050
O6    O     O_R   0.930990 0.520540 0.359980 -0.498675
O7    O     O_R   0.930960 0.520530 0.601820 -0.490678
O8    O     O_R   0.069040 0.479470 0.398180 -0.489791

loop_
_geom_bond_atom_site_label_1
_geom_bond_atom_site_label_2
_ccdc_geom_bond_type
Cu1   Cu2   S    
C49   H7    S    
C22   C29   A    
C27   C29   A    
C47   N3    S    
C36   C42   T    
C51   H5    S    
C21   C26   A    
C34   H10   S    
C30   H15   S    
C39   C41   S    
C19   H1    S    
C25   C28   A    
C46   C49   A    
C8    H13   S    
C33   C39   S    
C23   C45   A    
C27   H28   S    
C19   C21   A    
C14   N1    A    
C5    C6    A    
C11   C14   A    
C16   O7    A    
C20   C25   A    
C18   H12   S    
C7    C9    A    
C32   C39   S    
C48   H22   S    
Cu1   N2    S    
Cu1   O1    S    
C38   H2    S    
C3    C23   A    
C32   N4    S    
C16   O5    A    
C50   C52   A    
C31   C33   S    
C5    C52   A    
C17   O8    A    
C40   C42   S    
C1    O1    A    
C48   N4    S    
C35   Cl2   S    
C41   C43   S    
C12   O4    A    
C2    C6    A    
Cu2   O7    S    
Cu1   O4    S    
C11   H26   S    
C33   Cl1   S    
Cu2   O3    S    
C4    C34   A    
C33   C40   S    
C32   C35   S    
C35   C38   S    
C47   H17   S    
Cu1   O5    S    
C19   N2    A    
Cu2   N1    S    
C31   N3    S    
C25   C26   A    
C46   C51   A    
C13   C24   A    
C9    H3    S    
C48   H21   S    
C37   C43   T    
C10   H4    S    
C3    C9    A    
C1    C44   S    
C26   C27   A    
C17   O6    A    
C17   C37   S    
C12   C46   S    
C20   C22   A    
C13   C15   A    
C50   H6    S    
C4    C10   A    
C44   C45   A    
C29   H14   S    
C44   C50   A    
Cu2   O6    S    
C34   C49   A    
C31   C41   S    
C12   O2    A    
C8    C10   A    
C47   H18   S    
C5    C8    A    
C3    C52   A    
C6    C7    A    
C15   H23   S    
C13   H27   S    
C45   H8    S    
C18   N1    A    
C39   H30   S    
C31   C38   S    
C23   H9    S    
C28   C30   A    
C47   H19   S    
C16   C36   S    
C38   C40   S    
H16   N3    S    
C48   H24   S    
C2    C4    A    
Cu1   O8    S    
C18   C20   A    
C32   C40   S    
C35   C41   S    
C24   C30   A    
C2    C51   A    
C7    H11   S    
Cu2   O2    S    
C11   C22   A    
C1    O3    A    
C21   C24   A    
C28   H29   S    
C14   H25   S    
H20   N4    S    
C15   N2    A    
