data_mof_unit_54458.cif
_audit_creation_date              2012-12-10T16:49:22-0500
_audit_creation_method            fapswitch 2.2
_symmetry_space_group_name_H-M    P1
_symmetry_Int_Tables_number       1
_space_group_crystal_system       triclinic
_cell_length_a                    7.789161
_cell_length_b                    8.566649
_cell_length_c                    12.803341
_cell_angle_alpha                 89.835221
_cell_angle_beta                  87.033373
_cell_angle_gamma                 92.936594
_cell_volume                      852.050260406

loop_
_atom_site_label
_atom_site_type_symbol
_atom_type_description
_atom_site_fract_x
_atom_site_fract_y
_atom_site_fract_z
_atom_type_partial_charge
C1    C     C_R   0.455266 0.205598 0.497601 0.941759
C2    C     C_R   0.676557 0.388240 0.138885 0.384582
C3    C     C_R   0.553206 0.429019 0.868584 -0.272384
C4    C     C_R   0.446795 0.570980 0.131415 -0.272383
C5    C     C_R   0.557215 0.449243 0.974885 0.114429
C6    C     C_R   0.442785 0.550756 0.025115 0.114429
C7    C     C_2   0.431229 0.042481 0.497369 -0.354842
C8    C     C_2   0.568771 0.957519 0.502632 -0.354850
C9    C     C_3   0.067756 0.752069 0.369726 0.181598
C10   C     C_3   0.972479 0.838004 0.288197 -0.813300
C11   C     C_3   0.932252 0.247931 0.630273 0.181596
C12   C     C_R   0.544734 0.794402 0.502399 0.941763
C13   C     C_3   0.027521 0.162005 0.711808 -0.813299
C14   C     C_R   0.464586 0.505021 0.699751 0.899275
C15   C     C_R   0.535414 0.494979 0.300249 0.899280
C16   C     C_R   0.559137 0.487417 0.188689 -0.133923
C17   C     C_R   0.440863 0.512582 0.811311 -0.133920
C18   C     C_R   0.324810 0.629512 0.968667 -0.219680
C19   C     C_R   0.675190 0.370487 0.031333 -0.219679
C20   C     C_R   0.323443 0.611759 0.861115 0.384586
Cl1   Cl    Cl    0.817462 0.275461 0.207458 -0.609137
Cl2   Cl    Cl    0.182538 0.724539 0.792541 -0.609135
H1    H     H_    0.358379 0.648710 0.170300 0.165313
H2    H     H_    0.036697 0.955122 0.272694 0.241845
H3    H     H_    0.972761 0.770743 0.214129 0.260881
H4    H     H_    0.933819 0.176692 0.557621 0.129091
H5    H     H_    0.798241 0.259646 0.661363 0.162770
H6    H     H_    0.027194 0.229253 0.785882 0.260870
H7    H     H_    0.963332 0.044872 0.727296 0.241850
H8    H     H_    0.162747 0.147144 0.683220 0.260789
H9    H     H_    0.641621 0.351289 0.829700 0.165315
H10   H     H_    0.236655 0.707096 0.007714 0.175761
H11   H     H_    0.763345 0.292903 0.992286 0.175760
H12   H     H_    0.300546 0.992904 0.493529 0.166298
H13   H     H_    0.699454 0.007096 0.506472 0.166297
H14   H     H_    0.201760 0.740344 0.338628 0.162770
H15   H     H_    0.066207 0.823307 0.442378 0.129093
H16   H     H_    0.837268 0.852900 0.316802 0.260784
N1    N     N_2   0.054030 0.541640 0.471970 0.179265
N2    N     N_2   0.945970 0.458360 0.528030 0.179265
O1    O     O_R   0.609680 0.261530 0.506880 -0.651004
O2    O     O_3   0.015335 0.395327 0.611411 -0.496878
O3    O     O_R   0.390320 0.738470 0.493120 -0.651004
O4    O     O_R   0.323330 0.288220 0.488910 -0.606197
O5    O     O_R   0.676670 0.711780 0.511090 -0.606190
O6    O     O_R   0.619510 0.488830 0.661140 -0.638185
O7    O     O_R   0.380490 0.511170 0.338860 -0.638190
O8    O     O_R   0.333160 0.515520 0.643180 -0.527349
O9    O     O_R   0.666840 0.484480 0.356820 -0.527348
O10   O     O_3   0.984662 0.604678 0.388592 -0.496882
Zn1   Zn    Zn3+2 0.691200 0.482180 0.511990 1.059224
Zn2   Zn    Zn3+2 0.308800 0.517820 0.488010 1.059220

loop_
_geom_bond_atom_site_label_1
_geom_bond_atom_site_label_2
_ccdc_geom_bond_type
C10   H16   S    
C4    C16   A    
C9    H14   S    
C13   H6    S    
O7    Zn2   S    
C5    C19   A    
C15   O7    A    
N2    Zn1   S    
C2    C16   A    
C9    C10   S    
C1    O4    A    
C11   H5    S    
C8    C12   S    
O4    Zn2   S    
C2    Cl1   S    
N2    O2    S    
N1    Zn2   S    
C7    C8    D    
C14   O6    A    
C3    H9    S    
C17   C20   A    
C11   C13   S    
C14   C17   S    
C10   H3    S    
C13   H7    S    
C20   Cl2   S    
C3    C17   A    
C12   O3    A    
C18   C20   A    
C15   O9    A    
C5    C6    A    
C6    C18   A    
C7    H12   S    
O3    Zn2   S    
C18   H10   S    
O5    Zn1   S    
C15   C16   S    
C13   H8    S    
O8    Zn2   S    
N1    O10   S    
C11   O2    S    
C4    C6    A    
C9    H15   S    
C19   H11   S    
O9    Zn1   S    
C1    O1    A    
N1    N2    D    
C4    H1    S    
C14   O8    A    
C11   H4    S    
C10   H2    S    
C2    C19   A    
C1    C7    S    
O6    Zn1   S    
O1    Zn1   S    
C9    O10   S    
C12   O5    A    
C3    C5    A    
C8    H13   S    
