data_mof_unit_55030.cif
_audit_creation_date              2012-12-11T14:06:45-0500
_audit_creation_method            fapswitch 2.2
_symmetry_space_group_name_H-M    P1
_symmetry_Int_Tables_number       1
_space_group_crystal_system       triclinic
_cell_length_a                    6.905495
_cell_length_b                    17.400476
_cell_length_c                    24.065215
_cell_angle_alpha                 104.353662
_cell_angle_beta                  90.820426
_cell_angle_gamma                 89.802354
_cell_volume                      2801.09673977

loop_
_atom_site_label
_atom_site_type_symbol
_atom_type_description
_atom_site_fract_x
_atom_site_fract_y
_atom_site_fract_z
_atom_type_partial_charge
O1    O     O_R   0.494290 0.391990 0.999150 -0.523129
O2    O     O_R   0.827170 0.534410 0.082350 -0.504554
O3    O     O_R   0.994360 0.608010 0.000850 -0.528000
C1    C     C_R   0.659473 0.549517 0.106384 0.751994
O4    O     O_R   0.824210 0.388010 0.004470 -0.512127
O5    O     O_R   0.991370 0.460560 0.922410 -0.536144
C2    C     C_R   0.653744 0.355256 0.002525 0.814395
O6    O     O_R   0.497270 0.539440 0.077590 -0.555280
O7    O     O_3   0.659770 0.523970 0.973170 -0.371811
V1    V     V_3+5 0.935840 0.495550 0.004980 1.673469
O8    O     O_R   0.320910 0.465590 0.917650 -0.551116
C3    C     C_R   0.150810 0.451564 0.893639 0.689025
O9    O     O_R   0.323870 0.611990 0.995530 -0.525397
C4    C     C_R   0.153189 0.644561 0.997227 0.796787
V2    V     V_3+5 0.435470 0.504450 0.995020 1.604424
O10   O     O_3   0.161670 0.476030 0.026830 -0.342397
C5    C     C_2   0.134154 0.725040 0.987135 -0.265263
C6    C     C_2   0.978303 0.772779 0.007263 0.077056
C7    C     C_R   0.871424 0.284326 0.625528 0.662694
N1    N     N_R   0.011231 0.339945 0.648906 -0.529588
C8    C     C_R   0.062202 0.389711 0.614770 0.577770
C9    C     C_R   0.055084 0.363229 0.553539 -0.127202
C10   C     C_R   0.954288 0.292451 0.529288 0.018613
C11   C     C_R   0.852949 0.255018 0.565637 -0.043676
C12   C     C_R   0.138019 0.405780 0.516121 -0.108890
C13   C     C_R   0.123523 0.375640 0.455550 0.289105
C14   C     C_R   0.022867 0.303612 0.431603 -0.129726
C15   C     C_R   0.938399 0.262917 0.468893 -0.029863
C16   C     C_R   0.822970 0.195805 0.445505 -0.032104
C17   C     C_R   0.716611 0.161212 0.482208 -0.111178
C18   C     C_R   0.731036 0.190529 0.541565 -0.105059
C19   C     C_R   0.999185 0.270414 0.371424 0.753236
N2    N     N_R   0.938875 0.192946 0.350581 -0.536949
C20   C     C_R   0.814551 0.165271 0.385572 0.581037
O11   O     O_2   0.738462 0.262040 0.658742 -0.534819
O12   O     O_2   0.103084 0.466221 0.639736 -0.480059
O13   O     O_2   0.015864 0.317208 0.334831 -0.418192
O14   O     O_2   0.674639 0.112444 0.363010 -0.514421
H1    H     H_    0.624608 0.110473 0.465009 0.201245
H2    H     H_    0.649331 0.161561 0.568635 0.211844
C21   C     C_R   0.915146 0.068308 0.267762 -0.098957
C22   C     C_R   0.891281 0.039721 0.207172 -0.125628
C23   C     C_R   0.979292 0.081101 0.170084 -0.212614
C24   C     C_R   0.099405 0.146658 0.194987 0.183438
C25   C     C_R   0.111704 0.175471 0.255148 0.333773
C26   C     C_R   0.981681 0.147370 0.290974 0.138539
C27   C     C_R   0.246109 0.404771 0.730628 -0.039060
C28   C     C_R   0.267731 0.439764 0.790963 -0.104078
C29   C     C_R   0.137011 0.419067 0.829897 -0.113995
C30   C     C_R   0.009064 0.356078 0.808786 -0.169544
H3    H     H_    0.933472 0.330459 0.839112 0.129791
C31   C     C_R   0.001885 0.317259 0.750331 -0.005581
C32   C     C_R   0.083343 0.354392 0.709518 0.253179
C33   C     C_R   0.514160 0.869988 0.615024 0.566503
N3    N     N_R   0.517550 0.818988 0.649984 -0.555766
C34   C     C_R   0.544000 0.739385 0.628141 0.654520
C35   C     C_R   0.584983 0.708479 0.569234 -0.105473
C36   C     C_R   0.567590 0.759898 0.532025 -0.042365
C37   C     C_R   0.522511 0.840997 0.554604 -0.102180
C38   C     C_R   0.646058 0.628914 0.546714 0.310529
C39   C     C_R   0.661017 0.598020 0.486705 -0.082244
C40   C     C_R   0.625751 0.648197 0.449166 -0.137741
C41   C     C_R   0.595304 0.730287 0.472335 0.002626
C42   C     C_R   0.592050 0.782522 0.435570 -0.085991
C43   C     C_R   0.536740 0.862990 0.457766 -0.078989
C44   C     C_R   0.491765 0.890913 0.516644 -0.064078
C45   C     C_R   0.618443 0.619357 0.388663 0.587661
N4    N     N_R   0.631463 0.670473 0.353869 -0.567476
C46   C     C_R   0.634369 0.750702 0.376826 0.565070
O15   O     O_2   0.510384 0.948727 0.639118 -0.505977
O16   O     O_2   0.524480 0.690629 0.663322 -0.458143
O17   O     O_2   0.594750 0.541252 0.364566 -0.467117
O18   O     O_2   0.675635 0.798858 0.342483 -0.489872
C47   C     C_R   0.489884 0.659528 0.256610 -0.008532
C48   C     C_R   0.500936 0.632874 0.195994 -0.112711
C49   C     C_R   0.652332 0.580566 0.170498 -0.199776
C50   C     C_R   0.794046 0.557072 0.206590 0.285670
C51   C     C_R   0.792016 0.589602 0.266774 -0.045306
C52   C     C_R   0.637875 0.639472 0.291850 0.179869
C53   C     C_R   0.645427 0.840156 0.748971 -0.051232
H4    H     H_    0.774938 0.807517 0.732625 0.151030
C54   C     C_R   0.629172 0.872790 0.807860 -0.184096
H5    H     H_    0.746461 0.863109 0.835721 0.158201
C55   C     C_R   0.464684 0.917067 0.830645 -0.119967
C56   C     C_R   0.314664 0.927604 0.792283 0.223975
C57   C     C_R   0.331704 0.893686 0.733296 -0.096358
H6    H     H_    0.216950 0.902174 0.704237 0.160126
C58   C     C_R   0.496967 0.850248 0.711178 0.310924
C59   C     C_2   0.635544 0.274685 0.012574 -0.281628
C60   C     C_2   0.478121 0.227042 0.992163 0.069346
O19   O     O_R   0.618210 0.960470 0.922400 -0.543734
O20   O     O_R   0.291310 0.111960 0.995450 -0.498540
O21   O     O_R   0.124210 0.039530 0.077580 -0.525576
C61   C     C_R   0.461459 0.145041 0.998747 0.752354
O22   O     O_R   0.288310 0.965490 0.917650 -0.527779
O23   O     O_R   0.121180 0.892010 0.999220 -0.566231
C62   C     C_R   0.455942 0.950275 0.893848 0.744776
O24   O     O_R   0.621230 0.107990 0.000760 -0.572550
O25   O     O_3   0.455770 0.976060 0.026840 -0.369758
V3    V     V_3+5 0.179680 0.004440 0.995020 1.595187
O26   O     O_R   0.791670 0.888040 0.004570 -0.507776
C63   C     C_R   0.961739 0.854974 0.001123 0.733612
O27   O     O_R   0.794680 0.034510 0.082370 -0.541013
C64   C     C_R   0.964641 0.051375 0.106102 0.819175
V4    V     V_3+5 0.680070 0.995560 0.005010 1.564177
O28   O     O_3   0.953840 0.023940 0.973160 -0.361525
C65   C     C_2   0.275542 0.746919 0.947091 0.377655
H7    H     H_    0.234773 0.787510 0.921253 0.037254
O29   O     O_2   0.437926 0.718340 0.941331 -0.506181
Br1   Br    Br    0.350695 0.227680 0.286579 -0.322074
C66   C     C_2   0.403750 0.410833 0.690245 0.581061
H8    H     H_    0.430213 0.361358 0.653640 0.022447
O30   O     O_2   0.497389 0.471609 0.695263 -0.451565
C67   C     C_2   0.426137 0.496554 0.814109 0.537910
H9    H     H_    0.392481 0.553403 0.843014 0.036576
O31   O     O_2   0.595316 0.478384 0.804056 -0.498522
C68   C     C_2   0.966785 0.230574 0.737716 0.533046
H10   H     H_    0.877186 0.206265 0.765935 0.070716
O32   O     O_2   0.045176 0.185134 0.697368 -0.497770
Br2   Br    Br    0.745655 0.565951 0.597088 -0.339241
C69   C     C_2   0.736405 0.516207 0.463818 0.596024
H11   H     H_    0.842081 0.504886 0.429817 0.102654
O33   O     O_2   0.678444 0.460616 0.481547 -0.510904
C70   C     C_2   0.504107 0.915884 0.418752 0.563829
H12   H     H_    0.626644 0.940701 0.401441 0.105691
O34   O     O_2   0.339718 0.931542 0.405755 -0.504420
C71   C     C_2   0.393931 0.969089 0.537420 0.505979
H13   H     H_    0.275098 0.974834 0.567214 0.094562
O35   O     O_2   0.446094 0.027622 0.522414 -0.547021
C72   C     C_2   0.326253 0.709779 0.284795 0.572952
H14   H     H_    0.270463 0.701758 0.324886 0.004764
O36   O     O_2   0.260312 0.763356 0.265719 -0.466865
Br3   Br    Br    0.778827 0.743898 0.054192 -0.426768
C73   C     C_2   0.356280 0.660707 0.158922 0.551489
H15   H     H_    0.404765 0.684023 0.123628 0.052094
O37   O     O_2   0.182760 0.654797 0.165993 -0.502307
Br4   Br    Br    0.987983 0.478129 0.174272 -0.322466
C74   C     C_2   0.952776 0.575160 0.304956 0.567968
H16   H     H_    0.993363 0.621416 0.342525 -0.005098
O38   O     O_2   0.034604 0.511208 0.297150 -0.427753
Br5   Br    Br    0.088551 0.991386 0.815980 -0.504968
C75   C     C_2   0.779799 0.252808 0.052965 0.484184
H17   H     H_    0.740911 0.212641 0.079003 0.058674
O39   O     O_2   0.942850 0.280823 0.058641 -0.464034
Br6   Br    Br    0.279702 0.254578 0.942819 -0.476372
C76   C     C_2   0.250419 0.479340 0.539716 0.611924
H18   H     H_    0.361219 0.480413 0.572267 0.116374
O40   O     O_2   0.216188 0.539775 0.524227 -0.508997
Br7   Br    Br    0.265200 0.428986 0.407014 -0.285733
C77   C     C_2   0.931917 0.010780 0.304707 0.545766
H19   H     H_    0.005179 0.028737 0.346105 0.072483
O41   O     O_2   0.869423 0.943154 0.289760 -0.486347
C78   C     C_2   0.782080 0.965117 0.183655 0.542147
H20   H     H_    0.653321 0.952561 0.205206 0.102688
O42   O     O_2   0.838426 0.915893 0.141624 -0.510158
Br8   Br    Br    0.245066 0.200108 0.147751 -0.416185

loop_
_geom_bond_atom_site_label_1
_geom_bond_atom_site_label_2
_ccdc_geom_bond_type
N3    C34   A    
O26   C63   A    
O23   C63   A    
C21   C22   A    
O19   V4    S    
C72   O36   D    
C7    N1    A    
C1    O6    A    
C3    C29   S    
C48   C73   S    
C66   O30   D    
C8    O12   S    
C50   C51   A    
C34   C35   A    
O20   V3    S    
C13   C14   A    
C16   C17   A    
O24   V4    S    
C40   C45   A    
C55   C62   S    
C28   C67   S    
C15   C16   A    
C50   Br4   S    
C60   Br6   S    
C68   O32   D    
C37   C44   A    
O5    C3    A    
C17   C18   A    
C57   C58   A    
C61   O24   A    
C59   C75   S    
C2    C59   S    
C44   C71   S    
C6    Br3   S    
C39   C69   S    
C45   O17   S    
C6    C63   S    
C43   C70   S    
N3    C58   S    
C23   C64   S    
C18   H2    S    
O8    V2    S    
C55   C56   A    
O25   V3    S    
N4    C46   A    
C9    C12   A    
C30   C31   A    
C21   C26   A    
C46   O18   S    
C12   C76   S    
O1    V2    S    
C78   O42   D    
O7    V1    S    
C27   C32   A    
C31   C68   S    
N4    C52   S    
O1    C2    A    
O9    C4    A    
N2    C26   S    
C65   O29   D    
C4    C5    S    
C51   C74   S    
O21   C64   A    
C60   C61   S    
C76   O40   D    
C33   C37   A    
O26   V4    S    
O25   V4    S    
C1    C49   S    
C47   C48   A    
C45   N4    A    
C24   Br8   S    
C22   C78   S    
C49   C50   A    
O22   V3    S    
C53   C54   A    
C56   Br5   S    
O4    C2    A    
C25   Br1   S    
N1    C32   S    
C35   C38   A    
C73   O37   D    
C21   C77   S    
C30   H3    S    
C12   C13   A    
C56   C57   A    
C16   C20   A    
C38   C39   A    
O2    C1    A    
C48   C49   A    
C71   O35   D    
C40   C41   A    
C5    C65   S    
C27   C28   A    
C33   O15   S    
C10   C11   A    
C34   O16   S    
O20   C61   A    
C5    C6    D    
O27   V4    S    
C19   O13   S    
O19   C62   A    
O21   V3    S    
C69   H11   S    
O3    C4    A    
C74   O38   D    
C28   C29   A    
C54   H5    S    
O6    V2    S    
C54   C55   A    
C47   C52   A    
O9    V2    S    
C23   C24   A    
C75   O39   D    
C10   C15   A    
C22   C23   A    
C65   H7    S    
C71   H13   S    
O2    V1    S    
C14   C15   A    
C31   C32   A    
C57   H6    S    
C70   O34   D    
C76   H18   S    
C36   C41   A    
C33   N3    A    
C66   H8    S    
C14   C19   A    
C20   O14   S    
C13   Br7   S    
C24   C25   A    
C53   H4    S    
O5    V1    S    
C67   O31   D    
O8    C3    A    
O22   C62   A    
C67   H9    S    
C73   H15   S    
C42   C46   A    
V4    O28   S    
V3    O28   S    
C8    C9    A    
C77   H19   S    
C42   C43   A    
C47   C72   S    
C7    C11   A    
C36   C37   A    
C11   C18   A    
O4    V1    S    
C53   C58   A    
O3    V1    S    
V1    O10   S    
C68   H10   S    
C19   N2    A    
C51   C52   A    
C35   C36   A    
C27   C66   S    
O23   V3    S    
N2    C20   A    
C17   H1    S    
C72   H14   S    
C77   O41   D    
C43   C44   A    
O7    V2    S    
C39   C40   A    
C69   O33   D    
C74   H16   S    
C38   Br2   S    
C41   C42   A    
C25   C26   A    
N1    C8    A    
C29   C30   A    
O27   C64   A    
C75   H17   S    
C9    C10   A    
C7    O11   S    
C78   H20   S    
C59   C60   D    
V2    O10   S    
C70   H12   S    
