data_mof_unit_46537.cif
_audit_creation_date              2012-12-10T16:46:43-0500
_audit_creation_method            fapswitch 2.2
_symmetry_space_group_name_H-M    P1
_symmetry_Int_Tables_number       1
_space_group_crystal_system       triclinic
_cell_length_a                    15.857373
_cell_length_b                    8.691353
_cell_length_c                    7.453096
_cell_angle_alpha                 103.012766
_cell_angle_beta                  94.062962
_cell_angle_gamma                 92.185379
_cell_volume                      996.759772137

loop_
_atom_site_label
_atom_site_type_symbol
_atom_type_description
_atom_site_fract_x
_atom_site_fract_y
_atom_site_fract_z
_atom_type_partial_charge
C1    C     C_R   0.497493 0.199737 0.453262 0.884181
C2    C     C_3   0.955711 0.503018 0.687190 -0.420814
C3    C     C_3   0.916586 0.493780 0.488090 0.172375
C4    C     C_3   0.952470 0.638317 0.422380 -0.353887
C5    C     C_3   0.050161 0.638007 0.425880 -0.352160
C6    C     C_1   0.824442 0.496410 0.489225 -0.011443
C7    C     C_1   0.175188 0.497256 0.504305 -0.016756
C8    C     C_1   0.250867 0.499033 0.506734 -0.123239
C9    C     C_2   0.496293 0.031832 0.427017 -0.357276
C10   C     C_2   0.503733 0.968171 0.572982 -0.356070
C11   C     C_R   0.340353 0.499825 0.502524 0.818084
C12   C     C_R   0.502518 0.800264 0.546737 0.876672
C13   C     C_R   0.659640 0.500044 0.497390 0.819495
C14   C     C_3   0.053370 0.504199 0.691902 -0.429100
C15   C     C_3   0.042566 0.338448 0.365498 0.125594
C16   C     C_3   0.943397 0.338675 0.359942 0.126725
C17   C     C_1   0.749011 0.498293 0.491773 -0.117346
C18   C     C_3   0.082669 0.494182 0.495868 0.177235
Cu1   Cu    Cu3+1 0.509300 0.517380 0.684380 0.973792
Cu2   Cu    Cu3+1 0.490700 0.482620 0.315620 0.979184
H1    H     H_    0.931491 0.400134 0.738139 0.226981
H2    H     H_    0.081223 0.614186 0.788459 0.206990
H3    H     H_    0.936817 0.611878 0.782653 0.208011
H4    H     H_    0.925316 0.636883 0.280235 0.212291
H5    H     H_    0.489278 0.960238 0.286349 0.181284
H6    H     H_    0.510752 0.039766 0.713650 0.183289
H7    H     H_    0.434931 0.376783 0.948694 0.231240
H8    H     H_    0.565070 0.623212 0.051307 0.230469
H9    H     H_    0.076001 0.402512 0.746154 0.222917
H10   H     H_    0.062562 0.237631 0.424870 0.108066
H11   H     H_    0.920719 0.237156 0.415423 0.109491
H12   H     H_    0.078401 0.749932 0.517818 0.174950
H13   H     H_    0.070029 0.635016 0.285026 0.212586
H14   H     H_    0.934202 0.749777 0.513907 0.176810
N1    N     N_2   0.476670 0.456430 0.038530 -0.211079
N2    N     N_2   0.523330 0.543570 0.961470 -0.210724
O1    O     O_R   0.506050 0.286130 0.619770 -0.584413
O2    O     O_R   0.490330 0.256780 0.308370 -0.582222
O3    O     O_R   0.387300 0.514690 0.655770 -0.586931
O4    O     O_R   0.371580 0.485340 0.344370 -0.562773
O5    O     O_R   0.509670 0.743220 0.691630 -0.584647
O6    O     O_R   0.493950 0.713870 0.380230 -0.587668
O7    O     O_R   0.628420 0.514660 0.655630 -0.569677
O8    O     O_R   0.612700 0.485310 0.344230 -0.575758
Br1   Br    Br    0.088930 0.297810 0.122653 -0.529453
Br2   Br    Br    0.884695 0.301307 0.111454 -0.515279

loop_
_geom_bond_atom_site_label_1
_geom_bond_atom_site_label_2
_ccdc_geom_bond_type
C15   C18   S    
Cu2   O6    S    
C12   O5    A    
C1    O1    A    
Cu2   O2    S    
C9    C10   D    
C14   C18   S    
Cu1   Cu2   S    
C13   C17   S    
C3    C6    S    
C7    C18   S    
C2    H1    S    
C2    C3    S    
C2    C14   S    
C9    H5    S    
C7    C8    T    
C16   H11   S    
C11   O3    A    
C10   H6    S    
C10   C12   S    
C1    O2    A    
C8    C11   S    
Cu2   O4    S    
Cu1   O3    S    
Cu2   O8    S    
Cu1   O7    S    
Cu1   N2    S    
C13   O8    A    
C11   O4    A    
C4    H4    S    
C4    H14   S    
C15   Br1   S    
C14   H9    S    
C15   C16   S    
Cu1   O5    S    
C13   O7    A    
C1    C9    S    
H8    N2    S    
C15   H10   S    
C14   H2    S    
C16   Br2   S    
C2    H3    S    
C6    C17   T    
C12   O6    A    
C5    C18   S    
Cu1   O1    S    
H7    N1    S    
Cu2   N1    S    
C3    C16   S    
C5    H12   S    
C3    C4    S    
N1    N2    D    
C4    C5    S    
C5    H13   S    
