data_mof_unit_13327.cif
_audit_creation_date              2012-12-11T14:57:58-0500
_audit_creation_method            fapswitch 2.2
_symmetry_space_group_name_H-M    P1
_symmetry_Int_Tables_number       1
_space_group_crystal_system       triclinic
_cell_length_a                    6.948854
_cell_length_b                    16.313589
_cell_length_c                    17.515055
_cell_angle_alpha                 100.238085
_cell_angle_beta                  90.471273
_cell_angle_gamma                 90.5135
_cell_volume                      1953.72993783

loop_
_atom_site_label
_atom_site_type_symbol
_atom_type_description
_atom_site_fract_x
_atom_site_fract_y
_atom_site_fract_z
_atom_type_partial_charge
O1    O     O_R   0.506180 0.438940 0.579430 -0.508362
O2    O     O_R   0.170520 0.406230 0.413590 -0.549255
O3    O     O_R   0.005180 0.561060 0.420570 -0.512134
C1    C     C_R   0.338261 0.382265 0.385655 0.754203
O4    O     O_R   0.176140 0.429310 0.578370 -0.532601
O5    O     O_R   0.010830 0.584300 0.586530 -0.509622
C2    C     C_R   0.345734 0.414387 0.605166 0.843270
O6    O     O_R   0.500520 0.415700 0.413470 -0.526614
O7    O     O_3   0.340830 0.550820 0.502480 -0.337373
V1    V     V_3+5 0.064040 0.490570 0.499540 1.702250
O8    O     O_R   0.681400 0.593770 0.586410 -0.523794
C3    C     C_R   0.853658 0.620249 0.611881 0.826837
O9    O     O_R   0.675790 0.570690 0.421630 -0.516165
C4    C     C_R   0.843104 0.586098 0.395217 0.899956
V2    V     V_3+5 0.564650 0.509430 0.500460 1.750367
O10   O     O_3   0.837730 0.449180 0.497520 -0.375068
C5    C     C_R   0.907309 0.860127 0.164396 -0.242473
C6    C     C_R   0.846553 0.634897 0.331435 -0.285421
C7    C     C_R   0.823300 0.637566 0.192752 0.461570
C8    C     C_R   0.836374 0.593238 0.254492 0.567646
C9    C     C_R   0.844491 0.722341 0.346425 0.372171
C10   C     C_R   0.868882 0.767290 0.285235 -0.147779
C11   C     C_R   0.843929 0.726256 0.207013 -0.167326
C12   C     C_R   0.839923 0.776496 0.147846 0.396188
C13   C     C_R   0.944231 0.897359 0.241335 0.603534
C14   C     C_R   0.916172 0.852720 0.301200 0.014500
H1    H     H_    0.940054 0.884852 0.360165 0.253724
H2    H     H_    0.978964 0.601534 0.959776 0.246727
C15   C     C_R   0.911292 0.920037 0.727875 0.319431
C16   C     C_R   0.945936 0.936942 0.654167 -0.179877
C17   C     C_R   0.002005 0.874605 0.595246 0.731861
C18   C     C_R   0.000468 0.791875 0.605651 0.251477
C19   C     C_R   0.927583 0.769906 0.675560 -0.146428
C20   C     C_R   0.910438 0.835465 0.741433 -0.031941
C21   C     C_R   0.877914 0.686003 0.682733 -0.056081
C22   C     C_R   0.876048 0.664188 0.758426 -0.021569
C23   C     C_R   0.919245 0.727880 0.824415 -0.064963
C24   C     C_R   0.909743 0.813887 0.817027 -0.069935
C25   C     C_R   0.848736 0.580170 0.771767 0.377296
C26   C     C_R   0.868867 0.561765 0.845917 -0.083834
C27   C     C_R   0.939232 0.620721 0.905797 -0.014748
C28   C     C_R   0.973778 0.701833 0.895276 0.351931
H3    H     H_    0.948235 0.000664 0.644225 0.221997
H4    H     H_    0.848020 0.498579 0.855850 0.210732
C29   C     C_R   0.278911 0.205756 0.389989 -0.244081
C30   C     C_R   0.280097 0.122025 0.398173 0.407587
C31   C     C_R   0.365558 0.062913 0.341460 0.379152
C32   C     C_R   0.424609 0.085267 0.271872 0.512090
C33   C     C_R   0.399449 0.167898 0.258297 -0.101691
C34   C     C_R   0.345208 0.230800 0.321656 -0.083486
C35   C     C_R   0.409962 0.187440 0.182649 -0.047344
C36   C     C_R   0.357830 0.269356 0.172774 -0.054136
C37   C     C_R   0.349681 0.336420 0.237861 -0.047933
C38   C     C_R   0.346265 0.316314 0.314155 -0.039139
C39   C     C_R   0.299737 0.284453 0.099295 -0.239174
C40   C     C_R   0.254139 0.364197 0.087568 0.418297
C41   C     C_R   0.285770 0.432234 0.146802 0.422078
C42   C     C_R   0.330141 0.419617 0.222335 0.262027
H5    H     H_    0.216369 0.250435 0.435922 0.182136
H6    H     H_    0.280589 0.233768 0.050834 0.167316
C43   C     C_R   0.416090 0.136391 0.832446 -0.168895
C44   C     C_R   0.360207 0.364666 0.668311 -0.169671
C45   C     C_R   0.390825 0.358688 0.805877 -0.058520
C46   C     C_R   0.357407 0.404389 0.746504 0.347086
C47   C     C_R   0.397731 0.278506 0.651261 0.329007
C48   C     C_R   0.400150 0.230495 0.711120 -0.040823
C49   C     C_R   0.409034 0.271389 0.789279 -0.034758
C50   C     C_R   0.438870 0.223918 0.848625 0.331412
C51   C     C_R   0.398441 0.096204 0.754668 0.351521
C52   C     C_R   0.398611 0.142767 0.694742 -0.068969
H7    H     H_    0.395798 0.391797 0.865125 0.244367
H8    H     H_    0.390374 0.109713 0.635480 0.245814
O11   O     O_R   0.265840 0.084300 0.086750 -0.554988
O12   O     O_R   0.589750 0.070740 0.921690 -0.507671
O13   O     O_R   0.755020 0.915730 0.913400 -0.523078
C53   C     C_R   0.421650 0.086608 0.895662 0.829302
O14   O     O_R   0.595830 0.093740 0.086480 -0.522766
O15   O     O_R   0.761150 0.938890 0.079360 -0.512900
C54   C     C_R   0.426569 0.118676 0.113454 0.780415
O16   O     O_R   0.259710 0.061140 0.920790 -0.535080
O17   O     O_3   0.425260 0.949200 0.997610 -0.347963
V3    V     V_3+5 0.702060 0.009430 0.000450 1.732742
O18   O     O_R   0.090530 0.929220 0.078150 -0.514628
C55   C     C_R   0.921100 0.912196 0.103301 0.881814
O19   O     O_R   0.084440 0.906220 0.913360 -0.511409
C56   C     C_R   0.915225 0.880472 0.887419 0.834109
V4    V     V_3+5 0.201450 0.990520 0.999290 1.718075
O20   O     O_3   0.928380 0.050800 0.002390 -0.379366
Cl1   Cl    Cl    0.716821 0.744096 0.058750 -0.514145
F1    F     F_    0.069993 0.895855 0.528852 -0.541702
Cl2   Cl    Cl    0.141822 0.725746 0.538398 -0.502357
Cl3   Cl    Cl    0.806673 0.490062 0.701568 -0.610905
Cl4   Cl    Cl    0.129688 0.757632 0.966098 -0.555602
Cl5   Cl    Cl    0.268059 0.533923 0.125542 -0.393185
Cl6   Cl    Cl    0.167445 0.091744 0.478689 -0.432621
Cl7   Cl    Cl    0.392194 0.959042 0.354985 -0.392548
F2    F     F_    0.501669 0.024914 0.217629 -0.644545
F3    F     F_    0.994905 0.979143 0.258972 -0.661432
Cl8   Cl    Cl    0.150985 0.377501 0.998393 -0.479820
Cl9   Cl    Cl    0.357200 0.511268 0.292923 -0.550186
Cl10  Cl    Cl    0.538076 0.271589 0.938739 -0.598589
Cl11  Cl    Cl    0.391691 0.986719 0.729972 -0.597470
Cl12  Cl    Cl    0.327364 0.512885 0.771917 -0.600363
Cl13  Cl    Cl    0.478101 0.234836 0.558102 -0.628332
Cl14  Cl    Cl    0.797260 0.575817 0.099703 -0.380380
F4    F     F_    0.830156 0.508554 0.239596 -0.630432
Cl15  Cl    Cl    0.775045 0.774724 0.438608 -0.511847
Cl16  Cl    Cl    0.881224 0.011511 0.797083 -0.595719

loop_
_geom_bond_atom_site_label_1
_geom_bond_atom_site_label_2
_ccdc_geom_bond_type
C46   Cl12  S    
O18   V4    S    
V4    O20   S    
C26   C27   A    
C28   Cl4   S    
C27   C28   A    
C4    C6    S    
O2    C1    A    
C21   C22   A    
C1    O6    A    
C12   Cl1   S    
O17   V3    S    
C17   C18   A    
C51   Cl11  S    
C32   F2    S    
C14   H1    S    
C34   C38   A    
O12   C53   A    
C24   C56   S    
O18   C55   A    
O14   V3    S    
C22   C23   A    
C23   C24   A    
O16   V4    S    
O5    C3    A    
C16   C17   A    
C18   Cl2   S    
V2    O10   S    
C6    C9    A    
H2    C27   S    
C40   C41   A    
C23   C28   A    
O11   V4    S    
C44   C46   A    
O8    V2    S    
C30   Cl6   S    
C7    C8    A    
C33   C35   A    
C11   C12   A    
C15   Cl16  S    
O1    V2    S    
O7    V1    S    
C36   C39   A    
C39   H6    S    
O14   C54   A    
C48   C49   A    
O1    C2    A    
O9    C4    A    
O12   V3    S    
C8    F4    S    
O19   V4    S    
C43   C53   S    
C45   C49   A    
C5    C12   A    
C35   C36   A    
C42   Cl9   S    
C50   Cl10  S    
C25   C26   A    
O4    C2    A    
C13   C14   A    
O19   C56   A    
C15   C20   A    
C49   C50   A    
C7    C11   A    
C2    C44   S    
C15   C16   A    
O15   C55   A    
O15   V3    S    
O13   C56   A    
C31   C32   A    
C31   Cl7   S    
C17   F1    S    
C39   C40   A    
C19   C20   A    
O11   C54   A    
O17   V4    S    
C3    C21   S    
C9    Cl15  S    
O3    C4    A    
C7    Cl14  S    
C32   C33   A    
C45   H7    S    
C47   C48   A    
O6    V2    S    
C41   Cl5   S    
O9    V2    S    
C16   H3    S    
O2    V1    S    
C25   Cl3   S    
C36   C37   A    
C43   C51   A    
C30   C31   A    
C29   H5    S    
C44   C47   A    
C1    C38   S    
C20   C24   A    
C22   C25   A    
C53   O16   A    
O5    V1    S    
C37   C42   A    
O13   V3    S    
C37   C38   A    
C47   Cl13  S    
C5    C55   S    
C5    C13   A    
C18   C19   A    
O7    V2    S    
O4    V1    S    
O3    V1    S    
V1    O10   S    
C43   C50   A    
C41   C42   A    
C48   C52   A    
C29   C34   A    
V3    O20   S    
C19   C21   A    
C6    C8    A    
C51   C52   A    
C35   C54   S    
C45   C46   A    
C29   C30   A    
C13   F3    S    
C26   H4    S    
C33   C34   A    
C10   C14   A    
C10   C11   A    
C52   H8    S    
C40   Cl8   S    
C9    C10   A    
O8    C3    A    
