data_mof_unit_48791.cif
_audit_creation_date              2013-03-05T16:50:00-0500
_audit_creation_method            fapswitch 2.2
_symmetry_space_group_name_H-M    P1
_symmetry_Int_Tables_number       1
_space_group_crystal_system       triclinic
_cell_length_a                    27.789114
_cell_length_b                    10.822293
_cell_length_c                    26.440478
_cell_angle_alpha                 89.98884
_cell_angle_beta                  89.840393
_cell_angle_gamma                 89.846961
_cell_volume                      7951.70112983

loop_
_atom_site_label
_atom_site_type_symbol
_atom_site_description
_atom_site_fract_x
_atom_site_fract_y
_atom_site_fract_z
_atom_type_partial_charge
O1    O     O_R   0.500000 0.319660 0.542350 -0.582031
O2    O     O_R   0.500000 0.680340 0.457650 -0.582667
O3    O     O_R   0.500000 0.319630 0.457650 -0.569662
O4    O     O_R   0.500000 0.680370 0.542350 -0.568343
C1    C     C_R   0.498760 0.261992 0.499935 0.800982
C2    C     C_R   0.501314 0.737976 0.500050 0.799959
O5    O     O_R   0.430260 0.500030 0.542340 -0.586069
O6    O     O_R   0.569740 0.499970 0.457660 -0.584407
O7    O     O_R   0.430270 0.500010 0.457650 -0.583840
O8    O     O_R   0.569730 0.499990 0.542350 -0.584468
C3    C     C_R   0.407280 0.500910 0.500084 0.823866
C4    C     C_R   0.592696 0.499475 0.499993 0.824140
Cu1   Cu    Cu3+1 0.500000 0.500020 0.550150 0.948446
Cu2   Cu    Cu3+1 0.500000 0.499980 0.449850 0.949457
O9    O     O_2   0.432541 0.374324 0.785269 -0.551121
O10   O     O_2   0.568946 0.620122 0.214757 -0.544115
C5    C     C_R   0.427688 0.372359 0.055448 -0.197300
C6    C     C_R   0.571170 0.631716 0.944565 -0.197108
C7    C     C_R   0.177885 0.398306 0.516343 0.614096
C8    C     C_R   0.821597 0.609498 0.500842 0.572691
O11   O     O_2   0.203053 0.296235 0.529195 -0.546725
O12   O     O_2   0.796162 0.715885 0.499816 -0.542990
N1    N     N_R   0.201671 0.502851 0.501530 -0.447556
N2    N     N_R   0.798072 0.498695 0.501116 -0.449790
C9    C     C_R   0.177200 0.607020 0.487330 0.558754
C10   C     C_R   0.822639 0.389122 0.502394 0.594803
C11   C     C_R   0.278399 0.505402 0.455607 -0.194217
C12   C     C_R   0.721677 0.518604 0.455850 -0.187938
C13   C     C_R   0.328500 0.504878 0.455013 -0.239236
C14   C     C_R   0.671543 0.519197 0.455385 -0.220163
C15   C     C_R   0.329153 0.502308 0.546707 -0.326993
C16   C     C_R   0.670639 0.476976 0.545501 -0.325595
C17   C     C_R   0.278468 0.500637 0.547674 0.549220
C18   C     C_R   0.721154 0.478731 0.546369 0.551883
C19   C     C_R   0.253324 0.503613 0.501611 0.284327
C20   C     C_R   0.746512 0.497629 0.501034 0.275920
C21   C     C_R   0.101498 0.502928 0.504008 -0.053866
C22   C     C_R   0.898141 0.501427 0.503791 -0.053260
C23   C     C_R   0.127407 0.396607 0.518089 -0.110683
C24   C     C_R   0.872082 0.612936 0.501973 -0.102677
C25   C     C_R   0.102595 0.292304 0.534979 -0.209374
C26   C     C_R   0.896748 0.725205 0.502808 -0.210400
C27   C     C_R   0.126684 0.608993 0.488239 -0.004765
C28   C     C_R   0.873120 0.388361 0.503941 -0.014902
C29   C     C_R   0.354297 0.502324 0.500523 -0.090908
C30   C     C_R   0.645625 0.498676 0.500225 -0.101685
H1    H     H_    0.348964 0.505144 0.581847 0.158220
H2    H     H_    0.651036 0.457305 0.580014 0.157198
C31   C     C_R   0.974769 0.390019 0.510931 0.067145
C32   C     C_R   0.024899 0.613621 0.494488 0.069423
C33   C     C_R   0.974088 0.616649 0.500939 -0.075584
C34   C     C_R   0.025465 0.392867 0.517658 -0.076011
C35   C     C_R   0.949147 0.502801 0.505278 0.010157
C36   C     C_R   0.050471 0.503118 0.505451 0.009400
C37   C     C_R   0.948882 0.278133 0.507786 -0.153057
C38   C     C_R   0.051006 0.715705 0.475705 -0.152793
C39   C     C_R   0.898959 0.277407 0.504819 -0.174203
C40   C     C_R   0.100976 0.713827 0.473170 -0.174109
H3    H     H_    0.398539 0.322314 0.038421 0.138690
H4    H     H_    0.599445 0.684951 0.961600 0.138844
O13   O     O_2   0.798250 0.281451 0.502238 -0.522587
O14   O     O_2   0.201692 0.708667 0.472896 -0.535169
C41   C     C_R   0.052415 0.290718 0.536643 0.467848
C42   C     C_R   0.946942 0.728475 0.503856 0.457540
H5    H     H_    0.741364 0.534406 0.421056 0.159882
H6    H     H_    0.258894 0.507013 0.420213 0.159352
H7    H     H_    0.390139 0.285005 0.303281 0.168645
H8    H     H_    0.611271 0.708775 0.694552 0.162710
C43   C     C_R   0.387455 0.243798 0.382847 -0.133743
C44   C     C_R   0.612575 0.749082 0.614865 -0.131021
C45   C     C_R   0.410353 0.185499 0.423410 -0.092808
C46   C     C_R   0.589674 0.809772 0.574917 -0.084354
H9    H     H_    0.394383 0.190384 0.460778 0.113815
H10   H     H_    0.604585 0.802800 0.537124 0.112666
C47   C     C_R   0.453795 0.121471 0.415669 0.115356
C48   C     C_R   0.547366 0.877968 0.583704 0.112525
C49   C     C_R   0.473810 0.115981 0.366881 -0.146437
C50   C     C_R   0.528686 0.885785 0.633020 -0.147948
H11   H     H_    0.507361 0.067327 0.360323 0.140759
H12   H     H_    0.495994 0.937502 0.640407 0.141263
C51   C     C_R   0.450967 0.175341 0.326516 -0.098872
C52   C     C_R   0.551642 0.824489 0.672835 -0.095707
C53   C     C_R   0.407857 0.239306 0.334521 -0.117339
C54   C     C_R   0.593518 0.756094 0.663740 -0.119511
C55   C     C_R   0.481540 0.933498 0.459216 -0.224957
C56   C     C_R   0.518918 0.066416 0.540666 -0.225124
C57   C     C_R   0.502448 0.871746 0.500144 -0.083610
C58   C     C_R   0.497904 0.128186 0.499765 -0.084172
C59   C     C_R   0.521985 0.938476 0.541108 0.001439
C60   C     C_R   0.478638 0.061383 0.458674 -0.000373
H13   H     H_    0.402431 0.319495 0.871301 0.183641
H14   H     H_    0.599658 0.672762 0.128702 0.184630
H15   H     H_    0.400809 0.315963 0.960713 0.138677
H16   H     H_    0.601293 0.676257 0.039281 0.138839
C61   C     C_R   0.464081 0.435509 0.188339 0.608417
C62   C     C_R   0.535285 0.566666 0.811665 0.609452
O15   O     O_2   0.429702 0.374143 0.214146 -0.581227
O16   O     O_2   0.568984 0.630475 0.785855 -0.579487
N3    N     N_R   0.499293 0.497219 0.214199 -0.407243
N4    N     N_R   0.500738 0.502511 0.785805 -0.407177
C63   C     C_R   0.534717 0.559426 0.188633 0.616581
C64   C     C_R   0.466020 0.437747 0.811379 0.614713
C65   C     C_R   0.532819 0.424791 0.295687 0.353533
C66   C     C_R   0.466062 0.571239 0.704296 0.352921
C67   C     C_R   0.531471 0.425860 0.349193 -0.085661
C68   C     C_R   0.467457 0.570851 0.650870 -0.084370
C69   C     C_R   0.467832 0.571727 0.349227 -0.089445
C70   C     C_R   0.533224 0.431358 0.650711 -0.091822
C71   C     C_R   0.465611 0.569411 0.295860 0.364371
C72   C     C_R   0.535516 0.433831 0.704106 0.365776
C73   C     C_R   0.499140 0.496872 0.269029 0.206113
C74   C     C_R   0.500886 0.502879 0.730974 0.204609
C75   C     C_R   0.499675 0.498454 0.107907 -0.042213
C76   C     C_R   0.500367 0.501294 0.892100 -0.042396
C77   C     C_R   0.463621 0.435108 0.134915 -0.035289
C78   C     C_R   0.535774 0.566996 0.865091 -0.036093
C79   C     C_R   0.427882 0.372745 0.108124 -0.145515
C80   C     C_R   0.570821 0.631887 0.891887 -0.145845
C81   C     C_R   0.535555 0.561093 0.135218 -0.043882
C82   C     C_R   0.465145 0.436242 0.864790 -0.042345
N5    N     N_R   0.500000 0.499970 0.374520 -0.203857
N6    N     N_R   0.500000 0.500030 0.625480 -0.203786
H17   H     H_    0.399593 0.323505 0.127852 0.182963
H18   H     H_    0.598421 0.683639 0.872162 0.182660
C83   C     C_R   0.463896 0.434296 0.972799 0.039878
C84   C     C_R   0.536417 0.564476 0.027208 0.039680
C85   C     C_R   0.536313 0.566202 0.973115 0.039630
C86   C     C_R   0.463456 0.434553 0.026894 0.039615
C87   C     C_R   0.500190 0.500602 0.946240 0.075762
C88   C     C_R   0.499850 0.499163 0.053768 0.075828
C89   C     C_R   0.429210 0.369576 0.943939 -0.196526
C90   C     C_R   0.572019 0.625840 0.056064 -0.196090
C91   C     C_R   0.429908 0.370731 0.891270 -0.144418
C92   C     C_R   0.571486 0.624074 0.108734 -0.142775
H19   H     H_    0.442813 0.627488 0.629380 0.152984
H20   H     H_    0.555174 0.367055 0.370865 0.152726
H21   H     H_    0.966599 0.189575 0.505244 0.214065
H22   H     H_    0.033492 0.796467 0.460473 0.207229
O17   O     O_3   0.030823 0.190231 0.559466 -0.602216
C93   C     C_3   0.021554 0.219951 0.610511 -0.339541
H23   H     H_    0.996102 0.299138 0.613888 0.174753
H24   H     H_    0.055483 0.240083 0.631202 0.172524
H25   H     H_    0.004464 0.139134 0.628995 0.184890
O18   O     O_3   0.968353 0.842490 0.510087 -0.595260
C94   C     C_3   0.976607 0.861163 0.562114 -0.306123
H26   H     H_    0.001305 0.789769 0.577836 0.165952
H27   H     H_    0.942198 0.862981 0.583771 0.160735
H28   H     H_    0.994146 0.952169 0.567098 0.231276
H29   H     H_    0.353826 0.292193 0.388820 0.131463
H30   H     H_    0.645042 0.696512 0.607885 0.122459
H31   H     H_    0.466750 0.172064 0.289067 0.177353
H32   H     H_    0.536848 0.829542 0.710692 0.176290
H33   H     H_    0.465921 0.881809 0.428195 0.158325
H34   H     H_    0.534570 0.118139 0.571655 0.158084
H35   H     H_    0.444014 0.630899 0.370744 0.149322
H36   H     H_    0.557809 0.374511 0.629107 0.148583
O19   O     O_3   0.434016 0.643598 0.268788 -0.556026
C95   C     C_3   0.386490 0.629887 0.286934 -0.267222
H37   H     H_    0.380387 0.688603 0.320802 0.147774
H38   H     H_    0.377333 0.531690 0.295208 0.154880
H39   H     H_    0.361363 0.662316 0.257205 0.197830
O20   O     O_3   0.568203 0.362830 0.731242 -0.556194
C96   C     C_3   0.615297 0.376641 0.711873 -0.263585
H40   H     H_    0.623713 0.474291 0.701907 0.145340
H41   H     H_    0.621104 0.315029 0.678821 0.151991
H42   H     H_    0.641179 0.347954 0.741524 0.198318
O21   O     O_3   0.252200 0.506708 0.592440 -0.575035
C97   C     C_3   0.269589 0.421379 0.628473 -0.271696
H43   H     H_    0.300566 0.460762 0.649386 0.142816
H44   H     H_    0.279323 0.330635 0.611269 0.177962
H45   H     H_    0.240639 0.403818 0.656511 0.195495
O22   O     O_3   0.746543 0.453306 0.590186 -0.562619
C98   C     C_3   0.736712 0.544782 0.626818 -0.329810
H46   H     H_    0.700732 0.530551 0.644237 0.142612
H47   H     H_    0.739740 0.639903 0.610962 0.171397
H48   H     H_    0.763725 0.536526 0.657444 0.201042
H49   H     H_    0.121990 0.211802 0.548425 0.206412
H50   H     H_    0.877224 0.811993 0.503807 0.206955
O23   O     O_3   0.434009 0.644293 0.731496 -0.563870
C99   C     C_3   0.386468 0.627789 0.714081 -0.265297
H51   H     H_    0.378019 0.528942 0.706367 0.164597
H52   H     H_    0.379659 0.685383 0.680066 0.148659
H53   H     H_    0.361317 0.659663 0.744029 0.197416
O24   O     O_3   0.563359 0.347997 0.268168 -0.565551
C100  C     C_3   0.610467 0.348392 0.288011 -0.264076
H54   H     H_    0.613395 0.282756 0.320158 0.148849
H55   H     H_    0.622371 0.442638 0.299383 0.165806
H56   H     H_    0.635557 0.315839 0.258130 0.197895
H57   H     H_    0.653103 0.535980 0.419996 0.168033
H58   H     H_    0.347009 0.507119 0.418930 0.157797
H59   H     H_    0.880709 0.189185 0.502998 0.195085
H60   H     H_    0.119372 0.794954 0.459004 0.192249

loop_
_geom_bond_atom_site_label_1
_geom_bond_atom_site_label_2
_geom_bond_distance
_ccdc_geom_bond_type
C45   C47   1.404855 A    
H7    C53   1.081734 S    
C84   C85   1.430382 A    
C11   C13   1.392298 A    
C25   C41   1.395183 A    
C69   C71   1.412816 A    
C96   H40   1.114364 S    
C44   H30   1.080818 S    
C93   H25   1.109112 S    
C46   C48   1.405281 A    
C71   O19   1.388299 S    
C9    C27   1.404028 A    
C50   H12   1.083081 S    
C66   C68   1.413040 A    
C94   H26   1.113311 S    
C72   O20   1.389225 S    
C10   C28   1.403542 A    
C23   C25   1.396876 A    
C69   H35   1.080566 S    
C17   O21   1.390354 S    
C98   H46   1.110736 S    
C99   H51   1.114802 S    
O5    C3    1.288446 A    
C22   C35   1.418195 A    
N2    C20   1.432875 S    
O1    C1    1.284123 A    
C48   C50   1.404608 A    
C25   H49   1.083683 S    
C7    O11   1.349771 S    
C10   O13   1.349595 S    
C93   H24   1.113454 S    
C39   H59   1.083434 S    
C71   C73   1.407234 A    
C8    C24   1.403922 A    
C61   N3    1.370546 A    
C97   H44   1.114716 S    
C100  H55   1.114728 S    
C66   O23   1.388722 S    
C84   C88   1.423024 A    
O24   C100  1.411698 S    
C65   C73   1.407434 A    
C82   C91   1.396910 A    
C14   H57   1.083144 S    
O4    Cu1   1.962625 S    
C43   C45   1.398075 A    
C83   C89   1.417689 A    
C47   C60   1.481250 S    
C95   H39   1.109156 S    
C94   H27   1.113299 S    
C75   C81   1.408178 A    
C1    C58   1.448358 S    
C97   H45   1.109207 S    
C8    N2    1.367318 A    
C61   C77   1.412641 A    
C77   C79   1.396889 A    
C62   O16   1.348801 S    
C83   C86   1.430338 A    
C15   C17   1.408816 A    
C49   C51   1.398573 A    
C38   C40   1.390156 A    
C44   C54   1.397231 A    
C6    C80   1.392891 A    
C18   C20   1.403985 A    
C27   C40   1.397643 A    
C99   H53   1.109163 S    
C5    C79   1.392811 A    
C48   C59   1.482029 S    
O3    C1    1.280597 A    
C55   C57   1.398738 A    
Cu2   N5    1.991761 S    
C15   H1    1.081766 S    
Cu1   Cu2   2.651983 S    
C95   H38   1.114912 S    
C16   H2    1.082850 S    
C52   H32   1.082368 S    
O2    C2    1.283678 A    
C41   O17   1.381325 S    
O8    C4    1.287476 A    
C51   C53   1.397634 A    
C34   C36   1.419066 A    
C98   H47   1.114752 S    
C56   C59   1.387048 A    
C55   C60   1.386209 A    
C81   C92   1.396936 A    
C75   C88   1.431480 A    
C65   O24   1.390483 S    
H8    C54   1.081688 S    
C96   H42   1.109144 S    
C93   H23   1.113150 S    
C46   H10   1.083277 S    
O21   C97   1.412023 S    
C45   H9    1.083247 S    
C100  H56   1.109159 S    
C55   H33   1.085122 S    
C42   O18   1.381375 S    
C11   C19   1.400295 A    
C31   C37   1.412663 A    
O8    Cu1   1.948107 S    
C90   C92   1.392796 A    
C32   C38   1.412639 A    
C2    C57   1.448124 S    
O19   C95   1.412080 S    
C13   C29   1.402627 A    
C33   C35   1.419741 A    
C4    C30   1.470882 S    
C63   C81   1.412563 A    
C21   C27   1.408462 A    
C7    N1    1.368492 A    
O7    Cu2   1.948110 S    
C85   C87   1.422899 A    
C22   C28   1.409003 A    
C43   C53   1.397254 A    
C6    C85   1.417811 A    
C38   H22   1.077822 S    
C50   C52   1.398734 A    
H13   C91   1.083460 S    
C84   C90   1.417710 A    
C28   C39   1.397665 A    
O6    C4    1.289868 A    
C31   C34   1.420886 A    
N3    C73   1.449711 S    
C68   N6    1.359798 A    
N4    C64   1.370804 A    
C32   C33   1.422074 A    
C49   H11   1.083100 S    
C67   N5    1.360054 A    
C65   C67   1.415141 A    
C80   H18   1.083475 S    
C47   C49   1.404576 A    
O3    Cu2   1.962627 S    
C7    C23   1.403553 A    
C5    H3    1.075465 S    
C67   H20   1.080257 S    
C21   C36   1.418393 A    
O4    C2    1.280831 A    
C97   H43   1.110464 S    
N3    C63   1.370737 A    
C58   C60   1.412559 A    
N4    C74   1.449760 S    
N1    C19   1.435450 S    
O7    C3    1.289605 A    
H16   C90   1.075476 S    
C40   H60   1.083369 S    
C95   H37   1.110514 S    
C76   C87   1.431493 A    
C3    C29   1.472392 S    
O1    Cu1   1.962814 S    
C8    O12   1.349707 S    
C26   C42   1.395757 A    
C94   H28   1.108100 S    
C18   O22   1.385325 S    
O22   C98   1.410787 S    
C66   C74   1.407533 A    
O20   C96   1.412305 S    
C98   H48   1.109144 S    
C6    H4    1.075478 S    
C68   H19   1.080448 S    
O6    Cu2   1.949555 S    
C99   H52   1.110513 S    
C96   H41   1.110508 S    
C16   C30   1.405392 A    
C14   C30   1.403451 A    
H14   C92   1.083458 S    
C33   C42   1.426352 A    
N2    C10   1.367178 A    
C70   N6    1.359926 A    
O18   C94   1.409916 S    
C89   C91   1.392726 A    
C34   C41   1.425625 A    
C86   C88   1.422906 A    
C76   C78   1.408303 A    
O17   C93   1.410369 S    
C61   O15   1.348677 S    
C5    C86   1.417806 A    
C52   C54   1.397792 A    
C70   H36   1.080406 S    
C37   H21   1.078302 S    
C64   C82   1.412461 A    
C43   H29   1.081285 S    
C37   C39   1.389802 A    
C12   H5    1.082843 S    
C56   H34   1.085049 S    
C12   C14   1.393280 A    
C32   C36   1.419721 A    
C11   H6    1.082887 S    
C51   H31   1.082393 S    
C22   C24   1.406603 A    
Cu1   N6    1.991761 S    
C100  H54   1.110632 S    
C70   C72   1.413667 A    
C26   H50   1.083724 S    
C31   C35   1.419473 A    
C62   N4    1.370648 A    
C24   C26   1.396819 A    
C17   C19   1.406143 A    
C78   C80   1.396913 A    
C56   C58   1.399487 A    
C9    O14   1.349591 S    
N1    C9    1.368034 A    
O9    C64   1.349243 S    
C79   H17   1.083476 S    
O2    Cu2   1.962814 S    
C72   C74   1.407719 A    
O23   C99   1.412096 S    
C83   C87   1.423026 A    
O10   C63   1.349269 S    
O5    Cu1   1.949555 S    
C12   C20   1.399551 A    
C21   C23   1.406369 A    
C15   C29   1.405220 A    
C57   C59   1.412470 A    
C69   N5    1.359705 A    
C13   H58   1.082900 S    
C62   C78   1.412715 A    
C44   C46   1.397590 A    
H15   C89   1.075461 S    
C76   C82   1.408145 A    
C16   C18   1.404214 A    
C75   C77   1.408293 A    
