data_mof_unit_24773.cif
_audit_creation_date              2012-12-11T15:55:44-0500
_audit_creation_method            fapswitch 2.2
_symmetry_space_group_name_H-M    P1
_symmetry_Int_Tables_number       1
_space_group_crystal_system       triclinic
_cell_length_a                    6.922986
_cell_length_b                    14.570352
_cell_length_c                    16.087074
_cell_angle_alpha                 90.002476
_cell_angle_beta                  90.204013
_cell_angle_gamma                 90.088066
_cell_volume                      1622.69646528

loop_
_atom_site_label
_atom_site_type_symbol
_atom_type_description
_atom_site_fract_x
_atom_site_fract_y
_atom_site_fract_z
_atom_type_partial_charge
O1    O     O_R   0.505680 0.583900 0.413320 -0.510880
O2    O     O_R   0.176010 0.594950 0.586080 -0.551222
O3    O     O_R   0.005680 0.416100 0.586680 -0.541947
C1    C     C_R   0.345368 0.617161 0.614839 0.725551
O4    O     O_R   0.175960 0.594930 0.413930 -0.537933
O5    O     O_R   0.005640 0.416080 0.413300 -0.535392
C2    C     C_R   0.344894 0.617382 0.384881 0.791437
O6    O     O_R   0.505720 0.583920 0.586700 -0.543550
O7    O     O_3   0.339190 0.441320 0.500000 -0.367112
V1    V     V_3+5 0.064350 0.510890 0.500000 1.506221
O8    O     O_R   0.675920 0.405050 0.413920 -0.510164
C3    C     C_R   0.843670 0.384730 0.383364 0.799616
O9    O     O_R   0.675960 0.405070 0.586070 -0.540695
C4    C     C_R   0.844911 0.383033 0.614848 0.722591
V2    V     V_3+5 0.564340 0.489110 0.500000 1.555282
O10   O     O_3   0.839370 0.558680 0.500000 -0.378832
C5    C     C_R   0.987997 0.323951 0.748620 0.124316
C6    C     C_R   0.852472 0.316212 0.684169 -0.184380
C7    C     C_R   0.715463 0.244925 0.690078 -0.197540
H1    H     H_    0.605668 0.237639 0.642369 0.153027
C8    C     C_R   0.727879 0.178033 0.753438 0.363833
C9    C     C_R   0.874396 0.183648 0.815434 -0.164406
C10   C     C_R   0.997247 0.260146 0.812879 -0.017210
C11   C     C_3   0.212287 0.265694 0.817281 -0.400853
C12   C     C_3   0.202292 0.334764 0.746313 0.246217
H2    H     H_    0.281749 0.200130 0.799487 0.203986
H3    H     H_    0.263108 0.294895 0.877357 0.213725
H4    H     H_    0.267752 0.309982 0.687439 0.094398
C13   C     C_R   0.026434 0.201115 0.236234 -0.168691
H5    H     H_    0.152498 0.157361 0.232527 0.133316
C14   C     C_R   0.014728 0.264203 0.301357 -0.161343
H6    H     H_    0.133092 0.267798 0.345468 0.164148
C15   C     C_R   0.850800 0.319630 0.311637 -0.155411
C16   C     C_R   0.699131 0.313381 0.252100 0.408493
C17   C     C_R   0.715013 0.252678 0.183369 0.066367
C18   C     C_R   0.876620 0.192630 0.177754 -0.106356
C19   C     C_R   0.197277 0.695879 0.737208 -0.072961
H7    H     H_    0.067792 0.655526 0.726705 0.136761
C20   C     C_R   0.204661 0.757185 0.804730 0.135232
C21   C     C_R   0.374360 0.810843 0.818581 -0.059480
C22   C     C_R   0.532922 0.797924 0.765329 -0.142013
H8    H     H_    0.663404 0.837946 0.773486 0.146849
C23   C     C_R   0.524648 0.734887 0.699754 -0.155035
H9    H     H_    0.649686 0.727115 0.660099 0.124499
C24   C     C_R   0.355859 0.684092 0.684363 -0.061666
C25   C     C_R   0.213991 0.756913 0.307157 0.124042
C26   C     C_R   0.226416 0.819338 0.240674 -0.129653
H10   H     H_    0.117724 0.872322 0.233914 0.124231
C27   C     C_R   0.379498 0.816151 0.184079 -0.146133
C28   C     C_R   0.521593 0.749022 0.193899 -0.186454
H11   H     H_    0.640240 0.745439 0.150256 0.167252
C29   C     C_R   0.510152 0.684124 0.257794 0.377032
C30   C     C_R   0.355748 0.686565 0.316008 -0.144460
O11   O     O_R   0.229200 0.915950 0.913350 -0.538031
O12   O     O_R   0.559090 0.905000 0.086080 -0.545937
O13   O     O_R   0.729280 0.083880 0.086680 -0.543158
C31   C     C_R   0.390280 0.883304 0.115110 0.706591
O14   O     O_R   0.558920 0.904980 0.913920 -0.536289
O15   O     O_R   0.729110 0.083860 0.913300 -0.512498
C32   C     C_R   0.388619 0.880974 0.886298 0.758050
O16   O     O_R   0.229360 0.915970 0.086730 -0.543605
O17   O     O_3   0.395680 0.058580 0.000030 -0.366239
V3    V     V_3+5 0.670570 0.989070 0.999990 1.457658
O18   O     O_R   0.058820 0.094950 0.913870 -0.538435
C33   C     C_R   0.889518 0.115396 0.883765 0.777077
O19   O     O_R   0.058990 0.094970 0.086020 -0.548814
C34   C     C_R   0.889505 0.119831 0.112661 0.697340
V4    V     V_3+5 0.170560 0.010930 0.999930 1.444650
O20   O     O_3   0.895590 0.941310 0.999960 -0.376742
C35   C     C_3   0.563556 0.254466 0.114965 -0.618149
H12   H     H_    0.631839 0.245677 0.053121 0.182872
H13   H     H_    0.455722 0.199258 0.125514 0.203743
H14   H     H_    0.486853 0.320959 0.110875 0.250113
C36   C     C_3   0.031941 0.761025 0.861611 -0.704052
H15   H     H_    0.923982 0.706993 0.846489 0.203618
H16   H     H_    0.078298 0.750269 0.927042 0.211746
H17   H     H_    0.958334 0.828193 0.855238 0.212406
C37   C     C_3   0.052377 0.769933 0.368838 -0.712296
H18   H     H_    0.970979 0.834360 0.357247 0.187302
H19   H     H_    0.947650 0.712527 0.364198 0.256649
H20   H     H_    0.112086 0.773899 0.432909 0.180909
Cl1   Cl    Cl    0.691390 0.599146 0.258554 -0.605928
Cl2   Cl    Cl    0.573069 0.082166 0.745653 -0.711506
Cl3   Cl    Cl    0.275398 0.447400 0.776553 -0.648544
Cl4   Cl    Cl    0.488052 0.381429 0.262216 -0.617148

loop_
_geom_bond_atom_site_label_1
_geom_bond_atom_site_label_2
_ccdc_geom_bond_type
O19   V4    S    
C21   C32   S    
C22   H8    S    
C4    C6    S    
C7    H1    S    
O16   V4    S    
C11   H3    S    
C1    O6    A    
C18   C34   S    
C26   C27   A    
O11   C32   A    
C12   H4    S    
C13   C18   A    
C13   H5    S    
C36   H16   S    
O18   V4    S    
C7    C8    A    
C19   H7    S    
C11   H2    S    
C6    C7    A    
O5    C3    A    
C37   H19   S    
O11   V4    S    
O14   C32   A    
V2    O10   S    
C27   C31   S    
C16   C17   A    
C20   C36   S    
O8    V2    S    
V3    O20   S    
C17   C35   S    
V4    O20   S    
C36   H17   S    
O12   V3    S    
C12   Cl3   S    
C28   C29   A    
C10   C11   S    
C14   C15   A    
C35   H12   S    
O1    V2    S    
O7    V1    S    
O19   C34   A    
C8    C9    A    
C22   C23   A    
C5    C6    A    
C1    C24   S    
C36   H15   S    
C8    Cl2   S    
C11   C12   S    
C20   C21   A    
O4    C2    A    
C37   H18   S    
C28   H11   S    
C17   C18   A    
O2    C1    A    
C23   H9    S    
C9    C33   S    
O17   V3    S    
C26   H10   S    
C35   H14   S    
C15   C16   A    
O13   V3    S    
C5    C10   A    
C29   Cl1   S    
C23   C24   A    
O3    C4    A    
C21   C22   A    
O6    V2    S    
O9    V2    S    
C2    C30   S    
C19   C24   A    
O2    V1    S    
C29   C30   A    
C25   C37   S    
O14   V3    S    
C25   C26   A    
O1    C2    A    
C14   H6    S    
O5    V1    S    
O8    C3    A    
C31   O16   A    
O13   C34   A    
O15   V3    S    
O17   V4    S    
C5    C12   S    
O18   C33   A    
O12   C31   A    
O7    V2    S    
O4    V1    S    
C19   C20   A    
O3    V1    S    
V1    O10   S    
O15   C33   A    
C37   H20   S    
C25   C30   A    
C13   C14   A    
C27   C28   A    
C9    C10   A    
C35   H13   S    
C3    C15   S    
O9    C4    A    
C16   Cl4   S    
