data_mof_unit_8914.cif
_audit_creation_date              2012-12-10T17:22:11-0500
_audit_creation_method            fapswitch 2.2
_symmetry_space_group_name_H-M    P1
_symmetry_Int_Tables_number       1
_space_group_crystal_system       triclinic
_cell_length_a                    10.20556
_cell_length_b                    10.347871
_cell_length_c                    15.719375
_cell_angle_alpha                 89.748593
_cell_angle_beta                  81.176835
_cell_angle_gamma                 93.01555
_cell_volume                      1638.01106468

loop_
_atom_site_label
_atom_site_type_symbol
_atom_type_description
_atom_site_fract_x
_atom_site_fract_y
_atom_site_fract_z
_atom_type_partial_charge
C1    C     C_R   0.552778 0.735559 0.490875 0.917216
C2    C     C_2   0.497799 0.929944 0.419416 -0.000821
C3    C     C_2   0.424589 0.126676 0.489616 -0.410503
C4    C     C_R   0.499765 0.499475 0.661732 0.901871
C5    C     C_2   0.490107 0.069877 0.419819 -0.014610
C6    C     C_2   0.926951 0.519307 0.501808 0.031086
C7    C     C_2   0.074408 0.500093 0.487470 -0.124400
C8    C     C_R   0.446979 0.264507 0.502600 0.916778
C9    C     C_R   0.500209 0.501032 0.338271 0.906057
C10   C     C_3   0.364513 0.563564 0.963940 -0.436914
C11   C     C_3   0.615948 0.609817 0.939398 0.369334
C12   C     C_3   0.375104 0.579287 0.060723 0.372148
C13   C     C_3   0.626038 0.590673 0.036564 -0.487277
C14   C     C_1   0.501278 0.505744 0.249355 -0.142156
C15   C     C_3   0.498491 0.517160 0.917208 0.196994
C16   C     C_3   0.208497 0.424544 0.128416 0.093877
C17   C     C_3   0.061436 0.417598 0.167279 -0.302765
C18   C     C_3   0.006597 0.277821 0.181501 -0.927216
C19   C     C_1   0.551128 0.142250 0.343485 0.169407
C20   C     C_1   0.418864 0.857046 0.364931 0.210371
C21   C     C_1   0.109384 0.624691 0.605291 0.285066
C22   C     C_3   0.854619 0.236196 0.444130 0.204214
C23   C     C_3   0.500839 0.512126 0.082716 0.156226
C24   C     C_3   0.976963 0.156293 0.442118 -0.418546
C25   C     C_3   0.938707 0.016915 0.471814 -0.946445
C26   C     C_3   0.605923 0.788226 0.841276 0.085812
C27   C     C_3   0.738704 0.765511 0.783649 -0.375028
C28   C     C_3   0.748149 0.837052 0.697499 -0.943753
C29   C     C_3   0.510506 0.373234 0.046955 -0.436850
C30   C     C_3   0.515136 0.377392 0.948839 -0.483392
C31   C     C_1   0.501978 0.509637 0.174002 -0.039194
C32   C     C_1   0.498290 0.509782 0.825896 -0.112724
C33   C     C_1   0.499451 0.503497 0.750550 -0.195310
C34   C     C_2   0.573609 0.873335 0.470799 -0.425961
H1    H     H_    0.397604 0.684755 0.068382 0.150238
H2    H     H_    0.636888 0.686063 0.068105 0.206217
H3    H     H_    0.717440 0.539566 0.043139 0.156920
H4    H     H_    0.435070 0.310045 0.931203 0.193621
H5    H     H_    0.611664 0.342176 0.917077 0.181532
H6    H     H_    0.428143 0.306249 0.076921 0.169623
H7    H     H_    0.263342 0.377614 0.174860 0.151946
H8    H     H_    0.219446 0.370999 0.066942 0.129378
H9    H     H_    0.048620 0.468139 0.230068 0.255687
H10   H     H_    0.003891 0.467226 0.123445 0.219567
H11   H     H_    0.012260 0.227163 0.118997 0.253944
H12   H     H_    0.282031 0.494147 0.953527 0.172565
H13   H     H_    0.901090 0.276417 0.212410 0.290689
H14   H     H_    0.063938 0.225713 0.224116 0.259796
H15   H     H_    0.786969 0.188662 0.403567 0.165908
H16   H     H_    0.802031 0.236932 0.511930 0.135323
H17   H     H_    0.032634 0.155858 0.375622 0.236092
H18   H     H_    0.043289 0.201059 0.484945 0.228496
H19   H     H_    0.882445 0.014673 0.538195 0.260137
H20   H     H_    0.029870 0.962766 0.471583 0.278250
H21   H     H_    0.877088 0.968462 0.427610 0.272330
H22   H     H_    0.595663 0.894514 0.844539 0.171110
H23   H     H_    0.602541 0.330798 0.061962 0.198319
H24   H     H_    0.519694 0.751752 0.811785 0.143031
H25   H     H_    0.822468 0.800105 0.816715 0.237214
H26   H     H_    0.747698 0.661081 0.769633 0.214103
H27   H     H_    0.665012 0.803522 0.663553 0.254609
H28   H     H_    0.843082 0.817502 0.656142 0.277166
H29   H     H_    0.744701 0.943077 0.707557 0.255276
H30   H     H_    0.367717 0.068868 0.541822 0.151200
H31   H     H_    0.639738 0.931309 0.505204 0.148319
H32   H     H_    0.114839 0.439513 0.434767 0.199555
H33   H     H_    0.887595 0.592727 0.546197 0.107131
H34   H     H_    0.342468 0.657926 0.936524 0.172364
H35   H     H_    0.711901 0.581913 0.902562 0.076475
N1    N     N_2   0.842720 0.448890 0.465540 0.072081
N2    N     N_2   0.157250 0.551040 0.534500 -0.149408
N3    N     N_1   0.599839 0.199402 0.282300 -0.227203
N4    N     N_1   0.355703 0.799415 0.321335 -0.191416
N5    N     N_1   0.070208 0.685849 0.664312 -0.268902
O1    O     O_R   0.431050 0.692470 0.506940 -0.592508
O2    O     O_3   0.894876 0.360538 0.409139 -0.581203
O3    O     O_3   0.597112 0.744166 0.927706 -0.656146
O4    O     O_R   0.651130 0.659650 0.484820 -0.611634
O5    O     O_R   0.389910 0.516410 0.633920 -0.605150
O6    O     O_R   0.609990 0.483590 0.611800 -0.630536
O7    O     O_R   0.348870 0.340350 0.515180 -0.608712
O8    O     O_R   0.568950 0.307530 0.493060 -0.619193
O9    O     O_R   0.390010 0.516410 0.388200 -0.610250
O10   O     O_R   0.610090 0.483590 0.366080 -0.579413
O11   O     O_3   0.252587 0.556033 0.117165 -0.636863
Zn1   Zn    Zn3+2 0.353060 0.521920 0.514770 0.957115
Zn2   Zn    Zn3+2 0.646940 0.478080 0.485230 0.972617

loop_
_geom_bond_atom_site_label_1
_geom_bond_atom_site_label_2
_ccdc_geom_bond_type
O4    Zn2   S    
C24   H18   S    
C20   N4    T    
O10   Zn2   S    
C22   O2    S    
C14   C31   T    
C18   H13   S    
C15   C32   S    
C3    H30   S    
C12   C23   S    
C13   C23   S    
C26   C27   S    
C12   O11   S    
C21   N2    S    
C8    O8    A    
C23   C29   S    
C25   H19   S    
C4    O6    A    
O6    Zn2   S    
C27   H26   S    
C7    N2    D    
O8    Zn2   S    
C30   H4    S    
C11   O3    S    
C11   C15   S    
C16   C17   S    
C10   H12   S    
C13   H3    S    
O7    Zn1   S    
C22   H16   S    
C28   H27   S    
C2    C34   D    
C24   H17   S    
C1    O4    A    
C19   N3    T    
N1    Zn2   S    
C34   H31   S    
C1    C34   S    
C26   O3    S    
C2    C20   S    
C8    O7    A    
C1    O1    A    
C24   C25   S    
C4    O5    A    
C3    C8    S    
C21   N5    T    
C26   H22   S    
C23   C31   S    
C9    C14   S    
C17   H9    S    
C29   C30   S    
N2    Zn1   S    
O1    Zn1   S    
C17   C18   S    
C25   H20   S    
C12   H1    S    
C26   H24   S    
C10   C12   S    
C9    O9    A    
C22   H15   S    
C6    H33   S    
C29   H23   S    
N1    O2    S    
C16   O11   S    
C22   C24   S    
C2    C5    S    
C18   H11   S    
C16   H8    S    
C15   C30   S    
C6    N1    D    
C4    C33   S    
C25   H21   S    
C3    C5    D    
C18   H14   S    
C13   H2    S    
C11   H35   S    
C6    C7    S    
C5    C19   S    
C10   H34   S    
C10   C15   S    
C32   C33   T    
C17   H10   S    
C27   H25   S    
C7    H32   S    
C11   C13   S    
C29   H6    S    
C30   H5    S    
C9    O10   A    
C28   H29   S    
O9    Zn1   S    
C27   C28   S    
C16   H7    S    
O5    Zn1   S    
C28   H28   S    
