data_mof_unit_11558.cif
_audit_creation_date              2012-12-10T22:11:10-0500
_audit_creation_method            fapswitch 2.2
_symmetry_space_group_name_H-M    P1
_symmetry_Int_Tables_number       1
_space_group_crystal_system       triclinic
_cell_length_a                    12.127169
_cell_length_b                    12.289496
_cell_length_c                    22.961801
_cell_angle_alpha                 90.52313
_cell_angle_beta                  90.592477
_cell_angle_gamma                 90.470795
_cell_volume                      3421.7094226

loop_
_atom_site_label
_atom_site_type_symbol
_atom_type_description
_atom_site_fract_x
_atom_site_fract_y
_atom_site_fract_z
_atom_type_partial_charge
C1    C     C_R   0.658753 0.997597 0.578709 0.866012
C2    C     C_R   0.341247 0.002403 0.421291 0.866011
C3    C     C_R   0.891822 0.779209 0.144129 -0.199037
C4    C     C_R   0.108177 0.220798 0.855867 -0.199036
C5    C     C_R   0.089016 0.885071 0.174764 -0.164189
C6    C     C_R   0.910986 0.114922 0.825240 -0.164185
C7    C     C_R   0.088789 0.804948 0.132298 -0.196488
C8    C     C_R   0.911212 0.195045 0.867706 -0.196488
C9    C     C_R   0.898301 0.130936 0.177192 -0.165067
C10   C     C_R   0.101697 0.869069 0.822811 -0.165063
C11   C     C_R   0.899369 0.213615 0.136964 -0.198078
C12   C     C_R   0.100630 0.786390 0.863039 -0.198078
C13   C     C_R   0.145148 0.907825 0.304571 -0.185810
C14   C     C_R   0.854845 0.092174 0.695432 -0.185816
C15   C     C_R   0.226905 0.908790 0.347041 -0.207600
C16   C     C_R   0.773088 0.091209 0.652963 -0.207599
C17   C     C_R   0.843791 0.101338 0.305645 -0.187310
C18   C     C_R   0.156216 0.898663 0.694359 -0.187317
C19   C     C_R   0.764613 0.100177 0.348425 -0.193578
C20   C     C_R   0.235394 0.899824 0.651578 -0.193577
C21   C     C_3   0.993153 0.005175 0.247494 -0.104900
C22   C     C_3   0.006846 0.994825 0.752506 -0.104899
C23   C     C_R   0.654445 0.001695 0.420564 0.867181
C24   C     C_R   0.345555 0.998305 0.579435 0.867180
C25   C     C_R   0.090491 0.004372 0.289903 0.108696
C26   C     C_R   0.909509 0.995628 0.710097 0.108696
C27   C     C_R   0.252969 0.004973 0.377618 -0.081094
C28   C     C_R   0.747031 0.995027 0.622382 -0.081091
C29   C     C_R   0.894961 0.004047 0.288113 0.125169
C30   C     C_R   0.105038 0.995953 0.711887 0.125169
C31   C     C_R   0.736947 0.002463 0.375530 -0.025527
C32   C     C_R   0.263053 0.997537 0.624470 -0.025524
C33   C     C_R   0.995200 0.103254 0.207609 0.128343
C34   C     C_R   0.004800 0.896746 0.792391 0.128342
C35   C     C_R   0.998224 0.267749 0.124645 -0.025765
C36   C     C_R   0.001775 0.732251 0.875355 -0.025763
C37   C     C_R   0.991769 0.910093 0.204702 0.127401
C38   C     C_R   0.008231 0.089907 0.795298 0.127401
C39   C     C_R   0.990526 0.750502 0.117440 -0.024245
C40   C     C_R   0.009474 0.249497 0.882561 -0.024243
C41   C     C_R   0.992582 0.662747 0.074929 0.869739
C42   C     C_R   0.007418 0.337253 0.925071 0.869739
C43   C     C_R   0.999085 0.351982 0.080948 0.869787
C44   C     C_R   0.000915 0.648018 0.919052 0.869786
C45   C     C_R   0.113484 0.099450 0.322457 -0.196731
C46   C     C_R   0.886521 0.900552 0.677540 -0.196728
C47   C     C_R   0.193527 0.100960 0.365835 -0.010287
C48   C     C_R   0.806478 0.899042 0.634161 -0.010290
C49   C     C_R   0.868603 0.906902 0.317116 -0.159023
C50   C     C_R   0.131391 0.093097 0.682880 -0.159020
C51   C     C_R   0.789047 0.905765 0.359704 -0.196739
C52   C     C_R   0.210947 0.094233 0.640293 -0.196741
C53   C     C_R   0.095049 0.155613 0.193228 -0.180326
C54   C     C_R   0.904952 0.844380 0.806768 -0.180332
C55   C     C_R   0.096131 0.238202 0.152715 -0.197944
C56   C     C_R   0.903870 0.761791 0.847282 -0.197944
C57   C     C_R   0.892047 0.859483 0.186801 -0.183125
C58   C     C_R   0.107952 0.140524 0.813196 -0.183131
H1    H     H_    0.911209 0.831943 0.307334 0.139594
H2    H     H_    0.088780 0.168054 0.692660 0.139595
H3    H     H_    0.173130 0.131405 0.211999 0.139571
H4    H     H_    0.826871 0.868584 0.787994 0.139574
H5    H     H_    0.813583 0.882728 0.204851 0.139207
H6    H     H_    0.186416 0.117284 0.795143 0.139209
H7    H     H_    0.165572 0.927802 0.184389 0.136786
H8    H     H_    0.834430 0.072186 0.815617 0.136787
H9    H     H_    0.821508 0.087850 0.184454 0.136495
H10   H     H_    0.178488 0.912160 0.815551 0.136496
H11   H     H_    0.123769 0.830647 0.284303 0.144837
H12   H     H_    0.876219 0.169352 0.715703 0.144839
H13   H     H_    0.867114 0.179388 0.288023 0.142083
H14   H     H_    0.132898 0.820613 0.711982 0.142085
H15   H     H_    0.770191 0.829689 0.381029 0.162474
H16   H     H_    0.229797 0.170309 0.618965 0.162472
H17   H     H_    0.173830 0.277592 0.142775 0.157282
H18   H     H_    0.826172 0.722397 0.857218 0.157281
H19   H     H_    0.814574 0.739729 0.132165 0.156817
H20   H     H_    0.185425 0.260283 0.867828 0.156816
H21   H     H_    0.165686 0.786132 0.110996 0.158491
H22   H     H_    0.834316 0.213856 0.889011 0.158489
H23   H     H_    0.823055 0.233372 0.114691 0.158779
H24   H     H_    0.176942 0.766639 0.885315 0.158778
H25   H     H_    0.269135 0.833434 0.356211 0.166761
H26   H     H_    0.730853 0.166563 0.643795 0.166759
H27   H     H_    0.726248 0.176151 0.360756 0.160412
H28   H     H_    0.273764 0.823851 0.639250 0.160411
H29   H     H_    0.067087 0.172919 0.314388 0.139861
H30   H     H_    0.932922 0.827084 0.685606 0.139863
O1    O     O_R   0.621380 0.090460 0.561410 -0.625862
O2    O     O_R   0.378620 0.909540 0.438590 -0.625862
O3    O     O_R   0.617150 0.909540 0.438590 -0.626962
O4    O     O_R   0.382850 0.090460 0.561410 -0.626963
O5    O     O_R   0.619720 0.093230 0.440890 -0.627875
O6    O     O_R   0.380280 0.906770 0.559110 -0.627875
O7    O     O_R   0.618800 0.906770 0.559110 -0.614218
O8    O     O_R   0.381200 0.093230 0.440890 -0.614217
O9    O     O_R   0.087590 0.627480 0.058790 -0.630351
O10   O     O_R   0.912410 0.372520 0.941210 -0.630350
O11   O     O_R   0.905660 0.383870 0.059980 -0.630284
O12   O     O_R   0.094340 0.616130 0.940020 -0.630284
O13   O     O_R   0.092570 0.390420 0.063230 -0.626680
O14   O     O_R   0.907430 0.609580 0.936770 -0.626680
O15   O     O_R   0.900680 0.620930 0.055550 -0.627017
O16   O     O_R   0.099320 0.379070 0.944450 -0.627016
Zn1   Zn    Zn3+2 0.501730 0.123520 0.501540 0.966757
Zn2   Zn    Zn3+2 0.498270 0.876480 0.498460 0.966757
Zn3   Zn    Zn3+2 0.125690 0.504390 0.002180 0.938387
Zn4   Zn    Zn3+2 0.874310 0.495610 0.997820 0.938386
C59   C     C_1   0.208422 0.201387 0.398395 0.190391
N1    N     N_1   0.219984 0.281896 0.424376 -0.205201
C60   C     C_1   0.791590 0.798618 0.601598 0.190389
N2    N     N_1   0.780033 0.718111 0.575615 -0.205200

loop_
_geom_bond_atom_site_label_1
_geom_bond_atom_site_label_2
_ccdc_geom_bond_type
C16   C28   A    
O8    Zn1   S    
O13   Zn3   S    
C56   H18   S    
C23   O3    A    
C5    C37   A    
C17   C29   A    
C60   N2    T    
C19   C31   A    
C43   O13   A    
C39   C41   S    
C29   C49   A    
C11   H23   S    
O11   Zn4   S    
C45   H29   S    
C43   O11   A    
C52   H16   S    
C42   O10   A    
C21   C33   S    
C22   C38   S    
C16   H26   S    
O10   Zn4   S    
C45   C47   A    
C24   C32   S    
C2    O2    A    
C32   C52   A    
O5    Zn1   S    
C38   C58   A    
C53   H3    S    
O6    Zn2   S    
C4    C40   A    
C49   C51   A    
C18   H14   S    
C20   H28   S    
C1    C28   S    
C50   C52   A    
C6    C38   A    
O14   Zn4   S    
O15   Zn4   S    
C18   C30   A    
C12   C36   A    
C35   C43   S    
C18   C20   A    
C55   H17   S    
C40   C42   S    
C30   C50   A    
C3    C39   A    
C9    C33   A    
C14   H12   S    
O3    Zn2   S    
C13   C25   A    
C24   O4    A    
C57   H5    S    
C46   H30   S    
C53   C55   A    
C33   C53   A    
C22   C34   S    
C46   C48   A    
C35   C55   A    
O2    Zn2   S    
C5    H7    S    
C5    C7    A    
C44   O14   A    
C15   H25   S    
C54   H4    S    
C58   H6    S    
C47   C59   S    
C21   C29   S    
C23   O5    A    
C23   C31   S    
C9    H9    S    
C4    H20   S    
C36   C56   A    
O7    Zn2   S    
C24   O6    A    
C15   C27   A    
C1    O7    A    
C12   H24   S    
C10   C34   A    
C14   C26   A    
C9    C11   A    
C2    C27   S    
C10   C12   A    
C3    C57   A    
C17   H13   S    
C13   C15   A    
C14   C16   A    
C36   C44   S    
O1    Zn1   S    
C3    H19   S    
C25   C45   A    
C7    H21   S    
C20   C32   A    
C27   C47   A    
C21   C25   S    
C28   C48   A    
O12   Zn3   S    
C1    O1    A    
C22   C30   S    
C51   H15   S    
C31   C51   A    
C19   H27   S    
C42   O16   A    
C6    C8    A    
C54   C56   A    
C34   C54   A    
C10   H10   S    
C49   H1    S    
C50   H2    S    
C2    O8    A    
C59   N1    T    
C44   O12   A    
C13   H11   S    
C11   C35   A    
C17   C19   A    
C41   O9    A    
C26   C46   A    
O9    Zn3   S    
C41   O15   A    
O4    Zn1   S    
C6    H8    S    
C48   C60   S    
C21   C37   S    
C22   C26   S    
C4    C58   A    
C8    H22   S    
C7    C39   A    
C8    C40   A    
O16   Zn3   S    
C37   C57   A    
