data_mof_unit_50849.cif
_audit_creation_date              2012-12-10T17:50:43-0500
_audit_creation_method            fapswitch 2.2
_symmetry_space_group_name_H-M    P1
_symmetry_Int_Tables_number       1
_space_group_crystal_system       triclinic
_cell_length_a                    14.648578
_cell_length_b                    14.62802
_cell_length_c                    15.850403
_cell_angle_alpha                 77.081177
_cell_angle_beta                  102.602149
_cell_angle_gamma                 115.105945
_cell_volume                      2968.28759992

loop_
_atom_site_label
_atom_site_type_symbol
_atom_type_description
_atom_site_fract_x
_atom_site_fract_y
_atom_site_fract_z
_atom_type_partial_charge
C1    C     C_R   0.879683 0.311756 0.513214 0.809069
C2    C     C_R   0.119824 0.688054 0.482991 0.806959
C3    C     C_R   0.775706 0.022074 0.546135 0.206484
C4    C     C_R   0.212787 0.964410 0.380611 0.196700
C5    C     C_R   0.844829 0.124820 0.535780 -0.212961
C6    C     C_R   0.147529 0.865424 0.411355 -0.190441
C7    C     C_R   0.705387 0.178920 0.498271 -0.216839
C8    C     C_R   0.290253 0.828192 0.490255 -0.226962
C9    C     C_R   0.635684 0.077876 0.500451 0.022201
C10   C     C_R   0.356273 0.930719 0.473745 0.033094
C11   C     C_R   0.669969 0.999593 0.542530 0.081556
C12   C     C_R   0.318790 0.000911 0.415896 0.049846
C13   C     C_R   0.531067 0.053791 0.469816 -0.021843
C14   C     C_R   0.460819 0.961711 0.508690 -0.003282
C15   C     C_R   0.498122 0.903419 0.581618 0.094903
C16   C     C_R   0.494235 0.117446 0.401651 0.145350
C17   C     C_R   0.599334 0.910389 0.587642 0.084067
C18   C     C_R   0.390211 0.101261 0.391218 0.093664
C19   C     C_R   0.714825 0.667186 0.352687 0.052947
C20   C     C_R   0.282831 0.331247 0.649230 0.052552
C21   C     C_R   0.792085 0.630308 0.371830 0.075224
C22   C     C_R   0.201155 0.361834 0.622867 0.074324
C23   C     C_R   0.999457 0.500032 0.660074 0.834388
C24   C     C_R   0.000501 0.499929 0.339924 0.828423
C25   C     C_R   0.723123 0.522885 0.497111 0.006680
C26   C     C_R   0.287384 0.489994 0.514176 0.011885
C27   C     C_R   0.632021 0.539693 0.472897 -0.063813
C28   C     C_R   0.378562 0.473491 0.545134 -0.065830
C29   C     C_R   0.627684 0.613369 0.397510 0.010149
C30   C     C_R   0.376855 0.395077 0.616809 0.014844
C31   C     C_R   0.547585 0.489867 0.522699 -0.008900
C32   C     C_R   0.468614 0.527912 0.503625 -0.012932
C33   C     C_R   0.478514 0.613885 0.438282 0.168840
C34   C     C_R   0.539944 0.407480 0.593332 0.171256
C35   C     C_R   0.539512 0.635347 0.373947 0.143549
C36   C     C_R   0.467893 0.380302 0.650030 0.144863
C37   C     C_3   0.938904 0.406751 0.035074 -0.158538
C38   C     C_3   0.060322 0.592952 0.964844 -0.158750
C39   C     C_3   0.904030 0.476383 0.958173 -0.160275
C40   C     C_3   0.095193 0.523321 0.041731 -0.158274
C41   C     C_1   0.998424 0.500183 0.749632 -0.188796
C42   C     C_1   0.001344 0.499654 0.250356 -0.185586
C43   C     C_3   0.033622 0.430390 0.992463 -0.157743
C44   C     C_3   0.965605 0.569315 0.007456 -0.158577
C45   C     C_3   0.998758 0.500020 0.917111 0.194289
C46   C     C_3   0.000482 0.499686 0.082804 0.194069
C47   C     C_1   0.998230 0.500163 0.825228 -0.079509
C48   C     C_1   0.001265 0.499594 0.174724 -0.078551
C49   C     C_R   0.809890 0.203438 0.517741 -0.105255
C50   C     C_R   0.186230 0.796354 0.464004 -0.106880
Cu1   Cu    Cu3+1 0.081740 0.475690 0.522610 0.927933
Cu2   Cu    Cu3+1 0.918260 0.524310 0.477390 0.926271
H1    H     H_    0.825582 0.457155 0.922475 0.129359
H2    H     H_    0.173636 0.542560 0.077427 0.128028
H3    H     H_    0.279979 0.541795 0.455737 0.155225
H4    H     H_    0.740162 0.482575 0.559535 0.163494
H5    H     H_    0.131571 0.319618 0.651596 0.135105
H6    H     H_    0.855531 0.664302 0.334869 0.134273
H7    H     H_    0.889116 0.330314 0.065295 0.128273
H8    H     H_    0.110109 0.669395 0.934633 0.127995
H9    H     H_    0.937719 0.626354 0.014995 0.127681
H10   H     H_    0.061506 0.373347 0.984931 0.127967
H11   H     H_    0.320173 0.771119 0.520327 0.160802
H12   H     H_    0.677368 0.238593 0.486233 0.157802
H13   H     H_    0.067097 0.838732 0.386187 0.153454
H14   H     H_    0.925670 0.143274 0.541942 0.155515
N1    N     N_R   0.795440 0.560790 0.443380 -0.202941
N2    N     N_R   0.204560 0.439210 0.556620 -0.201247
O1    O     O_R   0.977900 0.338120 0.529810 -0.589273
O2    O     O_R   0.022100 0.661880 0.470190 -0.583733
O3    O     O_R   0.839850 0.379180 0.491620 -0.585480
O4    O     O_R   0.160150 0.620820 0.508380 -0.586725
O5    O     O_R   0.069010 0.479460 0.640020 -0.578781
O6    O     O_R   0.930990 0.520540 0.359980 -0.584453
O7    O     O_R   0.930960 0.520530 0.601820 -0.582005
O8    O     O_R   0.069040 0.479470 0.398180 -0.577425
C51   C     C_3   0.735968 0.770667 0.295138 -0.451223
C52   C     C_3   0.839423 0.852269 0.324820 -0.837794
H15   H     H_    0.849360 0.852696 0.396251 0.261716
H16   H     H_    0.902431 0.838909 0.308959 0.234571
H17   H     H_    0.844121 0.928705 0.290107 0.243802
H18   H     H_    0.732959 0.762682 0.226395 0.198717
H19   H     H_    0.679780 0.801679 0.297544 0.216660
C53   C     C_3   0.261289 0.224829 0.700935 -0.452644
C54   C     C_3   0.174080 0.142365 0.652890 -0.830113
H20   H     H_    0.100497 0.149124 0.648589 0.238871
H21   H     H_    0.189803 0.148205 0.585959 0.258653
H22   H     H_    0.166722 0.065735 0.689033 0.241687
H23   H     H_    0.327229 0.203465 0.711231 0.214715
H24   H     H_    0.242076 0.221729 0.765847 0.198228
C55   C     C_3   0.444342 0.695770 0.445208 -0.916982
H25   H     H_    0.509089 0.771423 0.439190 0.234378
H26   H     H_    0.381558 0.698961 0.392463 0.237606
H27   H     H_    0.420972 0.684194 0.510093 0.227952
C56   C     C_3   0.590295 0.333368 0.602706 -0.919675
H28   H     H_    0.536175 0.253946 0.621763 0.230062
H29   H     H_    0.610715 0.332344 0.539835 0.230522
H30   H     H_    0.657655 0.350143 0.654080 0.236351
C57   C     C_3   0.630538 0.828903 0.648971 -0.384825
C58   C     C_3   0.698836 0.867502 0.732512 -0.835534
H31   H     H_    0.767034 0.937465 0.717850 0.259185
H32   H     H_    0.657122 0.885562 0.772602 0.242324
H33   H     H_    0.724252 0.807443 0.772041 0.235733
H34   H     H_    0.562651 0.760414 0.667886 0.188155
H35   H     H_    0.666735 0.797520 0.615289 0.211026
C59   C     C_3   0.359048 0.192080 0.360478 -0.431484
C60   C     C_3   0.424407 0.281677 0.410273 -0.837194
H36   H     H_    0.419671 0.255937 0.481083 0.268581
H37   H     H_    0.504763 0.314070 0.398477 0.250030
H38   H     H_    0.395173 0.343125 0.388318 0.247131
H39   H     H_    0.361051 0.218063 0.289317 0.196842
H40   H     H_    0.281199 0.171478 0.373745 0.231069
C61   C     C_3   0.815644 0.942404 0.546471 -0.904209
H41   H     H_    0.886082 0.976612 0.515186 0.229431
H42   H     H_    0.835403 0.908178 0.613914 0.245660
H43   H     H_    0.759539 0.883061 0.507025 0.232343
C62   C     C_3   0.167978 0.017262 0.299807 -0.928543
H44   H     H_    0.107770 0.960479 0.259983 0.231730
H45   H     H_    0.131900 0.061683 0.318284 0.231930
H46   H     H_    0.225542 0.065679 0.255860 0.236256
C63   C     C_3   0.440809 0.855060 0.661496 -0.386322
C64   C     C_3   0.403002 0.926642 0.687037 -0.823930
H47   H     H_    0.466169 0.002545 0.692999 0.249888
H48   H     H_    0.339541 0.936261 0.638346 0.259878
H49   H     H_    0.374363 0.893930 0.751075 0.230745
H50   H     H_    0.377141 0.780636 0.653295 0.189601
H51   H     H_    0.491001 0.838184 0.720148 0.212150
C65   C     C_3   0.556814 0.187748 0.329187 -0.384178
C66   C     C_3   0.594314 0.130215 0.284529 -0.838154
H52   H     H_    0.652173 0.105923 0.329353 0.262266
H53   H     H_    0.529471 0.061953 0.261905 0.247986
H54   H     H_    0.630005 0.180911 0.226929 0.236157
H55   H     H_    0.509904 0.219573 0.276848 0.204119
H56   H     H_    0.621430 0.255433 0.351623 0.197766
C67   C     C_3   0.499967 0.667109 0.279775 -0.421179
C68   C     C_3   0.394186 0.589021 0.250365 -0.833517
H57   H     H_    0.395928 0.512287 0.258620 0.249830
H58   H     H_    0.336848 0.584664 0.288398 0.252072
H59   H     H_    0.370146 0.611751 0.180240 0.233464
H60   H     H_    0.496805 0.743067 0.272606 0.205879
H61   H     H_    0.549219 0.671265 0.233811 0.203024
C69   C     C_3   0.496102 0.349068 0.747315 -0.416256
C70   C     C_3   0.591379 0.433131 0.785870 -0.831757
H62   H     H_    0.658894 0.446940 0.756228 0.252666
H63   H     H_    0.579513 0.505306 0.774677 0.250068
H64   H     H_    0.607185 0.410021 0.857384 0.232636
H65   H     H_    0.435053 0.336405 0.784846 0.201584
H66   H     H_    0.508814 0.277374 0.758784 0.203066

loop_
_geom_bond_atom_site_label_1
_geom_bond_atom_site_label_2
_ccdc_geom_bond_type
C70   H64   S    
C27   C29   A    
C62   H44   S    
C24   C42   S    
C56   H28   S    
C25   N1    A    
C25   H4    S    
Cu2   O7    S    
C65   C66   S    
C22   H5    S    
C56   H30   S    
C67   C68   S    
C20   C30   A    
C51   C52   S    
C40   C46   S    
C1    O3    A    
C19   C21   A    
C63   H51   S    
Cu2   O6    S    
C62   H45   S    
C52   H16   S    
C59   C60   S    
C51   H19   S    
C70   H62   S    
C70   H63   S    
C19   C51   S    
C9    C13   A    
C38   C45   S    
C36   C69   S    
C2    C50   S    
C61   H41   S    
C6    H13   S    
C31   C32   A    
C60   H36   S    
C4    C12   A    
C15   C63   S    
C39   C45   S    
C66   H54   S    
C45   C47   S    
C57   H34   S    
C13   C14   A    
C26   H3    S    
C60   H37   S    
C5    C49   A    
C53   H24   S    
C23   O5    A    
C68   H59   S    
C2    O4    A    
C44   C46   S    
C59   H39   S    
C54   H21   S    
C67   H60   S    
C57   H35   S    
C46   C48   S    
C27   C31   A    
Cu1   Cu2   S    
C69   H66   S    
C28   C32   A    
C3    C11   A    
C34   C56   S    
C7    C49   A    
C4    C6    A    
C3    C61   S    
C62   H46   S    
C35   C67   S    
C55   H25   S    
C52   H15   S    
C24   O8    A    
C59   H40   S    
C54   H20   S    
C17   C57   S    
C58   H33   S    
C1    O1    A    
C37   C43   S    
C18   C59   S    
C38   C44   S    
C65   H56   S    
C55   H26   S    
C9    C11   A    
C57   C58   S    
C67   H61   S    
C40   C43   S    
C58   H32   S    
C41   C47   T    
C31   C34   A    
C16   C18   A    
C42   C48   T    
C53   C54   S    
C43   C45   S    
C22   N2    A    
C63   C64   S    
C37   H7    S    
Cu2   N1    S    
C10   C12   A    
C38   H8    S    
C68   H58   S    
C20   C22   A    
C40   H2    S    
C20   C53   S    
C10   C14   A    
C60   H38   S    
C4    C62   S    
Cu1   O4    S    
C64   H48   S    
C19   C29   A    
C8    C50   A    
C66   H52   S    
C54   H22   S    
C7    C9    A    
C11   C17   A    
C6    C50   A    
C14   C15   A    
C69   H65   S    
Cu1   O5    S    
C23   O7    A    
C5    H14   S    
C3    C5    A    
C56   H29   S    
C15   C17   A    
C39   C44   S    
C44   H9    S    
C25   C27   A    
C29   C35   A    
C26   C28   A    
C23   C41   S    
C30   C36   A    
C26   N2    A    
C32   C33   A    
C61   H43   S    
C64   H49   S    
C28   C30   A    
C64   H47   S    
C63   H50   S    
C37   C39   S    
Cu2   O3    S    
C65   H55   S    
C55   H27   S    
C38   C40   S    
C52   H17   S    
C24   O6    A    
C39   H1    S    
C51   H18   S    
C58   H31   S    
C33   C35   A    
C34   C36   A    
Cu1   N2    S    
C16   C65   S    
C7    H12   S    
Cu2   O2    S    
C8    H11   S    
C21   H6    S    
C8    C10   A    
C53   H23   S    
C13   C16   A    
C12   C18   A    
Cu1   O8    S    
C69   C70   S    
C68   H57   S    
Cu1   O1    S    
C66   H53   S    
C37   C46   S    
C2    O2    A    
C1    C49   S    
C21   N1    A    
C43   H10   S    
C61   H42   S    
C33   C55   S    
