data_mof_unit_63601.cif
_audit_creation_date              2012-12-10T19:09:10-0500
_audit_creation_method            fapswitch 2.2
_symmetry_space_group_name_H-M    P1
_symmetry_Int_Tables_number       1
_space_group_crystal_system       triclinic
_cell_length_a                    30.251683
_cell_length_b                    30.251674
_cell_length_c                    18.251326
_cell_angle_alpha                 89.999983
_cell_angle_beta                  90.000047
_cell_angle_gamma                 90.0
_cell_volume                      16702.9574578

loop_
_atom_site_label
_atom_site_type_symbol
_atom_type_description
_atom_site_fract_x
_atom_site_fract_y
_atom_site_fract_z
_atom_type_partial_charge
C1    C     C_R   0.225760 1.000000 0.500000 0.086989
C2    C     C_R   0.000000 0.225760 0.500000 0.086990
C3    C     C_R   0.774240 0.000000 0.500000 0.086989
C4    C     C_R   0.000000 0.774240 0.500000 0.086989
C5    C     C_R   0.725760 0.500000 0.000000 0.086989
C6    C     C_R   0.500000 0.725760 1.000000 0.086990
C7    C     C_R   0.274240 0.500000 1.000000 0.086990
C8    C     C_R   0.500000 0.274240 0.000000 0.086990
C9    C     C_R   0.203158 0.033388 0.462978 -0.176349
C10   C     C_R   0.966613 0.203158 0.462976 -0.176349
C11   C     C_R   0.796842 0.966612 0.462978 -0.176348
C12   C     C_R   0.033388 0.796842 0.462978 -0.176348
C13   C     C_R   0.796842 0.033388 0.537022 -0.176348
C14   C     C_R   0.033387 0.203158 0.537023 -0.176349
C15   C     C_R   0.203158 0.966612 0.537023 -0.176349
C16   C     C_R   0.966612 0.796842 0.537022 -0.176348
C17   C     C_R   0.703158 0.533388 0.962978 -0.176348
C18   C     C_R   0.466613 0.703158 0.962975 -0.176349
C19   C     C_R   0.296842 0.466612 0.962978 -0.176348
C20   C     C_R   0.533388 0.296842 0.962977 -0.176348
C21   C     C_R   0.296842 0.533388 0.037021 -0.176349
C22   C     C_R   0.533387 0.703158 0.037024 -0.176349
C23   C     C_R   0.703158 0.466612 0.037022 -0.176348
C24   C     C_R   0.466612 0.296842 0.037023 -0.176349
C25   C     C_R   0.157244 0.033641 0.462655 -0.018674
C26   C     C_R   0.966359 0.157244 0.462654 -0.018674
C27   C     C_R   0.842755 0.966359 0.462655 -0.018674
C28   C     C_R   0.033641 0.842755 0.462655 -0.018674
C29   C     C_R   0.842756 0.033641 0.537344 -0.018674
C30   C     C_R   0.033640 0.157244 0.537346 -0.018674
C31   C     C_R   0.157244 0.966359 0.537345 -0.018674
C32   C     C_R   0.966359 0.842756 0.537345 -0.018674
C33   C     C_R   0.657244 0.533641 0.962655 -0.018674
C34   C     C_R   0.466360 0.657245 0.962653 -0.018673
C35   C     C_R   0.342755 0.466359 0.962656 -0.018674
C36   C     C_R   0.533641 0.342755 0.962655 -0.018674
C37   C     C_R   0.342756 0.533641 0.037344 -0.018674
C38   C     C_R   0.533640 0.657245 0.037347 -0.018674
C39   C     C_R   0.657244 0.466359 0.037345 -0.018674
C40   C     C_R   0.466359 0.342755 0.037345 -0.018673
C41   C     C_R   0.134115 0.000000 0.500000 -0.107427
C42   C     C_R   0.000000 0.134116 0.500000 -0.107427
C43   C     C_R   0.865884 1.000000 0.500000 -0.107427
C44   C     C_R   0.000000 0.865884 0.500000 -0.107427
C45   C     C_R   0.634116 0.500000 0.000000 -0.107427
C46   C     C_R   0.500000 0.634116 1.000000 -0.107428
C47   C     C_R   0.365884 0.500000 1.000000 -0.107427
C48   C     C_R   0.500000 0.365884 0.000000 -0.107427
C49   C     C_R   0.413869 0.000000 0.500000 0.878234
C50   C     C_R   0.000000 0.413870 0.500000 0.878235
C51   C     C_R   0.586130 0.000000 0.500000 0.878233
C52   C     C_R   0.000000 0.586130 0.500000 0.878233
C53   C     C_R   0.913870 0.500000 0.000000 0.878234
C54   C     C_R   0.500000 0.913870 0.000000 0.878236
C55   C     C_R   0.086130 0.500000 1.000000 0.878233
C56   C     C_R   0.500000 0.086130 0.000000 0.878233
C57   C     C_R   0.500000 0.000000 0.358953 0.928157
C58   C     C_R   1.000000 0.500000 0.358953 0.928157
C59   C     C_R   0.500000 0.000000 0.641047 0.928157
C60   C     C_R   0.000000 0.500000 0.641047 0.928157
C61   C     C_R   1.000000 0.500000 0.858953 0.928157
C62   C     C_R   0.500000 0.000000 0.858953 0.928157
C63   C     C_R   1.000000 0.500000 0.141047 0.928157
C64   C     C_R   0.500000 1.000000 0.141047 0.928157
C65   C     C_R   1.000000 0.913777 0.500000 0.876440
C66   C     C_R   0.086223 1.000000 0.500000 0.876440
C67   C     C_R   0.000000 0.086223 0.500000 0.876440
C68   C     C_R   0.913777 1.000000 0.500000 0.876440
C69   C     C_R   0.500000 0.413777 0.000000 0.876440
C70   C     C_R   0.586223 0.500000 0.000000 0.876440
C71   C     C_R   0.500000 0.586223 0.000000 0.876440
C72   C     C_R   0.413777 0.500000 1.000000 0.876440
C73   C     C_1   0.500000 0.000000 0.282418 -0.156252
C74   C     C_1   1.000000 0.500000 0.282418 -0.156252
C75   C     C_1   0.500000 1.000000 0.717581 -0.156253
C76   C     C_1   0.000000 0.500000 0.717581 -0.156253
C77   C     C_1   0.000000 0.500000 0.782418 -0.156253
C78   C     C_1   0.500000 0.000000 0.782418 -0.156251
C79   C     C_1   1.000000 0.500000 0.217582 -0.156253
C80   C     C_1   0.500000 0.000000 0.217582 -0.156252
C81   C     C_R   0.296633 0.022894 0.555413 -0.031764
C82   C     C_R   0.977107 0.296634 0.555414 -0.031764
C83   C     C_R   0.703367 0.977106 0.555412 -0.031764
C84   C     C_R   0.022894 0.703366 0.555413 -0.031764
C85   C     C_R   0.703366 0.022894 0.444588 -0.031764
C86   C     C_R   0.022893 0.296633 0.444586 -0.031764
C87   C     C_R   0.296633 0.977106 0.444587 -0.031764
C88   C     C_R   0.977106 0.703367 0.444587 -0.031764
C89   C     C_R   0.796633 0.522893 0.055413 -0.031764
C90   C     C_R   0.477109 0.796634 0.055416 -0.031763
C91   C     C_R   0.203366 0.477106 0.055412 -0.031764
C92   C     C_R   0.522894 0.203366 0.055413 -0.031764
C93   C     C_R   0.203366 0.522894 0.944588 -0.031764
C94   C     C_R   0.522890 0.796634 0.944583 -0.031763
C95   C     C_R   0.796633 0.477107 0.944587 -0.031764
C96   C     C_R   0.477106 0.203366 0.944587 -0.031764
C97   C     C_R   0.342880 0.022853 0.555557 -0.074276
C98   C     C_R   0.977148 0.342881 0.555558 -0.074276
C99   C     C_R   0.657119 0.977146 0.555556 -0.074276
C100  C     C_R   0.022853 0.657119 0.555557 -0.074276
C101  C     C_R   0.657119 0.022854 0.444444 -0.074276
C102  C     C_R   0.022852 0.342881 0.444442 -0.074276
C103  C     C_R   0.342880 0.977147 0.444443 -0.074276
C104  C     C_R   0.977147 0.657119 0.444443 -0.074276
C105  C     C_R   0.842881 0.522853 0.055557 -0.074276
C106  C     C_R   0.477150 0.842881 0.055560 -0.074276
C107  C     C_R   0.157119 0.477146 0.055556 -0.074276
C108  C     C_R   0.522853 0.157119 0.055557 -0.074276
C109  C     C_R   0.157119 0.522854 0.944444 -0.074276
C110  C     C_R   0.522850 0.842881 0.944440 -0.074275
C111  C     C_R   0.842880 0.477147 0.944443 -0.074276
C112  C     C_R   0.477147 0.157119 0.944443 -0.074276
C113  C     C_R   0.365834 0.000000 0.500000 -0.136188
C114  C     C_R   0.000000 0.365834 0.500000 -0.136187
C115  C     C_R   0.634166 1.000000 0.500000 -0.136189
C116  C     C_R   0.000000 0.634166 0.500000 -0.136188
C117  C     C_R   0.865834 0.500000 0.000000 -0.136188
C118  C     C_R   0.500000 0.865834 0.000000 -0.136185
C119  C     C_R   0.134166 0.500000 1.000000 -0.136189
C120  C     C_R   0.500000 0.134166 0.000000 -0.136188
C121  C     C_R   0.273822 1.000000 0.500000 -0.023548
C122  C     C_R   0.000000 0.273822 0.500000 -0.023548
C123  C     C_R   0.726178 0.000000 0.500000 -0.023547
C124  C     C_R   0.000000 0.726178 0.500000 -0.023548
C125  C     C_R   0.773822 0.500000 0.000000 -0.023548
C126  C     C_R   0.500000 0.773822 1.000000 -0.023548
C127  C     C_R   0.226178 0.500000 1.000000 -0.023547
C128  C     C_R   0.500000 0.226178 0.000000 -0.023548
H1    H     H_    0.221438 0.059148 0.434834 0.148382
H2    H     H_    0.940853 0.221438 0.434832 0.148382
H3    H     H_    0.778562 0.940852 0.434835 0.148382
H4    H     H_    0.059148 0.778562 0.434835 0.148382
H5    H     H_    0.778562 0.059148 0.565164 0.148382
H6    H     H_    0.059147 0.221438 0.565168 0.148382
H7    H     H_    0.221438 0.940852 0.565166 0.148382
H8    H     H_    0.940852 0.778562 0.565165 0.148382
H9    H     H_    0.721438 0.559148 0.934835 0.148382
H10   H     H_    0.440853 0.721438 0.934831 0.148382
H11   H     H_    0.278562 0.440851 0.934836 0.148382
H12   H     H_    0.559148 0.278562 0.934834 0.148382
H13   H     H_    0.278562 0.559149 0.065164 0.148382
H14   H     H_    0.559146 0.721438 0.065169 0.148382
H15   H     H_    0.721438 0.440852 0.065165 0.148382
H16   H     H_    0.440852 0.278562 0.065166 0.148383
O1    O     O_R   0.434530 0.036970 0.500000 -0.614361
O2    O     O_R   0.963030 0.434530 0.500000 -0.614361
O3    O     O_R   0.565470 0.963030 0.500000 -0.614360
O4    O     O_R   0.036970 0.565470 0.500000 -0.614361
O5    O     O_R   0.565470 0.036970 0.500000 -0.614361
O6    O     O_R   0.036970 0.434530 0.500000 -0.614361
O7    O     O_R   0.434530 0.963030 0.500000 -0.614360
O8    O     O_R   0.963030 0.565470 0.500000 -0.614360
O9    O     O_R   0.934530 0.536970 0.000000 -0.614361
O10   O     O_R   0.463030 0.934530 0.000000 -0.614361
O11   O     O_R   0.065470 0.463030 0.000000 -0.614360
O12   O     O_R   0.536970 0.065470 0.000000 -0.614361
O13   O     O_R   0.065470 0.536970 0.000000 -0.614361
O14   O     O_R   0.536970 0.934530 0.000000 -0.614361
O15   O     O_R   0.934530 0.463030 0.000000 -0.614360
O16   O     O_R   0.463030 0.065470 0.000000 -0.614361
O17   O     O_R   0.500010 0.036970 0.392670 -0.612597
O18   O     O_R   0.963030 0.500010 0.392670 -0.612597
O19   O     O_R   0.499990 0.963030 0.392670 -0.612596
O20   O     O_R   0.036970 0.499990 0.392670 -0.612597
O21   O     O_R   0.499990 0.036970 0.607330 -0.612597
O22   O     O_R   0.036970 0.500010 0.607330 -0.612597
O23   O     O_R   0.500010 0.963030 0.607330 -0.612595
O24   O     O_R   0.963030 0.499990 0.607330 -0.612596
O25   O     O_R   0.000010 0.536970 0.892670 -0.612597
O26   O     O_R   0.463030 0.000010 0.892670 -0.612597
O27   O     O_R   0.999990 0.463030 0.892670 -0.612596
O28   O     O_R   0.536970 0.999990 0.892670 -0.612597
O29   O     O_R   0.999990 0.536970 0.107330 -0.612597
O30   O     O_R   0.536970 0.000010 0.107330 -0.612597
O31   O     O_R   0.000010 0.463030 0.107330 -0.612596
O32   O     O_R   0.463030 0.999990 0.107330 -0.612596
O33   O     O_R   0.999990 0.934550 0.439420 -0.610485
O34   O     O_R   0.065450 0.999990 0.439420 -0.610485
O35   O     O_R   0.000010 0.065450 0.439420 -0.610485
O36   O     O_R   0.934550 0.000010 0.439420 -0.610485
O37   O     O_R   0.000010 0.934550 0.560580 -0.610486
O38   O     O_R   0.934550 0.999990 0.560580 -0.610485
O39   O     O_R   0.999990 0.065450 0.560580 -0.610486
O40   O     O_R   0.065450 0.000010 0.560580 -0.610486
O41   O     O_R   0.499990 0.434550 0.939420 -0.610485
O42   O     O_R   0.565450 0.499990 0.939420 -0.610485
O43   O     O_R   0.500010 0.565450 0.939420 -0.610485
O44   O     O_R   0.434550 0.500010 0.939420 -0.610485
O45   O     O_R   0.500010 0.434550 0.060580 -0.610486
O46   O     O_R   0.434550 0.499990 0.060580 -0.610485
O47   O     O_R   0.499990 0.565450 0.060580 -0.610486
O48   O     O_R   0.565450 0.500010 0.060580 -0.610486
Zn1   Zn    Zn3+2 0.500000 0.049360 0.500000 1.010142
Zn2   Zn    Zn3+2 0.950640 0.500000 0.500000 1.010142
Zn3   Zn    Zn3+2 0.500000 0.950640 0.500000 1.010144
Zn4   Zn    Zn3+2 0.049360 0.500000 0.500000 1.010142
Zn5   Zn    Zn3+2 1.000000 0.549360 0.000000 1.010142
Zn6   Zn    Zn3+2 0.450640 0.000000 0.000000 1.010142
Zn7   Zn    Zn3+2 1.000000 0.450640 0.000000 1.010143
Zn8   Zn    Zn3+2 0.549360 0.000000 0.000000 1.010141
Zn9   Zn    Zn3+2 0.000000 0.000000 0.419090 1.025265
Zn10  Zn    Zn3+2 0.000000 0.000000 0.580910 1.025264
Zn11  Zn    Zn3+2 0.500000 0.500000 0.919090 1.025265
Zn12  Zn    Zn3+2 0.500000 0.500000 0.080910 1.025265
C129  C     C_1   0.272423 0.046202 0.612217 0.193165
N1    N     N_1   0.253078 0.064765 0.657447 -0.170011
C130  C     C_1   0.953800 0.272423 0.612219 0.193166
N2    N     N_1   0.935237 0.253078 0.657450 -0.170011
C131  C     C_1   0.727577 0.953797 0.612215 0.193165
N3    N     N_1   0.746922 0.935233 0.657444 -0.170011
C132  C     C_1   0.046202 0.727577 0.612217 0.193165
N4    N     N_1   0.064765 0.746922 0.657447 -0.170011
C133  C     C_1   0.727577 0.046203 0.387785 0.193165
N5    N     N_1   0.746922 0.064767 0.342555 -0.170011
C134  C     C_1   0.046200 0.272423 0.387781 0.193166
N6    N     N_1   0.064762 0.253078 0.342550 -0.170011
C135  C     C_1   0.272423 0.953798 0.387784 0.193165
N7    N     N_1   0.253078 0.935235 0.342553 -0.170011
C136  C     C_1   0.953798 0.727577 0.387783 0.193165
N8    N     N_1   0.935235 0.746922 0.342553 -0.170011
C137  C     C_1   0.772423 0.546201 0.112218 0.193165
N9    N     N_1   0.753078 0.564764 0.157449 -0.170011
C138  C     C_1   0.453804 0.772423 0.112224 0.193166
N10   N     N_1   0.435244 0.753078 0.157457 -0.170011
C139  C     C_1   0.227577 0.453797 0.112215 0.193165
N11   N     N_1   0.246922 0.435233 0.157445 -0.170011
C140  C     C_1   0.546202 0.227577 0.112217 0.193166
N12   N     N_1   0.564765 0.246922 0.157447 -0.170011
C141  C     C_1   0.227577 0.546203 0.887784 0.193165
N13   N     N_1   0.246922 0.564767 0.842555 -0.170011
C142  C     C_1   0.546195 0.772423 0.887776 0.193167
N14   N     N_1   0.564756 0.753078 0.842543 -0.170011
C143  C     C_1   0.772423 0.453799 0.887782 0.193165
N15   N     N_1   0.753078 0.435236 0.842552 -0.170011
C144  C     C_1   0.453798 0.227577 0.887783 0.193166
N16   N     N_1   0.435235 0.246922 0.842553 -0.170011
C145  C     C_1   0.366755 0.045115 0.613927 0.193989
N17   N     N_1   0.385801 0.062812 0.660454 -0.167966
C146  C     C_1   0.954887 0.366755 0.613929 0.193987
N18   N     N_1   0.937191 0.385801 0.660457 -0.167966
C147  C     C_1   0.633245 0.954884 0.613926 0.193990
N19   N     N_1   0.614200 0.937186 0.660452 -0.167964
C148  C     C_1   0.045115 0.633244 0.613927 0.193989
N20   N     N_1   0.062812 0.614199 0.660454 -0.167966
C149  C     C_1   0.633244 0.045116 0.386074 0.193990
N21   N     N_1   0.614199 0.062814 0.339548 -0.167966
C150  C     C_1   0.045113 0.366756 0.386070 0.193987
N22   N     N_1   0.062809 0.385801 0.339543 -0.167966
C151  C     C_1   0.366755 0.954885 0.386073 0.193989
N23   N     N_1   0.385800 0.937188 0.339546 -0.167964
C152  C     C_1   0.954885 0.633245 0.386073 0.193989
N24   N     N_1   0.937188 0.614199 0.339546 -0.167965
C153  C     C_1   0.866756 0.545114 0.113928 0.193988
N25   N     N_1   0.885801 0.562810 0.160456 -0.167966
C154  C     C_1   0.454891 0.866756 0.113934 0.193983
N26   N     N_1   0.437196 0.885801 0.160463 -0.167967
C155  C     C_1   0.133245 0.454884 0.113926 0.193990
N27   N     N_1   0.114200 0.437186 0.160452 -0.167965
C156  C     C_1   0.545115 0.133245 0.113928 0.193988
N28   N     N_1   0.562812 0.114199 0.160454 -0.167966
C157  C     C_1   0.133244 0.545116 0.886074 0.193990
N29   N     N_1   0.114199 0.562813 0.839547 -0.167966
C158  C     C_1   0.545109 0.866756 0.886066 0.193983
N30   N     N_1   0.562803 0.885801 0.839537 -0.167967
C159  C     C_1   0.866755 0.454886 0.886072 0.193988
N31   N     N_1   0.885800 0.437189 0.839544 -0.167966
C160  C     C_1   0.454885 0.133244 0.886072 0.193989
N32   N     N_1   0.437188 0.114199 0.839545 -0.167966
C161  C     C_1   0.134607 0.069364 0.425751 0.185210
N33   N     N_1   0.116443 0.097969 0.396312 -0.178856
C162  C     C_1   0.930637 0.134608 0.425749 0.185213
N34   N     N_1   0.902032 0.116444 0.396309 -0.178855
C163  C     C_1   0.865392 0.930636 0.425752 0.185211
N35   N     N_1   0.883556 0.902030 0.396313 -0.178856
C164  C     C_1   0.069364 0.865393 0.425752 0.185211
N36   N     N_1   0.097969 0.883556 0.396313 -0.178855
C165  C     C_1   0.865393 0.069364 0.574248 0.185210
N37   N     N_1   0.883556 0.097970 0.603686 -0.178856
C166  C     C_1   0.069363 0.134607 0.574251 0.185211
N38   N     N_1   0.097968 0.116444 0.603691 -0.178855
C167  C     C_1   0.134607 0.930636 0.574249 0.185212
N39   N     N_1   0.116444 0.902031 0.603689 -0.178855
C168  C     C_1   0.930636 0.865393 0.574248 0.185212
N40   N     N_1   0.902031 0.883556 0.603687 -0.178856
C169  C     C_1   0.634607 0.569364 0.925752 0.185210
N41   N     N_1   0.616443 0.597969 0.896313 -0.178856
C170  C     C_1   0.430637 0.634608 0.925747 0.185213
N42   N     N_1   0.402033 0.616444 0.896306 -0.178854
C171  C     C_1   0.365392 0.430635 0.925753 0.185211
N43   N     N_1   0.383557 0.402030 0.896314 -0.178856
C172  C     C_1   0.569364 0.365393 0.925750 0.185212
N44   N     N_1   0.597968 0.383556 0.896311 -0.178855
C173  C     C_1   0.365393 0.569365 0.074247 0.185210
N45   N     N_1   0.383556 0.597970 0.103685 -0.178856
C174  C     C_1   0.569362 0.634608 0.074253 0.185212
N46   N     N_1   0.597967 0.616444 0.103693 -0.178854
C175  C     C_1   0.634607 0.430636 0.074248 0.185211
N47   N     N_1   0.616444 0.402031 0.103688 -0.178856
C176  C     C_1   0.430636 0.365392 0.074250 0.185212
N48   N     N_1   0.402031 0.383556 0.103689 -0.178855

loop_
_geom_bond_atom_site_label_1
_geom_bond_atom_site_label_2
_ccdc_geom_bond_type
C36   C172  S    
C49   C113  S    
C53   O9    A    
C69   O41   A    
C33   C45   A    
C175  N47   T    
C108  C120  A    
C138  N10   T    
C100  C116  A    
C109  C119  A    
C105  C153  S    
C48   C69   S    
C88   C124  A    
C51   O5    A    
C58   O20   A    
C110  C118  A    
C93   C127  A    
C28   C44   A    
C84   C132  S    
C9    C25   A    
C158  N30   T    
C65   O37   A    
C133  N5    T    
C13   H5    S    
C55   O11   A    
C96   C112  A    
C96   C128  A    
C30   C166  S    
C8    C20   A    
C91   C127  A    
C12   C28   A    
C13   C29   A    
C31   C167  S    
C146  N18   T    
O22   Zn4   S    
C147  N19   T    
C111  C159  S    
C22   H14   S    
O46   Zn12  S    
C99   C115  A    
C153  N25   T    
O10   Zn6   S    
C53   C117  S    
C15   H7    S    
C98   C114  A    
O9    Zn5   S    
C42   C67   S    
C94   C126  A    
C29   C165  S    
C148  N20   T    
C22   C38   A    
O43   Zn11  S    
C154  N26   T    
C93   C141  S    
C151  N23   T    
C4    C124  S    
C169  N41   T    
C155  N27   T    
C57   C73   S    
C18   H10   S    
C140  N12   T    
C95   C125  A    
C86   C134  S    
C72   O44   A    
C85   C101  A    
O27   Zn7   S    
C81   C97   A    
O5    Zn1   S    
C104  C116  A    
C92   C108  A    
C89   C125  A    
O35   Zn9   S    
C92   C140  S    
C61   C77   S    
C43   C68   S    
C57   O19   A    
C86   C122  A    
C2    C122  S    
O14   Zn8   S    
C166  N38   T    
C67   O35   A    
O3    Zn3   S    
C34   C46   A    
C51   O3    A    
C37   C47   A    
C32   C168  S    
C31   C41   A    
C143  N15   T    
O1    Zn1   S    
C161  N33   T    
C59   O21   A    
C86   C102  A    
C56   O12   A    
C39   C45   A    
C168  N40   T    
C50   O2    A    
C6    C22   A    
O15   Zn7   S    
O19   Zn3   S    
C35   C171  S    
C35   C47   A    
C52   O4    A    
C104  C152  S    
O24   Zn2   S    
C165  N37   T    
C106  C118  A    
C64   C80   S    
C105  C117  A    
C44   C65   S    
O12   Zn8   S    
C68   O36   A    
C17   C33   A    
C14   C30   A    
C49   O1    A    
C6    C18   A    
C92   C128  A    
C75   C78   T    
C72   O46   A    
C82   C130  S    
C88   C104  A    
C141  N13   T    
C3    C123  S    
C94   C142  S    
C63   O29   A    
O25   Zn5   S    
C83   C123  A    
C52   C116  S    
O45   Zn12  S    
O48   Zn12  S    
C62   O26   A    
C23   H15   S    
O37   Zn10  S    
C53   O15   A    
C49   O7    A    
C70   O48   A    
C130  N2    T    
C103  C151  S    
C16   H8    S    
C91   C107  A    
C152  N24   T    
C36   C48   A    
O40   Zn10  S    
C76   C77   T    
C6    C126  S    
C131  N3    T    
O36   Zn9   S    
O32   Zn6   S    
C136  N8    T    
C112  C120  A    
C28   C164  S    
O16   Zn6   S    
C98   C146  S    
C14   H6    S    
C4    C12   A    
C167  N39   T    
C7    C21   A    
O29   Zn5   S    
C94   C110  A    
C51   C115  S    
C172  N44   T    
O21   Zn1   S    
C50   C114  S    
C84   C100  A    
C3    C13   A    
C99   C147  S    
C176  N48   T    
C10   H2    S    
C132  N4    T    
C57   O17   A    
C173  N45   T    
C102  C114  A    
C85   C133  S    
C54   O14   A    
C137  N9    T    
C8    C128  S    
C101  C149  S    
C50   O6    A    
C83   C99   A    
C66   O40   A    
C170  N42   T    
C5    C23   A    
C11   C27   A    
C52   O8    A    
C68   O38   A    
C34   C170  S    
O18   Zn2   S    
C139  N11   T    
C90   C126  A    
C1    C9    A    
C39   C175  S    
C60   O24   A    
C61   O27   A    
C5    C17   A    
C15   C31   A    
C18   C34   A    
C112  C160  S    
O31   Zn7   S    
C110  C158  S    
C83   C131  S    
C100  C148  S    
C67   O39   A    
C26   C42   A    
C1    C15   A    
C87   C103  A    
C97   C113  A    
C29   C43   A    
C19   H11   S    
O17   Zn1   S    
C164  N36   T    
C33   C169  S    
O6    Zn4   S    
O28   Zn8   S    
C7    C19   A    
C74   C79   T    
C54   C118  S    
C63   C79   S    
C46   C71   S    
C38   C174  S    
C101  C115  A    
C82   C98   A    
O33   Zn9   S    
C61   O25   A    
O2    Zn2   S    
C4    C16   A    
C64   O30   A    
C156  N28   T    
C58   O18   A    
C59   C75   S    
O41   Zn11  S    
O26   Zn6   S    
C97   C145  S    
C58   C74   S    
C81   C129  S    
C159  N31   T    
C87   C121  A    
C40   C48   A    
C27   C43   A    
C129  N1    T    
C91   C139  S    
C24   C40   A    
C37   C173  S    
C12   H4    S    
C103  C113  A    
C45   C70   S    
O38   Zn10  S    
O39   Zn10  S    
O23   Zn3   S    
C106  C154  S    
C62   C78   S    
C40   C176  S    
C102  C150  S    
C71   O43   A    
C11   H3    S    
C54   O10   A    
C17   H9    S    
C150  N22   T    
O20   Zn4   S    
C89   C105  A    
C63   O31   A    
C41   C66   S    
C56   C120  S    
C9    H1    S    
C56   O16   A    
C84   C124  A    
C62   O28   A    
C82   C122  A    
O44   Zn11  S    
O30   Zn8   S    
C107  C119  A    
C88   C136  S    
C27   C163  S    
C111  C117  A    
C160  N32   T    
C7    C127  S    
C55   C119  S    
C20   H12   S    
C64   O32   A    
C135  N7    T    
C21   H13   S    
C90   C138  S    
C174  N46   T    
C19   C35   A    
C38   C46   A    
C89   C137  S    
C81   C121  A    
C10   C26   A    
C157  N29   T    
C65   O33   A    
C24   H16   S    
C16   C32   A    
C145  N17   T    
C59   O23   A    
C8    C24   A    
C73   C80   T    
C60   C76   S    
O42   Zn11  S    
C85   C123  A    
O13   Zn5   S    
O8    Zn2   S    
C87   C135  S    
C134  N6    T    
C2    C14   A    
O11   Zn7   S    
C1    C121  S    
C47   C72   S    
C107  C155  S    
C3    C11   A    
C144  N16   T    
C70   O42   A    
C90   C106  A    
C26   C162  S    
C20   C36   A    
C69   O45   A    
C55   O13   A    
C60   O22   A    
C21   C37   A    
C32   C44   A    
O4    Zn4   S    
C25   C41   A    
O47   Zn12  S    
O34   Zn9   S    
C5    C125  S    
C142  N14   T    
C96   C144  S    
C171  N43   T    
C30   C42   A    
C108  C156  S    
C95   C111  A    
C95   C143  S    
C71   O47   A    
C149  N21   T    
C109  C157  S    
C23   C39   A    
C25   C161  S    
O7    Zn3   S    
C162  N34   T    
C163  N35   T    
C93   C109  A    
C66   O34   A    
C2    C10   A    
