data_mof_unit_66881.cif
_audit_creation_date              2013-03-05T15:57:23-0500
_audit_creation_method            fapswitch 2.2
_symmetry_space_group_name_H-M    P1
_symmetry_Int_Tables_number       1
_space_group_crystal_system       triclinic
_cell_length_a                    17.290309
_cell_length_b                    19.07499
_cell_length_c                    8.448275
_cell_angle_alpha                 90.160814
_cell_angle_beta                  102.137662
_cell_angle_gamma                 90.510588
_cell_volume                      2723.91896137

loop_
_atom_site_label
_atom_site_type_symbol
_atom_site_description
_atom_site_fract_x
_atom_site_fract_y
_atom_site_fract_z
_atom_type_partial_charge
P1    P     P_3+3 0.834140 0.419320 0.003900 0.957644
P2    P     P_3+3 0.834140 0.580680 0.503900 0.998173
P3    P     P_3+3 0.334140 0.919320 0.003900 0.957479
P4    P     P_3+3 0.334140 0.080680 0.503900 0.998361
O1    O     O_2   0.841960 0.394640 0.833410 -0.467007
O2    O     O_2   0.841960 0.605360 0.333410 -0.474064
O3    O     O_2   0.341960 0.894640 0.833410 -0.466927
O4    O     O_2   0.341960 0.105360 0.333410 -0.474199
O5    O     O_3   0.907950 0.463080 0.102990 -0.479980
O6    O     O_3   0.907950 0.536920 0.602990 -0.466122
O7    O     O_3   0.407950 0.963080 0.102990 -0.479855
O8    O     O_3   0.407950 0.036920 0.602990 -0.465875
O9    O     O_3   0.972780 0.329600 0.629720 -0.501205
O10   O     O_3   0.972780 0.670400 0.129720 -0.493925
O11   O     O_3   0.472780 0.829600 0.629720 -0.501033
O12   O     O_3   0.472780 0.170400 0.129720 -0.494377
O13   O     O_2   0.830613 0.286655 0.675556 -0.488694
O14   O     O_2   0.840795 0.722522 0.201985 -0.487396
O15   O     O_2   0.330682 0.786569 0.675771 -0.488828
O16   O     O_2   0.341211 0.223060 0.202837 -0.487856
O17   O     O_3   0.749358 0.469989 0.955553 -0.658885
O18   O     O_3   0.757271 0.521269 0.453513 -0.609305
O19   O     O_3   0.249377 0.970003 0.955599 -0.659171
O20   O     O_3   0.257309 0.021210 0.453655 -0.609259
O21   O     O_3   0.926376 0.188907 0.644661 -0.602017
O22   O     O_3   0.936379 0.813084 0.123952 -0.596101
O23   O     O_3   0.426483 0.688906 0.644473 -0.601910
O24   O     O_3   0.436958 0.313038 0.122430 -0.596154
H1    H     H_    0.044218 0.218919 0.705865 0.100348
H2    H     H_    0.056107 0.793987 0.188345 0.095145
H3    H     H_    0.544344 0.718970 0.704736 0.099688
H4    H     H_    0.556343 0.292191 0.186974 0.094678
C1    C     C_3   0.030230 0.109439 0.663770 -0.372864
C2    C     C_3   0.031832 0.889123 0.052276 -0.375975
C3    C     C_3   0.530330 0.609482 0.663092 -0.373192
C4    C     C_3   0.534061 0.387790 0.052198 -0.376543
H5    H     H_    0.593025 0.607262 0.653516 0.038066
H6    H     H_    0.591678 0.388593 0.015366 0.076380
H7    H     H_    0.092968 0.107234 0.654572 0.037887
H8    H     H_    0.089682 0.891024 0.016532 0.078256
H9    H     H_    0.023715 0.096549 0.787997 0.137354
H10   H     H_    0.035151 0.919642 0.163580 0.162637
H11   H     H_    0.523972 0.596690 0.787459 0.137476
H12   H     H_    0.538741 0.417973 0.164301 0.165477
P5    P     P_3+3 0.165830 0.418670 0.685610 1.003142
P6    P     P_3+3 0.165830 0.581330 0.185610 1.006729
P7    P     P_3+3 0.665830 0.918670 0.685610 1.003199
P8    P     P_3+3 0.665830 0.081330 0.185610 1.006548
P9    P     P_3+3 0.092131 0.260798 0.098763 0.923680
P10   P     P_3+3 0.094980 0.738060 0.605832 0.953661
P11   P     P_3+3 0.592124 0.760772 0.098793 0.923843
P12   P     P_3+3 0.594934 0.238101 0.605830 0.953551
O25   O     O_2   0.157990 0.394030 0.856030 -0.472731
O26   O     O_2   0.157990 0.605970 0.356030 -0.471840
O27   O     O_2   0.657990 0.894030 0.856030 -0.472709
O28   O     O_2   0.657990 0.105970 0.356030 -0.471915
O29   O     O_3   0.027110 0.329490 0.059550 -0.451828
O30   O     O_3   0.027110 0.670510 0.559550 -0.444774
O31   O     O_3   0.527110 0.829490 0.059550 -0.452009
O32   O     O_3   0.527110 0.170510 0.559550 -0.444957
O33   O     O_2   0.145883 0.269013 0.974826 -0.492511
O34   O     O_2   0.150020 0.730354 0.484147 -0.482595
O35   O     O_2   0.645881 0.768963 0.974851 -0.492243
O36   O     O_2   0.650018 0.230359 0.484240 -0.482518
O37   O     O_3   0.251554 0.471151 0.730542 -0.651957
O38   O     O_3   0.251988 0.530688 0.231290 -0.652635
O39   O     O_3   0.751547 0.971160 0.730542 -0.651974
O40   O     O_3   0.751947 0.030637 0.231197 -0.652502
O41   O     O_3   0.026511 0.191855 0.023149 -0.629312
O42   O     O_3   0.035885 0.810550 0.538653 -0.578778
O43   O     O_3   0.526533 0.691799 0.023275 -0.629337
O44   O     O_3   0.535855 0.310591 0.538443 -0.578803
C5    C     C_3   0.954954 0.201281 0.075275 0.361538
C6    C     C_3   0.976355 0.815067 0.629061 0.322481
C7    C     C_3   0.454870 0.701384 0.074907 0.361628
C8    C     C_3   0.476057 0.315002 0.628216 0.322318
H13   H     H_    0.919181 0.241057 0.997116 0.099450
H14   H     H_    0.952462 0.763336 0.656687 -0.004196
H15   H     H_    0.419305 0.741254 0.996663 0.099831
H16   H     H_    0.452084 0.263244 0.655366 -0.003341
H17   H     H_    0.965486 0.218645 0.203935 -0.079046
H18   H     H_    0.000731 0.842677 0.743136 -0.024528
H19   H     H_    0.465287 0.718705 0.203579 -0.078969
H20   H     H_    0.500160 0.342539 0.742486 -0.024026
C9    C     C_3   0.906958 0.133053 0.059260 -0.384731
C10   C     C_3   0.907380 0.857105 0.536491 -0.334404
C11   C     C_3   0.406624 0.633289 0.058468 -0.384708
C12   C     C_3   0.407227 0.357105 0.535329 -0.334484
H21   H     H_    0.344430 0.643406 0.997895 0.077729
H22   H     H_    0.376070 0.326695 0.428483 0.148716
H23   H     H_    0.844634 0.143005 0.999386 0.077736
H24   H     H_    0.875981 0.826570 0.430028 0.148121
H25   H     H_    0.930772 0.093952 0.985991 0.121240
H26   H     H_    0.928311 0.907567 0.495907 0.105271
H27   H     H_    0.430522 0.594061 0.985637 0.121321
H28   H     H_    0.428260 0.407641 0.495343 0.105180
C13   C     C_3   0.235843 0.458473 0.220536 0.275389
C14   C     C_3   0.234102 0.542877 0.726933 0.272335
C15   C     C_3   0.735689 0.958434 0.220960 0.275471
C16   C     C_3   0.734065 0.042876 0.727148 0.272279
H29   H     H_    0.232717 0.438720 0.342489 0.013145
H30   H     H_    0.231223 0.560424 0.850870 0.005932
H31   H     H_    0.732496 0.938876 0.343035 0.013000
H32   H     H_    0.731107 0.060331 0.851107 0.006224
H33   H     H_    0.181190 0.444185 0.132628 0.131313
H34   H     H_    0.179069 0.556914 0.641044 0.128435
H35   H     H_    0.681041 0.944111 0.133059 0.131171
H36   H     H_    0.679067 0.056932 0.641163 0.128418
C17   C     C_3   0.303169 0.422370 0.164016 -0.377272
C18   C     C_3   0.299883 0.582330 0.671219 -0.367969
C19   C     C_3   0.802967 0.922116 0.164760 -0.377011
C20   C     C_3   0.799873 0.082415 0.671745 -0.367871
H37   H     H_    0.360709 0.437490 0.242168 0.128365
H38   H     H_    0.358133 0.566832 0.743532 0.131530
H39   H     H_    0.860513 0.937222 0.242899 0.128406
H40   H     H_    0.858101 0.066875 0.744073 0.131515
H41   H     H_    0.294676 0.364716 0.167195 0.111947
H42   H     H_    0.291282 0.639543 0.683156 0.121153
H43   H     H_    0.794355 0.864482 0.168264 0.112180
H44   H     H_    0.791262 0.139612 0.683955 0.121192
H45   H     H_    0.304336 0.438430 0.038514 0.140539
H46   H     H_    0.299239 0.569231 0.543040 0.137668
H47   H     H_    0.804205 0.938013 0.039175 0.140311
H48   H     H_    0.799277 0.069439 0.543519 0.137489
Ba1   Ba    Ba6+2 0.000000 0.447380 0.844850 1.673768
Ba2   Ba    Ba6+2 0.000000 0.552620 0.344850 1.697754
Ba3   Ba    Ba6+2 0.500000 0.947380 0.844850 1.673857
Ba4   Ba    Ba6+2 0.500000 0.052620 0.344850 1.697655
C21   C     C_3   0.767591 0.541304 0.971290 0.408706
C22   C     C_3   0.785569 0.458915 0.399761 0.384744
C23   C     C_3   0.267633 0.041316 0.971067 0.408008
C24   C     C_3   0.285477 0.958927 0.399290 0.385008
H49   H     H_    0.774227 0.560740 0.851713 -0.169983
H50   H     H_    0.814976 0.469489 0.298476 -0.031719
H51   H     H_    0.274116 0.060674 0.851334 -0.169176
H52   H     H_    0.314795 0.969637 0.297957 -0.030858
H53   H     H_    0.821277 0.554905 0.062694 0.044324
H54   H     H_    0.827998 0.433375 0.499707 -0.026245
H55   H     H_    0.321392 0.054969 0.062232 0.044155
H56   H     H_    0.327966 0.933278 0.498952 -0.027176
C25   C     C_3   0.698761 0.577633 0.019242 0.298357
C26   C     C_3   0.715279 0.408920 0.344479 0.255127
C27   C     C_3   0.198889 0.077681 0.019233 0.297783
C28   C     C_3   0.215081 0.908999 0.343844 0.256248
H57   H     H_    0.650755 0.579108 0.910569 -0.020672
H58   H     H_    0.696903 0.411785 0.211497 0.070321
H59   H     H_    0.150711 0.078897 0.910855 -0.020215
H60   H     H_    0.196581 0.911949 0.210863 0.070203
H61   H     H_    0.717048 0.632527 0.053451 -0.020044
H62   H     H_    0.730965 0.353624 0.373501 -0.042049
H63   H     H_    0.217129 0.132641 0.052835 -0.020681
H64   H     H_    0.230737 0.853672 0.372532 -0.042971
O45   O     O_3   0.092100 0.536880 0.086720 -0.439536
O46   O     O_3   0.092100 0.463120 0.586720 -0.442161
O47   O     O_3   0.592100 0.036880 0.086720 -0.439645
O48   O     O_3   0.592100 0.963120 0.586720 -0.441966
P13   P     P_3+3 0.894552 0.730151 0.078515 0.949811
P14   P     P_3+3 0.892920 0.270726 0.574563 0.936574
P15   P     P_3+3 0.394610 0.230191 0.078522 0.949601
P16   P     P_3+3 0.392932 0.770724 0.574580 0.936727
C29   C     C_3   0.003792 0.182970 0.622561 0.376566
C30   C     C_3   0.011322 0.814146 0.084650 0.399594
C31   C     C_3   0.503805 0.682971 0.621776 0.376320
C32   C     C_3   0.511990 0.313133 0.083503 0.399707
H65   H     H_    0.007919 0.193668 0.495086 -0.084411
H66   H     H_    0.013888 0.782570 0.975125 -0.128233
H67   H     H_    0.507683 0.693560 0.494112 -0.084425
H68   H     H_    0.513975 0.281683 0.973490 -0.128181
H69   H     H_    0.493500 0.571658 0.578824 0.105967
H70   H     H_    0.488079 0.412065 0.956962 0.099801
H71   H     H_    0.993510 0.071672 0.579147 0.105863
H72   H     H_    0.985604 0.912312 0.955809 0.098985
H73   H     H_    0.406447 0.610601 0.179242 0.098697
H74   H     H_    0.365171 0.368664 0.614296 0.062413
H75   H     H_    0.907223 0.110280 0.180122 0.098596
H76   H     H_    0.865569 0.868815 0.615901 0.062446
C33   C     C_R   0.135675 0.678844 0.921724 -0.279441
C34   C     C_R   0.137347 0.320645 0.418368 -0.275698
C35   C     C_R   0.635667 0.178841 0.921702 -0.279535
C36   C     C_R   0.637332 0.820623 0.418392 -0.275865
C37   C     C_R   0.857515 0.324646 0.262945 -0.297410
C38   C     C_R   0.847584 0.670306 0.770938 -0.267595
C39   C     C_R   0.357487 0.824674 0.262975 -0.297283
C40   C     C_R   0.347498 0.170248 0.771029 -0.268037
C41   C     C_R   0.790470 0.215051 0.296788 -0.090624
C42   C     C_R   0.784913 0.781261 0.802016 -0.093868
C43   C     C_R   0.290444 0.715078 0.296826 -0.090647
C44   C     C_R   0.284826 0.281199 0.802096 -0.093558
C45   C     C_R   0.845247 0.268122 0.358716 0.000889
C46   C     C_R   0.836669 0.727078 0.867002 -0.018363
C47   C     C_R   0.345206 0.768158 0.358762 0.000986
C48   C     C_R   0.336539 0.226991 0.867138 -0.018250
C49   C     C_R   0.814765 0.332830 0.105819 0.005590
C50   C     C_R   0.808923 0.664115 0.609360 0.032092
C51   C     C_R   0.314754 0.832843 0.105831 0.005279
C52   C     C_R   0.308880 0.164086 0.609403 0.031834
C53   C     C_R   0.755337 0.279727 0.043311 -0.042772
C54   C     C_R   0.752242 0.718150 0.542783 -0.035501
C55   C     C_R   0.255328 0.779740 0.043320 -0.042747
C56   C     C_R   0.252211 0.218130 0.542801 -0.035456
C57   C     C_R   0.243153 0.719614 0.139743 -0.041757
C58   C     C_R   0.239919 0.277886 0.641393 -0.033665
C59   C     C_R   0.743168 0.219597 0.139715 -0.041987
C60   C     C_R   0.739973 0.777924 0.641347 -0.033617
C61   C     C_R   0.182770 0.667423 0.077373 0.000371
C62   C     C_R   0.182750 0.331606 0.576505 -0.008442
C63   C     C_R   0.682776 0.167413 0.077345 -0.000065
C64   C     C_R   0.682766 0.831616 0.576492 -0.008512
C65   C     C_R   0.150159 0.734819 0.823442 -0.080497
C66   C     C_R   0.149946 0.264329 0.318117 -0.065902
C67   C     C_R   0.650133 0.234836 0.823443 -0.080274
C68   C     C_R   0.649938 0.764308 0.318147 -0.066151
C69   C     C_R   0.208361 0.784957 0.887593 -0.097650
C70   C     C_R   0.208343 0.214715 0.381635 -0.117192
C71   C     C_R   0.708359 0.284956 0.887606 -0.097628
C72   C     C_R   0.708327 0.714694 0.381677 -0.116933
H77   H     H_    0.283411 0.672093 0.375036 0.102778
H78   H     H_    0.279986 0.325435 0.878767 0.103332
H79   H     H_    0.783430 0.172070 0.375005 0.102838
H80   H     H_    0.780042 0.825477 0.878726 0.103308
H81   H     H_    0.718332 0.328572 0.817557 0.079036
H82   H     H_    0.720131 0.673215 0.305222 0.111633
H83   H     H_    0.218322 0.828563 0.817479 0.079000
H84   H     H_    0.220196 0.173280 0.305100 0.111669
H85   H     H_    0.894163 0.367560 0.317700 0.042688
H86   H     H_    0.885241 0.628273 0.825293 0.051592
H87   H     H_    0.394140 0.867591 0.317714 0.042889
H88   H     H_    0.385194 0.128235 0.825357 0.051517
O49   O     O_3   0.673820 0.541637 0.147795 -0.629506
C73   C     C_3   0.601940 0.571363 0.165652 0.318406
H89   H     H_    0.553952 0.556641 0.061623 0.043681
H90   H     H_    0.612308 0.627020 0.178811 0.052035
C74   C     C_3   0.575776 0.555669 0.322003 -0.294078
H91   H     H_    0.625684 0.559685 0.426902 0.171281
H92   H     H_    0.532809 0.596183 0.338703 0.019281
H93   H     H_    0.543152 0.505785 0.318290 0.135955
O50   O     O_3   0.650688 0.428113 0.411618 -0.635577
C75   C     C_3   0.667947 0.413665 0.577831 0.320092
H94   H     H_    0.727017 0.432207 0.641367 0.070260
H95   H     H_    0.666458 0.357351 0.589112 0.079637
C76   C     C_3   0.609285 0.448387 0.661176 -0.299652
H96   H     H_    0.550075 0.451145 0.581214 0.130012
H97   H     H_    0.606222 0.419607 0.772495 0.073036
H98   H     H_    0.631235 0.501447 0.696880 0.095778
O51   O     O_3   0.174274 0.041905 0.148428 -0.629640
C77   C     C_3   0.102315 0.071469 0.166307 0.318597
H99   H     H_    0.054206 0.056228 0.062971 0.043024
H100  H     H_    0.112393 0.127159 0.178014 0.052396
C78   C     C_3   0.076688 0.056466 0.323552 -0.293325
H101  H     H_    0.126755 0.060941 0.427991 0.169738
H102  H     H_    0.033714 0.097040 0.339808 0.018564
H103  H     H_    0.044223 0.006596 0.321435 0.136732
O52   O     O_3   0.150562 0.928110 0.411321 -0.635031
C79   C     C_3   0.168008 0.913558 0.577523 0.320371
H104  H     H_    0.227135 0.932027 0.640886 0.070118
H105  H     H_    0.166543 0.857235 0.588703 0.079441
C80   C     C_3   0.109553 0.948267 0.661444 -0.299488
H106  H     H_    0.050186 0.950842 0.582078 0.129720
H107  H     H_    0.106916 0.919597 0.773194 0.072672
H108  H     H_    0.131413 0.001418 0.696479 0.095951
C81   C     C_2   0.067026 0.634100 0.861731 0.580946
H109  H     H_    0.009517 0.652611 0.868680 -0.078625
O53   O     O_2   0.073804 0.579297 0.792018 -0.556686
C82   C     C_2   0.070675 0.365983 0.360377 0.574856
H110  H     H_    0.013978 0.349014 0.375665 -0.067472
O54   O     O_2   0.078433 0.420419 0.290195 -0.557222
C83   C     C_2   0.567016 0.134093 0.861710 0.580869
H111  H     H_    0.509498 0.152593 0.868640 -0.078393
O55   O     O_2   0.573794 0.079288 0.792011 -0.556660
C84   C     C_2   0.570557 0.865853 0.360487 0.575359
H112  H     H_    0.513885 0.848671 0.375459 -0.068242
O56   O     O_2   0.578186 0.920352 0.290435 -0.557117

loop_
_geom_bond_atom_site_label_1
_geom_bond_atom_site_label_2
_geom_bond_distance
_ccdc_geom_bond_type
C24   C28   1.531351 S    
P6    C61   1.931667 S    
C15   H31   1.109773 S    
C12   H28   1.105824 S    
C77   H100  1.075856 S    
P1    O17   1.739406 S    
P5    C62   1.951081 S    
C14   C18   1.514385 S    
C26   O50   1.405522 S    
C83   O55   1.217000 D    
C26   H58   1.103024 S    
P3    O19   1.739283 S    
O3    Ba3   2.885775 S    
C2    H10   1.095460 S    
C20   H40   1.105669 S    
C26   H62   1.106712 S    
P4    O4    1.548896 D    
C54   C72   1.413305 A    
C18   H42   1.109900 S    
C9    H23   1.108196 S    
C54   C60   1.453154 A    
C12   H74   1.108376 S    
O8    Ba3   2.885450 S    
C22   H50   1.101597 S    
C27   H59   1.101133 S    
O26   Ba2   2.889308 S    
C75   C76   1.507617 S    
C78   H101  1.101018 S    
O49   C73   1.407071 S    
C7    H15   1.110727 S    
P11   O43   1.757438 S    
P7    C64   1.951044 S    
O22   P13   1.741386 S    
C29   H65   1.113481 S    
P1    O1    1.547169 D    
O15   P16   1.540112 D    
O38   C13   1.401951 S    
C3    H5    1.105031 S    
P1    Ba1   3.451557 S    
O37   C14   1.402710 S    
C20   H48   1.108443 S    
P3    O3    1.547169 D    
O29   Ba1   2.872416 S    
O52   C79   1.401849 S    
P4    O20   1.721941 S    
P3    Ba3   3.451557 S    
C21   C25   1.508822 S    
P7    O48   1.617840 S    
O2    Ba2   2.902891 S    
O31   Ba3   2.872416 S    
C75   H95   1.079246 S    
C35   C67   1.407137 A    
C16   H32   1.109527 S    
P9    O29   1.721218 S    
C34   C66   1.412585 A    
C73   C74   1.513310 S    
C19   H43   1.109411 S    
C76   H96   1.103411 S    
C33   C65   1.407066 A    
C36   C68   1.412576 A    
C33   C81   1.456267 S    
P13   C46   1.855925 S    
O28   Ba4   2.889308 S    
C79   H105  1.079300 S    
C10   H26   1.105853 S    
Ba4   O47   2.974371 S    
O23   C31   1.395457 S    
C30   H66   1.111549 S    
C9    H25   1.104108 S    
P11   C68   1.912355 S    
O4    Ba4   2.902891 S    
C60   C64   1.456316 A    
P10   C65   1.886255 S    
O21   C29   1.395387 S    
C82   H110  1.063136 S    
O16   P15   1.542828 D    
C11   H27   1.104118 S    
P9    C66   1.912361 S    
P2    O18   1.721777 S    
P12   C67   1.886407 S    
C39   C51   1.386881 A    
C40   C48   1.389298 A    
O41   C5    1.410560 S    
C14   H34   1.104058 S    
C38   C50   1.392172 A    
P4    O8    1.612416 S    
O6    Ba1   2.885450 S    
C3    H11   1.106844 S    
C74   H91   1.101249 S    
C8    C12   1.518211 S    
C43   C47   1.402524 A    
C53   C71   1.397486 A    
C28   H60   1.103266 S    
O9    Ba1   2.858445 S    
C27   H63   1.110826 S    
C15   C19   1.517658 S    
P9    O41   1.757481 S    
O51   C77   1.407082 S    
O18   C22   1.400382 S    
O12   P15   1.760409 S    
C82   O54   1.217448 D    
C8    H20   1.098006 S    
P2    O2    1.548896 D    
C37   C45   1.391098 A    
C6    H18   1.098265 S    
C71   H81   1.056056 S    
C5    H17   1.112651 S    
C81   O53   1.217019 D    
Ba1   O45   2.861719 S    
C42   H80   1.076852 S    
C51   C55   1.452913 A    
C11   H73   1.110023 S    
H3    C31   1.111836 S    
C16   H36   1.104085 S    
P9    O33   1.546669 D    
P4    Ba4   3.458307 S    
O10   P13   1.760636 S    
C17   H41   1.109361 S    
P10   O30   1.722656 S    
P1    O5    1.598145 S    
C68   C72   1.412426 A    
O32   Ba4   2.857867 S    
C2    H72   1.110451 S    
P11   O35   1.546710 D    
O11   Ba3   2.858445 S    
C84   H112  1.063108 S    
P12   O36   1.548275 D    
P14   C45   1.836805 S    
C39   H87   1.072868 S    
C52   C56   1.459038 A    
C20   H44   1.109904 S    
C23   H55   1.103862 S    
C81   H109  1.071236 S    
C77   H99   1.107919 S    
C38   H86   1.078548 S    
C79   C80   1.507710 S    
C37   H85   1.072813 S    
O23   P16   1.731514 S    
C40   C52   1.392275 A    
C41   C59   1.408140 A    
C19   H47   1.108745 S    
O22   C30   1.403643 S    
O24   P15   1.741549 S    
P3    C51   1.922089 S    
C27   O51   1.425655 S    
C76   H97   1.100890 S    
C41   C45   1.402539 A    
C42   C46   1.408369 A    
C1    C29   1.498227 S    
C4    C32   1.509445 S    
O42   C6    1.407857 S    
C79   H104  1.103724 S    
P12   O44   1.750602 S    
C14   H30   1.109537 S    
P8    Ba4   3.453858 S    
C13   C17   1.517748 S    
O20   C24   1.400327 S    
C56   C70   1.413425 A    
C35   C63   1.412220 A    
C32   H68   1.111561 S    
C31   H67   1.113525 S    
C24   H52   1.101456 S    
C13   H29   1.109782 S    
P6    O26   1.546475 D    
C42   C60   1.416117 A    
O44   C8    1.407923 S    
P7    O39   1.754410 S    
C1    H7    1.104873 S    
C6    C10   1.518306 S    
C73   H90   1.076658 S    
O13   P14   1.540076 D    
C74   H92   1.105785 S    
O17   C21   1.393288 S    
O25   Ba1   2.906593 S    
O39   C16   1.402683 S    
C21   H49   1.105104 S    
Ba2   O46   2.885396 S    
C56   C58   1.453143 A    
C3    C31   1.498045 S    
P8    O47   1.603411 S    
C12   H22   1.108387 S    
O30   Ba2   2.857867 S    
C78   H102  1.105690 S    
C44   H78   1.076821 S    
C11   H21   1.108306 S    
C53   C59   1.447811 A    
P5    O37   1.754412 S    
Ba1   Ba2   4.681965 S    
P10   O34   1.548271 D    
C84   O56   1.217452 D    
C4    H12   1.094924 S    
P11   O31   1.721551 S    
C40   H88   1.078560 S    
Ba3   O47   2.861719 S    
Ba3   Ba4   4.681965 S    
P2    O6    1.612416 S    
P2    C50   1.919533 S    
P2    Ba2   3.458307 S    
O9    P14   1.756069 S    
C80   H106  1.103315 S    
C23   C27   1.508653 S    
Ba1   O46   2.972741 S    
O24   C32   1.403773 S    
P7    O27   1.548196 D    
C5    C9    1.527513 S    
C7    C11   1.527515 S    
P4    C52   1.919517 S    
C1    H71   1.109631 S    
C18   H38   1.105691 S    
C75   H94   1.103775 S    
C78   H103  1.098403 S    
C57   C61   1.451193 A    
C41   H79   1.076441 S    
C58   C62   1.456348 A    
C55   C69   1.397543 A    
C4    H70   1.110630 S    
P15   C48   1.856155 S    
P6    Ba2   3.453858 S    
C8    H16   1.110462 S    
P16   C47   1.836795 S    
C17   H45   1.108673 S    
C2    C30   1.509954 S    
C39   C47   1.391111 A    
Ba3   O48   2.972741 S    
O27   Ba3   2.906593 S    
C19   H39   1.107443 S    
C83   H111  1.071259 S    
P6    O38   1.757055 S    
C16   C20   1.514339 S    
P6    O45   1.603411 S    
P5    O46   1.617840 S    
C17   H37   1.107467 S    
C24   H56   1.112032 S    
H2    C30   1.112136 S    
C15   H35   1.103681 S    
C28   O52   1.405625 S    
C25   H61   1.110802 S    
C23   H51   1.105061 S    
O5    Ba2   2.861774 S    
O10   Ba2   2.873020 S    
P8    O40   1.756997 S    
C44   C48   1.408422 A    
C80   H108  1.096734 S    
C1    H9    1.106918 S    
C76   H98   1.096683 S    
C4    H6    1.104362 S    
C67   C71   1.404208 A    
P10   O42   1.750384 S    
O40   C15   1.401984 S    
C13   H33   1.103607 S    
O11   P16   1.755934 S    
C28   H64   1.106701 S    
O14   P13   1.542508 D    
C34   C82   1.448967 S    
C18   H46   1.108407 S    
O43   C7    1.410625 S    
C69   H83   1.056178 S    
C7    H19   1.112601 S    
C43   C57   1.408118 A    
C50   C54   1.458987 A    
C59   C63   1.451198 A    
P7    Ba3   3.460756 S    
C49   C53   1.452938 A    
P5    O25   1.548196 D    
H4    C32   1.112355 S    
P8    C63   1.931644 S    
C44   C58   1.416143 A    
C25   H57   1.101251 S    
C9    H75   1.109896 S    
C3    H69   1.109582 S    
C33   C61   1.412148 A    
O7    Ba4   2.861774 S    
C10   H76   1.108417 S    
P5    Ba1   3.460756 S    
O12   Ba4   2.873020 S    
C73   H89   1.107925 S    
C22   C26   1.530622 S    
C74   H93   1.098820 S    
C65   C69   1.404163 A    
C72   H82   1.067860 S    
P3    O7    1.598145 S    
Ba4   O48   2.885396 S    
C43   H77   1.076433 S    
Ba2   O45   2.974371 S    
O21   P14   1.731563 S    
C21   H53   1.103804 S    
P8    O28   1.546475 D    
P12   O32   1.722725 S    
C6    H14   1.110582 S    
C34   C62   1.413976 A    
O1    Ba1   2.885775 S    
O19   C23   1.393237 S    
C55   C57   1.447863 A    
C5    H13   1.110709 S    
P1    C49   1.922195 S    
C2    H8    1.104270 S    
C10   H24   1.108610 S    
C37   C49   1.386881 A    
C38   C46   1.389287 A    
H1    C29   1.111755 S    
C80   H107  1.101372 S    
C66   C70   1.412495 A    
O50   C75   1.401510 S    
C25   O49   1.425745 S    
C36   C84   1.448895 S    
C70   H84   1.067944 S    
C35   C83   1.456356 S    
C36   C64   1.413983 A    
C77   C78   1.513417 S    
C22   H54   1.112047 S    
