data_mof_unit_30450.cif
_audit_creation_date              2012-10-26T18:40:06-0400
_audit_creation_method            fapswitch 2.2
_symmetry_space_group_name_H-M    P1
_symmetry_Int_Tables_number       1
_space_group_crystal_system       triclinic
_cell_length_a                    8.79966
_cell_length_b                    15.136168
_cell_length_c                    13.862291
_cell_angle_alpha                 89.667289
_cell_angle_beta                  98.068036
_cell_angle_gamma                 90.376739
_cell_volume                      1828.02510672

loop_
_atom_site_label
_atom_site_type_symbol
_atom_type_description
_atom_site_fract_x
_atom_site_fract_y
_atom_site_fract_z
_atom_type_partial_charge
C1    C     C_R   0.508455 0.329856 0.500853 0.551978
C2    C     C_R   0.483131 0.579699 0.890451 -0.048053
C3    C     C_R   0.497021 0.500561 0.054883 0.062055
C4    C     C_R   0.496423 0.500604 0.945497 0.058031
C5    C     C_R   0.204304 0.499098 0.475449 0.545631
C6    C     C_R   0.795701 0.501124 0.524532 0.538769
C7    C     C_2   0.040508 0.488075 0.463806 -0.062042
C8    C     C_2   0.959485 0.512354 0.536091 -0.063815
C9    C     C_R   0.556560 0.092545 0.587025 0.240481
C10   C     C_R   0.384318 0.906641 0.452781 0.243561
C11   C     C_R   0.570836 0.184684 0.587346 -0.025970
C12   C     C_R   0.498446 0.669541 0.499613 0.551398
C13   C     C_R   0.377126 0.814111 0.451824 -0.011110
C14   C     C_R   0.522671 0.232970 0.501271 -0.062117
C15   C     C_R   0.501121 0.765243 0.499135 -0.049089
C16   C     C_R   0.492453 0.187733 0.412520 -0.166094
C17   C     C_R   0.633024 0.807560 0.544274 -0.164460
C18   C     C_R   0.503071 0.096132 0.409569 -0.024967
C19   C     C_R   0.644904 0.899059 0.542030 -0.011086
C20   C     C_R   0.527342 0.047403 0.497422 0.012667
C21   C     C_R   0.519795 0.949724 0.496974 0.020604
C22   C     C_1   0.974114 0.440063 0.377183 0.203753
C23   C     C_R   0.617069 0.542485 0.116978 0.248589
C24   C     C_1   0.026097 0.559952 0.622973 0.234487
C25   C     C_3   0.449420 0.040063 0.716102 -0.015562
C26   C     C_3   0.485548 0.000331 0.817646 -0.340150
C27   C     C_3   0.163151 0.981393 0.464239 -0.004551
C28   C     C_3   0.029920 0.029672 0.405016 -0.337356
C29   C     C_1   0.656570 0.225609 0.672172 0.237835
C30   C     C_1   0.241172 0.770028 0.403373 0.254131
C31   C     C_1   0.491879 0.054063 0.315465 0.253107
C32   C     C_1   0.787957 0.938685 0.585482 0.250085
C33   C     C_3   0.876968 0.560774 0.115335 -0.005070
C34   C     C_R   0.506112 0.420420 0.895211 0.249621
C35   C     C_3   0.992556 0.599773 0.054779 -0.325578
C36   C     C_3   0.437535 0.272239 0.905473 -0.017267
C37   C     C_3   0.417992 0.202695 0.982517 -0.335274
C38   C     C_1   0.248141 0.418561 0.039875 0.171330
C39   C     C_1   0.461613 0.663581 0.935565 0.224060
C40   C     C_R   0.612728 0.543274 0.218938 0.071580
C41   C     C_R   0.507020 0.422543 0.792682 0.055046
C42   C     C_R   0.385172 0.457737 0.200215 0.014978
C43   C     C_R   0.486204 0.577588 0.789164 0.033852
C44   C     C_R   0.379460 0.458184 0.098232 -0.055913
Cu1   Cu    Cu3+1 0.500000 0.499990 0.596430 0.984851
Cu2   Cu    Cu3+1 0.500000 0.500010 0.403570 0.980879
H1    H     H_    0.464299 0.223910 0.344666 0.151256
H2    H     H_    0.378575 0.994202 0.851249 0.116531
H3    H     H_    0.536429 0.933722 0.813494 0.181038
H4    H     H_    0.220131 0.027960 0.519813 0.124372
H5    H     H_    0.116823 0.923580 0.501047 0.151454
H6    H     H_    0.965088 0.983821 0.351815 0.175594
H7    H     H_    0.951143 0.055699 0.453789 0.124826
H8    H     H_    0.073911 0.086021 0.365077 0.169677
H9    H     H_    0.886066 0.487362 0.113841 0.172021
H10   H     H_    0.908216 0.584750 0.191192 0.143922
H11   H     H_    0.982587 0.672886 0.052013 0.184304
H12   H     H_    0.728700 0.768647 0.579201 0.133272
H13   H     H_    0.110760 0.582444 0.088094 0.113455
H14   H     H_    0.971279 0.573389 0.979451 0.181951
H15   H     H_    0.321121 0.294369 0.872287 0.145636
H16   H     H_    0.496297 0.240506 0.849049 0.144361
H17   H     H_    0.346414 0.147229 0.948987 0.107468
H18   H     H_    0.531816 0.176691 0.014559 0.175296
H19   H     H_    0.360906 0.231825 0.041305 0.179762
H20   H     H_    0.698437 0.579558 0.266657 0.135124
H21   H     H_    0.513179 0.361891 0.754283 0.140749
H22   H     H_    0.295595 0.424620 0.233013 0.145067
H23   H     H_    0.475276 0.639055 0.749033 0.151142
H24   H     H_    0.365546 0.995908 0.672003 0.129697
H25   H     H_    0.396828 0.106185 0.722902 0.116592
H26   H     H_    0.567979 0.043471 0.864046 0.169478
N1    N     N_R   0.500000 0.500020 0.258690 -0.260257
N2    N     N_1   0.444299 0.730807 0.971728 -0.266284
N3    N     N_R   0.500000 0.499980 0.741310 -0.257927
N4    N     N_1   0.921928 0.401649 0.308328 -0.311014
N5    N     N_1   0.078560 0.597880 0.692120 -0.287839
N6    N     N_1   0.729147 0.256884 0.739605 -0.282660
N7    N     N_1   0.132516 0.734716 0.364738 -0.297895
N8    N     N_1   0.483049 0.020449 0.240094 -0.264661
N9    N     N_1   0.902064 0.970194 0.621341 -0.312290
N10   N     N_1   0.142331 0.387095 0.993316 -0.293812
O1    O     O_R   0.500010 0.371450 0.581430 -0.516779
O2    O     O_3   0.265627 0.954183 0.400873 -0.547390
O3    O     O_3   0.728444 0.589131 0.075879 -0.562969
O4    O     O_3   0.527926 0.342669 0.949453 -0.548939
O5    O     O_R   0.499990 0.628550 0.418570 -0.489220
O6    O     O_R   0.500010 0.371460 0.418560 -0.496301
O7    O     O_R   0.499990 0.628540 0.581440 -0.514626
O8    O     O_R   0.274840 0.499990 0.562640 -0.490455
O9    O     O_R   0.725160 0.500010 0.437360 -0.505240
O10   O     O_R   0.274840 0.500000 0.399770 -0.502380
O11   O     O_R   0.725160 0.500000 0.600230 -0.479844
O12   O     O_3   0.586122 0.046271 0.674046 -0.543098

loop_
_geom_bond_atom_site_label_1
_geom_bond_atom_site_label_2
_ccdc_geom_bond_type
C33   H9    S    
C26   H26   S    
C3    C23   A    
C22   N4    T    
Cu1   O11   S    
C31   N8    T    
C41   H21   S    
Cu1   Cu2   S    
C32   N9    T    
C36   C37   S    
C19   C21   A    
C33   C35   S    
C11   C14   A    
Cu2   O10   S    
C23   C40   A    
C40   N1    A    
C35   H13   S    
C34   O4    S    
C39   N2    T    
C33   O3    S    
C17   C19   A    
C2    C39   S    
C29   N6    T    
C37   H19   S    
C25   H25   S    
Cu1   O7    S    
C5    O8    A    
C27   H4    S    
C26   H2    S    
C17   H12   S    
C1    O6    A    
C25   O12   S    
C43   H23   S    
C40   H20   S    
C38   N10   T    
C42   H22   S    
C1    C14   S    
Cu1   O1    S    
C34   C41   A    
C42   C44   A    
C36   H16   S    
C19   C32   S    
C16   H1    S    
C37   H17   S    
C27   H5    S    
Cu2   O6    S    
C10   C21   A    
C43   N3    A    
C4    C34   A    
C3    C44   A    
C12   O7    A    
C7    C8    D    
C26   H3    S    
C5    C7    S    
C28   H8    S    
C6    C8    S    
Cu2   O9    S    
C36   O4    S    
C25   C26   S    
C35   H14   S    
C2    C4    A    
C38   C44   S    
C41   N3    A    
C13   C30   S    
C9    C20   A    
C12   C15   S    
C2    C43   A    
C6    O11   A    
Cu1   O8    S    
C9    C11   A    
C30   N7    T    
C13   C15   A    
C14   C16   A    
C6    O9    A    
C36   H15   S    
C37   H18   S    
Cu2   O5    S    
C15   C17   A    
C27   O2    S    
C42   N1    A    
C12   O5    A    
C10   C13   A    
C28   H7    S    
C18   C31   S    
C1    O1    A    
C7    C22   S    
C35   H11   S    
Cu1   N3    S    
C28   H6    S    
C33   H10   S    
C10   O2    S    
C8    C24   S    
C18   C20   A    
C5    O10   A    
C24   N5    T    
C20   C21   S    
C11   C29   S    
C16   C18   A    
C23   O3    S    
C27   C28   S    
C25   H24   S    
C9    O12   S    
Cu2   N1    S    
C3    C4    S    
