data_mof_unit_8765.cif
_audit_creation_date              2012-12-10T19:27:37-0500
_audit_creation_method            fapswitch 2.2
_symmetry_space_group_name_H-M    P1
_symmetry_Int_Tables_number       1
_space_group_crystal_system       triclinic
_cell_length_a                    23.388283
_cell_length_b                    10.509416
_cell_length_c                    9.790897
_cell_angle_alpha                 88.808178
_cell_angle_beta                  90.198756
_cell_angle_gamma                 89.742989
_cell_volume                      2406.01491299

loop_
_atom_site_label
_atom_site_type_symbol
_atom_type_description
_atom_site_fract_x
_atom_site_fract_y
_atom_site_fract_z
_atom_type_partial_charge
C1    C     C_R   0.499716 0.257754 0.501206 0.885584
C2    C     C_R   0.500284 0.742246 0.498794 0.885584
C3    C     C_R   0.236076 0.589180 0.448479 -0.132042
C4    C     C_R   0.763923 0.410815 0.551520 -0.132039
C5    C     C_R   0.295274 0.596184 0.447683 -0.048159
C6    C     C_R   0.704726 0.403813 0.552316 -0.048159
C7    C     C_R   0.327746 0.493430 0.500729 -0.126320
C8    C     C_R   0.672254 0.506568 0.499271 -0.126321
C9    C     C_R   0.300499 0.384729 0.556900 -0.091154
C10   C     C_R   0.699501 0.615269 0.443101 -0.091153
C11   C     C_R   0.240578 0.378677 0.556660 0.002716
C12   C     C_R   0.759423 0.621320 0.443340 0.002714
C13   C     C_R   0.208887 0.481599 0.502220 0.243210
C14   C     C_R   0.791113 0.518396 0.497780 0.243211
C15   C     C_3   0.501499 0.036783 0.631483 -0.167792
C16   C     C_3   0.498501 0.963217 0.368517 -0.167793
C17   C     C_3   0.548142 0.955633 0.561712 -0.199579
C18   C     C_3   0.451858 0.044367 0.438288 -0.199580
C19   C     C_3   0.500383 0.877240 0.497055 -0.045787
C20   C     C_3   0.499617 0.122760 0.502945 -0.045787
C21   C     C_3   0.454515 0.956548 0.565758 0.025531
C22   C     C_3   0.545485 0.043452 0.434242 0.025531
C23   C     C_R   0.389793 0.499930 0.499981 0.876866
C24   C     C_R   0.610207 0.500070 0.500019 0.876868
C25   C     C_3   0.475287 0.398980 0.051103 -0.123205
C26   C     C_3   0.524713 0.601020 0.948897 -0.123205
C27   C     C_3   0.526630 0.403137 0.955397 0.081446
C28   C     C_3   0.473370 0.596863 0.044603 0.081446
C29   C     C_3   0.448224 0.497294 0.950713 -0.111096
C30   C     C_3   0.551776 0.502706 0.049287 -0.111097
C31   C     C_R   0.880679 0.548253 0.611983 0.528267
C32   C     C_R   0.119321 0.451745 0.388019 0.528266
C33   C     C_R   0.879390 0.484805 0.378970 0.516228
C34   C     C_R   0.120610 0.515191 0.621032 0.516234
C35   C     C_R   0.939574 0.476575 0.376334 -0.058884
C36   C     C_R   0.060426 0.523425 0.623670 -0.058878
C37   C     C_R   0.969921 0.504422 0.497935 -0.025065
C38   C     C_R   0.030080 0.495577 0.502068 -0.025065
C39   C     C_R   0.940188 0.540989 0.615854 -0.022250
C40   C     C_R   0.059812 0.459010 0.384149 -0.022255
C41   C     C_R   0.970558 0.440497 0.258674 -0.022608
C42   C     C_R   0.029443 0.559509 0.741331 -0.022607
C43   C     C_R   0.029929 0.431810 0.264269 -0.188725
C44   C     C_R   0.970071 0.568196 0.735734 -0.188720
H1    H     H_    0.454982 0.313645 0.098493 0.143228
H2    H     H_    0.545018 0.686355 0.901507 0.143228
H3    H     H_    0.052913 0.403788 0.173569 0.197124
H4    H     H_    0.947087 0.596225 0.826434 0.197122
H5    H     H_    0.210554 0.668374 0.409361 0.153696
H6    H     H_    0.789445 0.331620 0.590638 0.153696
H7    H     H_    0.587458 0.915642 0.610245 0.162986
H8    H     H_    0.412542 0.084358 0.389755 0.162985
H9    H     H_    0.501195 0.069122 0.738556 0.171345
H10   H     H_    0.498805 0.930878 0.261444 0.171344
N1    N     N_R   0.852002 0.519583 0.495410 -0.353552
N2    N     N_R   0.147998 0.480412 0.504591 -0.353552
N3    N     N_3   0.499960 0.500030 0.863290 -0.098004
N4    N     N_3   0.500040 0.499970 0.136710 -0.098004
O1    O     O_R   0.500000 0.313960 0.616610 -0.613771
O2    O     O_R   0.500000 0.686040 0.383390 -0.613771
O3    O     O_R   0.500030 0.313950 0.383350 -0.626792
O4    O     O_R   0.499970 0.686050 0.616650 -0.626792
O5    O     O_R   0.416140 0.499970 0.616650 -0.612311
O6    O     O_R   0.583860 0.500030 0.383350 -0.612311
O7    O     O_R   0.416170 0.499960 0.383400 -0.610390
O8    O     O_R   0.583830 0.500040 0.616600 -0.610389
O9    O     O_2   0.851358 0.582789 0.723979 -0.535991
O10   O     O_2   0.148643 0.417208 0.276022 -0.535990
O11   O     O_2   0.847970 0.457231 0.267720 -0.533313
O12   O     O_2   0.152029 0.542759 0.732283 -0.533317
Zn1   Zn    Zn3+2 0.499980 0.500010 0.655740 0.971332
Zn2   Zn    Zn3+2 0.500020 0.499990 0.344260 0.971332
C45   C     C_1   0.943778 0.411583 0.129674 0.281210
N5    N     N_1   0.922590 0.388292 0.026194 -0.147758
C46   C     C_1   0.056223 0.588438 0.870329 0.281207
N6    N     N_1   0.077411 0.611743 0.973807 -0.147760
C47   C     C_1   0.557151 0.291674 0.905515 0.195301
N7    N     N_1   0.581369 0.202841 0.868305 -0.192709
C48   C     C_1   0.442848 0.708325 0.094485 0.195301
N8    N     N_1   0.418631 0.797158 0.131696 -0.192708
H11   H     H_    0.404712 0.496046 0.905065 0.156428
H12   H     H_    0.595288 0.503954 0.094935 0.156428
C49   C     C_1   0.321376 0.712996 0.399943 0.202828
N9    N     N_1   0.341796 0.807467 0.362659 -0.182984
C50   C     C_1   0.678623 0.287001 0.600055 0.202828
N10   N     N_1   0.658203 0.192530 0.637339 -0.182985
C51   C     C_1   0.333904 0.280263 0.615096 0.182321
N11   N     N_1   0.360581 0.197281 0.662113 -0.200006
C52   C     C_1   0.666097 0.719736 0.384906 0.182321
N12   N     N_1   0.639421 0.802719 0.337890 -0.200005
C53   C     C_1   0.211203 0.268121 0.611823 0.226586
N13   N     N_1   0.187679 0.179835 0.655878 -0.163700
C54   C     C_1   0.788798 0.731876 0.388179 0.226581
N14   N     N_1   0.812322 0.820162 0.344125 -0.163701
C55   C     C_1   0.405027 0.904574 0.639573 0.201387
N15   N     N_1   0.366119 0.863450 0.697993 -0.171671
C56   C     C_1   0.594973 0.095426 0.360427 0.201388
N16   N     N_1   0.633881 0.136550 0.302007 -0.171671

loop_
_geom_bond_atom_site_label_1
_geom_bond_atom_site_label_2
_ccdc_geom_bond_type
C33   N1    A    
C44   H4    S    
C51   N11   T    
C34   N2    A    
C54   N14   T    
C18   C21   S    
C45   N5    T    
C36   C42   A    
C55   N15   T    
O6    Zn2   S    
C17   H7    S    
C56   N16   T    
C3    H5    S    
C18   H8    S    
C47   N7    T    
C31   O9    S    
C42   C46   S    
C6    C50   S    
C15   H9    S    
C28   C29   S    
C19   C21   S    
C1    O1    A    
C5    C49   S    
C2    O2    A    
O2    Zn2   S    
C7    C9    A    
C28   C48   S    
C8    C24   S    
C40   C43   A    
C49   N9    T    
C10   C52   S    
C34   O12   S    
C18   C20   S    
C3    C13   A    
C33   O11   S    
C32   O10   S    
C13   N2    S    
C23   O5    A    
C14   N1    S    
C24   O6    A    
C22   C56   S    
C27   C30   S    
C41   C43   A    
C42   C44   A    
C25   C29   S    
C15   C20   S    
C4    C6    A    
C27   N3    S    
C53   N13   T    
C5    C7    A    
C6    C8    A    
C21   C55   S    
C3    C5    A    
C50   N10   T    
C4    H6    S    
C30   H12   S    
C46   N6    T    
C29   H11   S    
C37   C38   A    
O8    Zn1   S    
N3    Zn1   S    
C9    C11   A    
C10   C12   A    
O3    Zn2   S    
C8    C10   A    
C29   N3    S    
C26   C30   S    
C28   N4    S    
C12   C54   S    
C25   N4    S    
C20   C22   S    
C25   H1    S    
C15   C17   S    
C1    C20   S    
C16   C22   S    
C35   C37   A    
C2    C19   S    
O5    Zn1   S    
C27   C47   S    
C1    O3    A    
C39   C44   A    
C24   O8    A    
C25   C27   S    
O7    Zn2   S    
C26   C28   S    
C17   C22   S    
C23   O7    A    
C36   C38   A    
C12   C14   A    
C37   C39   A    
C9    C51   S    
C38   C40   A    
C11   C13   A    
C33   C35   A    
N4    Zn2   S    
C16   C19   S    
C7    C23   S    
C30   N4    S    
C17   C19   S    
C31   C39   A    
O4    Zn1   S    
C34   C36   A    
C32   C40   A    
C4    C14   A    
C35   C41   A    
C26   N3    S    
C16   H10   S    
C26   H2    S    
C41   C45   S    
C48   N8    T    
C11   C53   S    
C15   C21   S    
C16   C18   S    
C31   N1    A    
C52   N12   T    
C43   H3    S    
C32   N2    A    
C2    O4    A    
O1    Zn1   S    
