data_mof_unit_64295.cif
_audit_creation_date              2012-12-10T16:55:22-0500
_audit_creation_method            fapswitch 2.2
_symmetry_space_group_name_H-M    P1
_symmetry_Int_Tables_number       1
_space_group_crystal_system       triclinic
_cell_length_a                    29.329203
_cell_length_b                    30.366572
_cell_length_c                    21.365896
_cell_angle_alpha                 89.337735
_cell_angle_beta                  133.114963
_cell_angle_gamma                 90.743469
_cell_volume                      13889.6357504

loop_
_atom_site_label
_atom_site_type_symbol
_atom_type_description
_atom_site_fract_x
_atom_site_fract_y
_atom_site_fract_z
_atom_type_partial_charge
C1    C     C_R   0.307984 0.190357 0.117744 0.795251
C2    C     C_R   0.665771 0.908165 0.752753 0.072312
C3    C     C_R   0.304538 0.806376 0.249814 -0.141708
C4    C     C_R   0.745938 0.642321 0.158415 -0.140861
C5    C     C_R   0.254062 0.357679 0.841586 -0.140862
C6    C     C_R   0.195463 0.693624 0.750186 -0.141709
C7    C     C_R   0.804536 0.306376 0.249813 -0.141708
C8    C     C_R   0.211031 0.114700 0.164665 -0.162255
C9    C     C_R   0.788969 0.885300 0.835334 -0.162255
C10   C     C_R   0.687946 0.201320 0.679457 -0.162038
C11   C     C_R   0.312055 0.798679 0.320544 -0.162038
C12   C     C_R   0.711031 0.614700 0.164666 -0.162255
C13   C     C_R   0.618939 0.133574 0.675592 0.043404
C14   C     C_R   0.288969 0.385300 0.835335 -0.162255
C15   C     C_R   0.187946 0.701320 0.679457 -0.162038
C16   C     C_R   0.812053 0.298680 0.320542 -0.162038
C17   C     C_R   0.234571 0.074007 0.204786 -0.190853
C18   C     C_R   0.765428 0.925993 0.795214 -0.190852
C19   C     C_R   0.643329 0.177869 0.604648 -0.176741
C20   C     C_R   0.356672 0.822130 0.395353 -0.176742
C21   C     C_R   0.734571 0.574007 0.204786 -0.190851
C22   C     C_R   0.265429 0.425993 0.795214 -0.190852
C23   C     C_R   0.143329 0.677869 0.604648 -0.176742
C24   C     C_R   0.381062 0.866425 0.324408 0.043404
C25   C     C_R   0.856670 0.322131 0.395351 -0.176742
C26   C     C_R   0.294977 0.061548 0.243900 0.185537
C27   C     C_R   0.705023 0.938452 0.756100 0.185536
C28   C     C_R   0.608000 0.144631 0.601090 0.165011
C29   C     C_R   0.392001 0.855368 0.398911 0.165010
C30   C     C_R   0.794977 0.561548 0.243900 0.185536
C31   C     C_R   0.205023 0.438452 0.756100 0.185536
C32   C     C_R   0.107999 0.644632 0.601090 0.165010
C33   C     C_R   0.892000 0.355369 0.398910 0.165011
C34   C     C_R   0.834229 0.591835 0.247247 0.072312
C35   C     C_R   0.165771 0.408165 0.752753 0.072312
C36   C     C_R   0.118939 0.633574 0.675592 0.043404
C37   C     C_R   0.881061 0.366426 0.324407 0.043404
C38   C     C_R   0.306680 0.130490 0.196313 0.020112
C39   C     C_R   0.693320 0.869510 0.803687 0.020113
C40   C     C_R   0.659089 0.161355 0.747905 0.003419
C41   C     C_R   0.692015 0.809643 0.882256 0.795251
C42   C     C_R   0.340912 0.838644 0.252095 0.003419
C43   C     C_R   0.806680 0.630490 0.196313 0.020112
C44   C     C_R   0.193320 0.369510 0.803687 0.020112
C45   C     C_R   0.159088 0.661355 0.747905 0.003419
C46   C     C_R   0.840911 0.338645 0.252095 0.003419
C47   C     C_R   0.339431 0.155637 0.181670 -0.178988
C48   C     C_R   0.660569 0.844363 0.818330 -0.178988
C49   C     C_R   0.662211 0.156461 0.816581 -0.124746
C50   C     C_R   0.337789 0.843539 0.183419 -0.124746
C51   C     C_R   0.839431 0.655637 0.181670 -0.178988
C52   C     C_R   0.692189 0.190315 0.882116 0.840325
C53   C     C_R   0.160569 0.344363 0.818330 -0.178988
C54   C     C_R   0.162211 0.656461 0.816581 -0.124746
C55   C     C_R   0.837789 0.343539 0.183419 -0.124746
C56   C     C_R   0.398250 0.142442 0.215637 0.149142
C57   C     C_R   0.601749 0.857558 0.784363 0.149142
C58   C     C_R   0.632675 0.121013 0.819651 0.098462
C59   C     C_R   0.367325 0.878987 0.180349 0.098463
C60   C     C_R   0.898250 0.642442 0.215637 0.149143
C61   C     C_R   0.101749 0.357557 0.784363 0.149143
C62   C     C_R   0.132675 0.621013 0.819651 0.098462
C63   C     C_R   0.307811 0.809685 0.117884 0.840325
C64   C     C_R   0.867326 0.378987 0.180349 0.098462
C65   C     C_R   0.427583 0.106607 0.271095 0.142417
C66   C     C_R   0.572417 0.893393 0.728905 0.142416
C67   C     C_R   0.598815 0.090224 0.753100 0.079779
C68   C     C_R   0.401184 0.909776 0.246899 0.079779
C69   C     C_R   0.927583 0.606607 0.271095 0.142416
C70   C     C_R   0.072417 0.393393 0.728905 0.142417
C71   C     C_R   0.098816 0.590224 0.753100 0.079779
C72   C     C_R   0.901185 0.409775 0.246900 0.079780
C73   C     C_R   0.398581 0.084001 0.294907 -0.227124
C74   C     C_R   0.807985 0.690357 0.117744 0.795251
C75   C     C_R   0.601419 0.915999 0.705093 -0.227124
C76   C     C_R   0.591156 0.096612 0.680907 -0.144222
C77   C     C_R   0.408844 0.903388 0.319093 -0.144222
C78   C     C_R   0.898581 0.584001 0.294907 -0.227124
C79   C     C_R   0.101419 0.415999 0.705093 -0.227124
C80   C     C_R   0.091156 0.596612 0.680907 -0.144222
C81   C     C_R   0.908844 0.403388 0.319093 -0.144223
C82   C     C_R   0.941923 0.437746 0.384286 0.955282
C83   C     C_R   0.058077 0.562253 0.615713 0.955282
C84   C     C_R   0.063906 0.444859 0.628440 0.909220
C85   C     C_R   0.192016 0.309643 0.882256 0.795251
C86   C     C_R   0.936094 0.555141 0.371560 0.909220
C87   C     C_R   0.441923 0.937747 0.384286 0.955283
C88   C     C_R   0.558077 0.062253 0.615713 0.955282
C89   C     C_R   0.563906 0.944859 0.628440 0.909220
C90   C     C_R   0.436094 0.055141 0.371560 0.909220
C91   C     C_R   0.334665 0.249972 0.000229 0.774911
C92   C     C_R   0.665335 0.750028 0.999771 0.774911
C93   C     C_R   0.665578 0.249791 0.000366 0.789970
C94   C     C_R   0.334422 0.750208 0.999634 0.789969
C95   C     C_R   0.834665 0.749972 0.000229 0.774911
C96   C     C_R   0.192189 0.690315 0.882116 0.840325
C97   C     C_R   0.165334 0.250028 0.999771 0.774911
C98   C     C_R   0.165578 0.749791 0.000366 0.789970
C99   C     C_R   0.834422 0.250209 0.999634 0.789969
C100  C     C_1   0.386185 0.250043 0.000721 -0.193406
C101  C     C_1   0.613815 0.749957 0.999278 -0.193405
C102  C     C_1   0.614656 0.249594 0.001084 -0.188158
C103  C     C_1   0.385344 0.750406 0.998916 -0.188159
C104  C     C_1   0.886185 0.750043 0.000721 -0.193406
C105  C     C_1   0.113815 0.249957 0.999278 -0.193405
C106  C     C_1   0.114656 0.749594 0.001084 -0.188158
C107  C     C_R   0.807811 0.309685 0.117884 0.840326
C108  C     C_1   0.885344 0.250406 0.998916 -0.188159
C109  C     C_1   0.428814 0.249995 0.000987 0.001455
C110  C     C_1   0.571185 0.750005 0.999013 0.001455
C111  C     C_1   0.572266 0.249617 0.001306 -0.002322
C112  C     C_1   0.427734 0.750383 0.998693 -0.002322
C113  C     C_1   0.928815 0.749995 0.000987 0.001455
C114  C     C_1   0.071185 0.250005 0.999013 0.001455
C115  C     C_1   0.072266 0.749617 0.001306 -0.002322
C116  C     C_1   0.927734 0.250383 0.998693 -0.002322
C117  C     C_1   0.479318 0.249867 0.001206 0.002033
C118  C     C_R   0.334229 0.091835 0.247247 0.072311
C119  C     C_1   0.520682 0.750132 0.998794 0.002033
C120  C     C_1   0.521873 0.249742 0.001314 0.001536
C121  C     C_1   0.478127 0.750258 0.998686 0.001536
C122  C     C_1   0.979318 0.749868 0.001206 0.002033
C123  C     C_1   0.020682 0.250132 0.998794 0.002033
C124  C     C_1   0.021873 0.749742 0.001314 0.001536
C125  C     C_1   0.978127 0.250258 0.998686 0.001536
C126  C     C_R   0.245938 0.142321 0.158415 -0.140861
C127  C     C_R   0.754062 0.857679 0.841585 -0.140862
C128  C     C_R   0.695463 0.193624 0.750187 -0.141709
Cu1   Cu    Cu3+1 0.280720 0.280980 0.061500 0.954810
Cu2   Cu    Cu3+1 0.957580 0.500000 0.500070 0.946281
Cu3   Cu    Cu3+1 0.542420 1.000000 0.499930 0.946280
Cu4   Cu    Cu3+1 0.457580 0.000000 0.500070 0.946281
Cu5   Cu    Cu3+1 0.719280 0.719020 0.938500 0.954810
Cu6   Cu    Cu3+1 0.719280 0.280980 0.938500 0.967531
Cu7   Cu    Cu3+1 0.280720 0.719020 0.061500 0.967531
Cu8   Cu    Cu3+1 0.780720 0.780980 0.061500 0.954810
Cu9   Cu    Cu3+1 0.219280 0.219020 0.938500 0.954810
Cu10  Cu    Cu3+1 0.219280 0.780980 0.938500 0.967531
Cu11  Cu    Cu3+1 0.780720 0.219020 0.061500 0.967531
Cu12  Cu    Cu3+1 0.042420 0.500000 0.499930 0.946280
H1    H     H_    0.224643 0.172713 0.122722 0.124745
H2    H     H_    0.835700 0.876042 0.865442 0.147185
H3    H     H_    0.715733 0.226404 0.681982 0.145061
H4    H     H_    0.284269 0.773595 0.318020 0.145060
H5    H     H_    0.664300 0.623958 0.134558 0.147185
H6    H     H_    0.335700 0.376043 0.865443 0.147185
H7    H     H_    0.215732 0.726404 0.681981 0.145060
H8    H     H_    0.784266 0.273596 0.318018 0.145061
H9    H     H_    0.205018 0.051330 0.203262 0.134791
H10   H     H_    0.794982 0.948670 0.796737 0.134790
H11   H     H_    0.635768 0.185630 0.548536 0.136505
H12   H     H_    0.775356 0.827287 0.877278 0.124746
H13   H     H_    0.364234 0.814369 0.451465 0.136505
H14   H     H_    0.705018 0.551330 0.203262 0.134790
H15   H     H_    0.294982 0.448670 0.796738 0.134790
H16   H     H_    0.135767 0.685630 0.548536 0.136505
H17   H     H_    0.864231 0.314370 0.451463 0.136505
H18   H     H_    0.435059 0.198110 0.211207 0.218954
H19   H     H_    0.400652 0.163432 0.127305 0.214256
H20   H     H_    0.564941 0.801890 0.788793 0.218954
H21   H     H_    0.599348 0.836568 0.872696 0.214256
H22   H     H_    0.591487 0.117703 0.866632 0.213678
H23   H     H_    0.730578 0.212957 0.806939 0.138466
H24   H     H_    0.657123 0.086874 0.921176 0.223068
H25   H     H_    0.408512 0.882297 0.133366 0.213678
H26   H     H_    0.342876 0.913126 0.078824 0.223068
H27   H     H_    0.935059 0.698110 0.211207 0.218954
H28   H     H_    0.900652 0.663432 0.127304 0.214256
H29   H     H_    0.064941 0.301890 0.788793 0.218954
H30   H     H_    0.099348 0.336567 0.872695 0.214256
H31   H     H_    0.091487 0.617703 0.866633 0.213678
H32   H     H_    0.157123 0.586874 0.921176 0.223069
H33   H     H_    0.908514 0.382296 0.133368 0.213678
H34   H     H_    0.269422 0.787042 0.193061 0.138467
H35   H     H_    0.842878 0.413125 0.078825 0.223069
H36   H     H_    0.281324 0.996795 0.214584 0.207034
H37   H     H_    0.306791 0.008272 0.311264 0.227676
H38   H     H_    0.693209 0.991728 0.688736 0.227676
H39   H     H_    0.718676 0.003205 0.785416 0.207034
H40   H     H_    0.580355 0.109736 0.501320 0.221597
H41   H     H_    0.529042 0.148735 0.475483 0.209936
H42   H     H_    0.470960 0.851265 0.524517 0.209936
H43   H     H_    0.419646 0.890264 0.498681 0.221597
H44   H     H_    0.781324 0.496795 0.214584 0.207034
H45   H     H_    0.724644 0.672713 0.122722 0.124746
H46   H     H_    0.806791 0.508272 0.311264 0.227676
H47   H     H_    0.193209 0.491728 0.688736 0.227676
H48   H     H_    0.218675 0.503205 0.785416 0.207034
H49   H     H_    0.080355 0.609736 0.501320 0.221597
H50   H     H_    0.029041 0.648735 0.475483 0.209936
H51   H     H_    0.970957 0.351265 0.524517 0.209936
H52   H     H_    0.919644 0.390264 0.498680 0.221597
H53   H     H_    0.482413 0.058645 0.286154 0.234932
H54   H     H_    0.522200 0.099358 0.362189 0.226165
H55   H     H_    0.517587 0.941355 0.713846 0.234933
H56   H     H_    0.275357 0.327287 0.877278 0.124746
H57   H     H_    0.477800 0.900642 0.637812 0.226165
H58   H     H_    0.608706 0.033688 0.813237 0.214253
H59   H     H_    0.541550 0.061587 0.764339 0.222330
H60   H     H_    0.391293 0.966312 0.186763 0.214252
H61   H     H_    0.458449 0.938413 0.235659 0.222330
H62   H     H_    0.982413 0.558645 0.286154 0.234932
H63   H     H_    0.022200 0.599358 0.362188 0.226165
H64   H     H_    0.017587 0.441354 0.713846 0.234933
H65   H     H_    0.977800 0.400642 0.637811 0.226165
H66   H     H_    0.108706 0.533688 0.813237 0.214252
H67   H     H_    0.230578 0.712958 0.806939 0.138466
H68   H     H_    0.041550 0.561587 0.764340 0.222330
H69   H     H_    0.891295 0.466311 0.186763 0.214252
H70   H     H_    0.958451 0.438412 0.235661 0.222330
H71   H     H_    0.769421 0.287043 0.193060 0.138466
H72   H     H_    0.164299 0.123957 0.134558 0.147185
N1    N     N_3   0.429092 0.165053 0.193689 -0.550259
N2    N     N_3   0.687626 0.983585 0.730881 -0.580841
N3    N     N_3   0.559283 0.124259 0.520172 -0.594155
N4    N     N_3   0.440718 0.875741 0.479829 -0.594155
N5    N     N_3   0.812374 0.516415 0.269118 -0.580842
N6    N     N_3   0.187626 0.483585 0.730882 -0.580840
N7    N     N_3   0.059283 0.624259 0.520172 -0.594155
N8    N     N_3   0.940716 0.375741 0.479828 -0.594155
N9    N     N_3   0.485086 0.092393 0.297569 -0.546161
N10   N     N_3   0.514914 0.907607 0.702431 -0.546160
N11   N     N_3   0.572651 0.051769 0.758756 -0.587078
N12   N     N_3   0.570908 0.834947 0.806312 -0.550259
N13   N     N_3   0.427347 0.948231 0.241243 -0.587079
N14   N     N_3   0.985086 0.592393 0.297569 -0.546161
N15   N     N_3   0.014914 0.407607 0.702430 -0.546161
N16   N     N_3   0.072652 0.551769 0.758756 -0.587078
N17   N     N_3   0.927349 0.448230 0.241244 -0.587078
N18   N     N_3   0.636585 0.116993 0.890281 -0.575237
N19   N     N_3   0.363414 0.883007 0.109719 -0.575236
N20   N     N_3   0.929092 0.665053 0.193689 -0.550259
N21   N     N_3   0.070908 0.334946 0.806311 -0.550259
N22   N     N_3   0.136585 0.616993 0.890281 -0.575237
N23   N     N_3   0.863416 0.383007 0.109720 -0.575237
N24   N     N_3   0.312374 0.016415 0.269118 -0.580841
O1    O     O_R   0.321010 0.231060 0.142100 -0.579132
O2    O     O_R   0.730960 0.821350 0.961860 -0.572544
O3    O     O_R   0.730960 0.178650 0.961860 -0.554248
O4    O     O_R   0.269040 0.821350 0.038140 -0.554248
O5    O     O_R   0.769040 0.678650 0.038140 -0.572545
O6    O     O_R   0.230960 0.321350 0.961860 -0.572544
O7    O     O_R   0.230960 0.678650 0.961860 -0.554248
O8    O     O_R   0.769040 0.321350 0.038140 -0.554249
O9    O     O_R   0.337910 0.276140 0.051940 -0.565002
O10   O     O_R   0.662090 0.723860 0.948060 -0.565002
O11   O     O_R   0.662090 0.276140 0.948060 -0.564752
O12   O     O_R   0.678990 0.768940 0.857900 -0.579132
O13   O     O_R   0.337910 0.723860 0.051940 -0.564752
O14   O     O_R   0.837910 0.776140 0.051940 -0.565002
O15   O     O_R   0.162090 0.223860 0.948060 -0.565002
O16   O     O_R   0.162090 0.776140 0.948060 -0.564752
O17   O     O_R   0.837910 0.223860 0.051940 -0.564752
O18   O     O_R   0.285940 0.223740 0.947980 -0.561205
O19   O     O_R   0.714060 0.776260 0.052020 -0.561205
O20   O     O_R   0.714060 0.223740 0.052020 -0.567267
O21   O     O_R   0.285940 0.776260 0.947980 -0.567267
O22   O     O_R   0.785940 0.723740 0.947980 -0.561205
O23   O     O_R   0.678990 0.231060 0.857900 -0.588901
O24   O     O_R   0.214060 0.276260 0.052020 -0.561205
O25   O     O_R   0.214060 0.723740 0.052020 -0.567267
O26   O     O_R   0.785940 0.276260 0.947980 -0.567267
O27   O     O_R   0.990910 0.454660 0.410130 -0.572290
O28   O     O_R   0.009090 0.545340 0.589870 -0.572290
O29   O     O_R   0.009090 0.454660 0.589870 -0.607449
O30   O     O_R   0.990910 0.545340 0.410130 -0.607449
O31   O     O_R   0.490910 0.954660 0.410130 -0.572290
O32   O     O_R   0.509090 0.045340 0.589870 -0.572289
O33   O     O_R   0.509090 0.954660 0.589870 -0.607448
O34   O     O_R   0.321010 0.768940 0.142100 -0.588901
O35   O     O_R   0.490910 0.045340 0.410130 -0.607449
O36   O     O_R   0.919170 0.454670 0.410130 -0.587842
O37   O     O_R   0.080830 0.545330 0.589870 -0.587843
O38   O     O_R   0.080830 0.454670 0.589870 -0.571045
O39   O     O_R   0.919170 0.545330 0.410130 -0.571045
O40   O     O_R   0.419170 0.954670 0.410130 -0.587842
O41   O     O_R   0.580830 0.045330 0.589870 -0.587843
O42   O     O_R   0.580830 0.954670 0.589870 -0.571046
O43   O     O_R   0.419170 0.045330 0.410130 -0.571045
O44   O     O_R   0.821010 0.731060 0.142100 -0.579132
O45   O     O_R   0.178990 0.268940 0.857900 -0.579132
O46   O     O_R   0.178990 0.731060 0.857900 -0.588901
O47   O     O_R   0.821010 0.268940 0.142100 -0.588901
O48   O     O_R   0.269040 0.178650 0.038140 -0.572545

loop_
_geom_bond_atom_site_label_1
_geom_bond_atom_site_label_2
_ccdc_geom_bond_type
C61   C70   A    
C4    H45   S    
Cu7   Cu10  S    
C98   O16   A    
C91   O9    A    
C3    C42   A    
H26   N19   S    
H19   N1    S    
C6    C45   A    
C84   O38   A    
C95   O22   A    
C24   C42   A    
C71   N16   S    
Cu8   O19   S    
C90   O35   A    
C51   C74   S    
C57   C66   A    
C66   N10   S    
Cu1   O24   S    
Cu2   Cu12  S    
C69   N14   S    
C65   N9    S    
C81   C82   S    
C83   O28   A    
C93   O20   A    
C109  C117  S    
H27   N20   S    
C97   O15   A    
Cu1   O9    S    
H18   N1    S    
H61   N13   S    
C99   C108  S    
C74   O44   A    
C9    C127  A    
H29   N21   S    
C62   N22   S    
C17   C26   A    
C32   C36   A    
H24   N18   S    
Cu11  O17   S    
C63   O34   A    
C73   C90   S    
C38   C126  A    
Cu8   O2    S    
C79   C84   S    
C127  H12   S    
C123  C125  T    
C94   O21   A    
Cu3   O31   S    
Cu1   O6    S    
Cu12  O38   S    
C40   C49   A    
C40   C128  A    
H21   N12   S    
Cu2   O28   S    
C4    C43   A    
H43   N4    S    
C65   C73   A    
C82   O36   A    
Cu7   O7    S    
C18   H10   S    
C24   C29   A    
C89   O42   A    
Cu3   O42   S    
C110  C119  S    
H58   N11   S    
C93   O11   A    
C52   O3    A    
Cu5   O5    S    
C6    C15   A    
C97   O24   A    
C74   O5    A    
C53   C61   A    
C2    C39   A    
C41   C48   S    
H49   N7    S    
C113  C122  S    
Cu9   O48   S    
Cu6   O23   S    
C13   C40   A    
Cu12  O27   S    
C83   O37   A    
C46   C55   A    
C84   O29   A    
C27   N2    S    
C19   H11   S    
C21   H14   S    
C13   C28   A    
Cu10  O4    S    
C2    C27   A    
C115  C124  S    
C91   C100  S    
C4    C12   A    
C5    C14   A    
C11   H4    S    
C76   C88   S    
C54   C96   S    
C72   C81   A    
Cu5   O10   S    
C20   C29   A    
C31   N6    S    
Cu1   O1    S    
C78   C86   S    
C28   N3    S    
H53   N9    S    
Cu10  O21   S    
C59   N19   S    
C100  C109  T    
Cu6   O26   S    
H47   N6    S    
C85   O45   A    
C23   H16   S    
H50   N7    S    
H42   N4    S    
C50   C63   S    
Cu2   O29   S    
C37   C81   A    
C102  C111  T    
Cu10  O16   S    
Cu7   O13   S    
C80   C83   S    
C10   C128  A    
C44   C53   A    
C95   O14   A    
C10   H3    S    
C71   C80   A    
Cu9   O15   S    
H52   N8    S    
C56   N1    S    
H37   N24   S    
C41   O2    A    
C119  C121  T    
H30   N21   S    
C107  O47   A    
C11   C20   A    
C1    O48   A    
C39   C127  A    
C22   C31   A    
C30   C34   A    
Cu11  O3    S    
H28   N20   S    
C7    C46   A    
Cu5   O22   S    
C105  C114  T    
C48   C57   A    
C60   C69   A    
C72   N17   S    
C99   O26   A    
C64   N23   S    
H62   N14   S    
H57   N10   S    
C20   H13   S    
C117  C120  T    
Cu6   Cu11  S    
H38   N2    S    
C68   N13   S    
C1    C47   S    
C29   N4    S    
C54   C62   A    
C1    O1    A    
C101  C110  T    
C52   O23   A    
C12   C21   A    
Cu7   O34   S    
C96   O46   A    
C49   C58   A    
C104  C113  T    
C55   C107  S    
C103  C112  T    
Cu12  O37   S    
C93   C102  S    
C96   O7    A    
C58   N18   S    
C59   C68   A    
Cu4   O32   S    
Cu2   O36   S    
C16   C25   A    
C9    C18   A    
C3    H34   S    
C30   N5    S    
C13   C76   A    
C10   C19   A    
C49   C52   S    
Cu6   O8    S    
C55   C64   A    
Cu10  O46   S    
C12   H5    S    
C38   C47   A    
C111  C120  S    
Cu1   Cu9   S    
C36   C45   A    
H41   N3    S    
H69   N17   S    
C70   N15   S    
H64   N15   S    
C67   N11   S    
C19   C28   A    
C47   C56   A    
C35   C44   A    
C6    H67   S    
H22   N18   S    
C92   C101  S    
C42   C50   A    
Cu5   Cu8   S    
C114  C123  S    
C8    C126  A    
C7    C16   A    
H20   N12   S    
C88   O32   A    
C45   C54   A    
Cu7   O25   S    
H54   N9    S    
C116  C125  S    
C5    H56   S    
C41   O12   A    
C36   C80   A    
Cu12  O30   S    
C107  O8    A    
C35   C79   A    
H59   N11   S    
C87   O40   A    
C50   C59   A    
C122  C124  T    
Cu3   Cu4   S    
C94   O13   A    
Cu6   O11   S    
C63   O4    A    
C86   O39   A    
C95   C104  S    
H25   N19   S    
C88   O41   A    
C33   N8    S    
C26   N24   S    
C68   C77   A    
Cu4   O43   S    
H44   N5    S    
C92   O10   A    
C73   C118  A    
Cu8   O44   S    
C70   C79   A    
C60   N20   S    
C5    C44   A    
H40   N3    S    
C17   H9    S    
C18   C27   A    
Cu9   O18   S    
H51   N8    S    
C94   C103  S    
H55   N10   S    
C7    H71   S    
C9    H2    S    
C25   H17   S    
C89   O33   A    
C91   O18   A    
H32   N22   S    
C26   C118  A    
C21   C30   A    
C14   H6    S    
C126  H1    S    
H35   N23   S    
C8    C17   A    
C98   C106  S    
Cu11  O47   S    
C106  C115  T    
C16   H8    S    
C23   C32   A    
C108  C116  T    
C51   C60   A    
Cu11  O20   S    
C37   C46   A    
Cu4   O33   S    
C97   C105  S    
C112  C121  S    
C99   O17   A    
C8    H72   S    
H46   N5    S    
H68   N16   S    
C15   H7    S    
H48   N6    S    
C98   O25   A    
C14   C22   A    
H36   N24   S    
Cu8   O14   S    
C43   C51   A    
C66   C75   A    
H39   N2    S    
C15   C23   A    
C85   O6    A    
H70   N17   S    
C62   C71   A    
H65   N15   S    
C31   C35   A    
H60   N13   S    
C128  H23   S    
C33   C37   A    
Cu3   O41   S    
C32   N7    S    
C3    C11   A    
C75   C89   S    
H66   N16   S    
Cu9   O45   S    
C22   H15   S    
C38   C118  A    
C92   O19   A    
H33   N23   S    
C58   C67   A    
Cu3   O35   S    
C77   C87   S    
C87   O31   A    
C24   C77   A    
C61   N21   S    
Cu5   O12   S    
C86   O30   A    
C90   O43   A    
C53   C85   S    
C67   C76   A    
C69   C78   A    
Cu2   O39   S    
C34   C43   A    
H31   N22   S    
H63   N14   S    
C34   C78   A    
C2    C75   A    
C56   C65   A    
C64   C72   A    
C25   C33   A    
C39   C48   A    
C82   O27   A    
C57   N12   S    
Cu4   O40   S    
