data_mof_unit_8413.cif
_audit_creation_date              2013-03-05T15:58:59-0500
_audit_creation_method            fapswitch 2.2
_symmetry_space_group_name_H-M    P1
_symmetry_Int_Tables_number       1
_space_group_crystal_system       triclinic
_cell_length_a                    7.231551
_cell_length_b                    21.396306
_cell_length_c                    23.467042
_cell_angle_alpha                 90.000012
_cell_angle_beta                  90.086814
_cell_angle_gamma                 90.000376
_cell_volume                      3631.01552488

loop_
_atom_site_label
_atom_site_type_symbol
_atom_site_description
_atom_site_fract_x
_atom_site_fract_y
_atom_site_fract_z
_atom_type_partial_charge
O1    O     O_R   0.365470 0.806380 0.442440 -0.581076
O2    O     O_R   0.134530 0.193620 0.942440 -0.581910
O3    O     O_R   0.865470 0.693620 0.557560 -0.581907
O4    O     O_R   0.634530 0.306380 0.057560 -0.581070
O5    O     O_R   0.035730 0.813790 0.557160 -0.578014
O6    O     O_R   0.464270 0.186210 0.057160 -0.570973
O7    O     O_R   0.535730 0.686210 0.442840 -0.570982
O8    O     O_R   0.964270 0.313790 0.942840 -0.578015
C1    C     C_R   0.204405 0.828690 0.575868 0.944290
C2    C     C_R   0.295815 0.171305 0.075867 0.940993
C3    C     C_R   0.704184 0.671305 0.424133 0.940994
C4    C     C_R   0.795595 0.328690 0.924132 0.944286
O9    O     O_R   0.035760 0.813790 0.442850 -0.585486
O10   O     O_R   0.464240 0.186210 0.942850 -0.585115
O11   O     O_R   0.535760 0.686210 0.557150 -0.585113
O12   O     O_R   0.964240 0.313790 0.057150 -0.585480
O13   O     O_R   0.865450 0.693620 0.442430 -0.576393
O14   O     O_R   0.634550 0.306380 0.942430 -0.573032
O15   O     O_R   0.365450 0.806380 0.557570 -0.573031
O16   O     O_R   0.134550 0.193620 0.057570 -0.576392
C5    C     C_R   0.204209 0.828715 0.424148 0.967270
C6    C     C_R   0.295601 0.171282 0.924153 0.967910
C7    C     C_R   0.704399 0.671282 0.575847 0.967919
C8    C     C_R   0.795792 0.328715 0.075852 0.967276
O17   O     O_3   0.198970 0.710570 0.500000 -0.276427
O18   O     O_3   0.301030 0.289430 0.000000 -0.277768
O19   O     O_3   0.698970 0.789430 0.500000 -0.277770
O20   O     O_3   0.801030 0.210570 0.000000 -0.276428
V1    V     V_3+5 0.924120 0.757310 0.500000 1.233317
V2    V     V_3+5 0.575880 0.242690 0.000000 1.238808
V3    V     V_3+5 0.424120 0.742690 0.500000 1.238794
V4    V     V_3+5 0.075880 0.257310 0.000000 1.233331
C9    C     C_3   0.886968 0.558256 0.749314 -0.433505
C10   C     C_3   0.605298 0.442565 0.247649 -0.453588
C11   C     C_3   0.394654 0.942554 0.252339 -0.453589
C12   C     C_3   0.113031 0.058256 0.750686 -0.433509
C13   C     C_3   0.546190 0.535926 0.739349 0.256659
C14   C     C_3   0.948025 0.461552 0.242107 0.261674
C15   C     C_3   0.051953 0.961577 0.257914 0.261706
C16   C     C_3   0.453810 0.035928 0.760651 0.256670
C17   C     C_3   0.560907 0.487888 0.789769 0.125935
C18   C     C_3   0.935119 0.513263 0.289211 0.125921
C19   C     C_3   0.064858 0.013289 0.210811 0.125932
C20   C     C_3   0.439093 0.987889 0.710231 0.125932
H1    H     H_    0.890542 0.532143 0.839481 0.235376
H2    H     H_    0.615686 0.463965 0.339176 0.239534
H3    H     H_    0.384237 0.963968 0.160816 0.239531
H4    H     H_    0.109465 0.032143 0.660519 0.235374
H5    H     H_    0.855239 0.604700 0.768280 0.218561
H6    H     H_    0.625239 0.394366 0.264387 0.211917
H7    H     H_    0.374642 0.894361 0.235597 0.211926
H8    H     H_    0.144759 0.104700 0.731720 0.218559
H9    H     H_    0.513566 0.583245 0.756664 0.124028
H10   H     H_    0.967208 0.414862 0.262507 0.127624
H11   H     H_    0.032703 0.914891 0.237513 0.127578
H12   H     H_    0.486432 0.083246 0.743335 0.124027
H13   H     H_    0.456531 0.450507 0.782470 0.189486
H14   H     H_    0.034310 0.550851 0.278404 0.201299
H15   H     H_    0.965720 0.050890 0.221630 0.201290
H16   H     H_    0.543469 0.950508 0.717531 0.189491
C21   C     C_1   0.785433 0.374036 0.878194 -0.156129
C22   C     C_1   0.713376 0.625848 0.378276 -0.153245
C23   C     C_1   0.286620 0.125849 0.121724 -0.153171
C24   C     C_1   0.214569 0.874036 0.621806 -0.156130
C25   C     C_3   0.733333 0.539831 0.706351 0.113900
C26   C     C_3   0.765837 0.459813 0.206615 0.116401
C27   C     C_3   0.234174 0.959816 0.293388 0.116411
C28   C     C_3   0.266666 0.039831 0.793649 0.113906
C29   C     C_3   0.904479 0.508891 0.797462 -0.311812
C30   C     C_3   0.593622 0.489090 0.298443 -0.316479
C31   C     C_3   0.406336 0.989086 0.201550 -0.316471
C32   C     C_3   0.095522 0.008891 0.702537 -0.311808
C33   C     C_3   0.757172 0.456181 0.790574 -0.169668
C34   C     C_3   0.736091 0.543150 0.290947 -0.178975
C35   C     C_3   0.263908 0.043155 0.209057 -0.179036
C36   C     C_3   0.242828 0.956181 0.709426 -0.169667
C37   C     C_3   0.783389 0.422327 0.730672 0.476353
C38   C     C_3   0.690247 0.575618 0.231500 0.481621
C39   C     C_3   0.309800 0.075621 0.268500 0.481629
C40   C     C_3   0.216608 0.922327 0.769327 0.476350
C41   C     C_3   0.783014 0.474257 0.682279 -0.434779
C42   C     C_3   0.729262 0.526338 0.182295 -0.458671
C43   C     C_3   0.270846 0.026336 0.317708 -0.458668
C44   C     C_3   0.216985 0.974257 0.817720 -0.434785
C45   C     C_1   0.773778 0.411207 0.839139 0.161177
C46   C     C_1   0.722783 0.588464 0.339345 0.176085
C47   C     C_1   0.277212 0.088466 0.160657 0.176185
C48   C     C_1   0.226223 0.911207 0.660861 0.161171
C49   C     C_1   0.722948 0.586925 0.659442 0.028911
C50   C     C_1   0.777571 0.412921 0.159564 0.042863
C51   C     C_1   0.222438 0.912923 0.340438 0.042828
C52   C     C_1   0.277050 0.086925 0.840558 0.028910
C53   C     C_1   0.714026 0.625252 0.621254 -0.227899
C54   C     C_1   0.786609 0.374691 0.121305 -0.232359
C55   C     C_1   0.213396 0.874692 0.378696 -0.232369
C56   C     C_1   0.285972 0.125252 0.878746 -0.227900
H17   H     H_    0.921020 0.477394 0.661637 0.210440
H18   H     H_    0.616226 0.523765 0.150433 0.216138
H19   H     H_    0.383949 0.023744 0.349546 0.216136
H20   H     H_    0.078980 0.977394 0.838363 0.210437
H21   H     H_    0.688913 0.463248 0.646344 0.234350
H22   H     H_    0.850825 0.540455 0.156437 0.243810
H23   H     H_    0.149357 0.040454 0.343596 0.243813
H24   H     H_    0.311086 0.963248 0.853655 0.234344
H25   H     H_    0.021913 0.562699 0.726954 0.216128
H26   H     H_    0.472232 0.442907 0.223868 0.231946
H27   H     H_    0.527744 0.942875 0.276108 0.231881
H28   H     H_    0.978086 0.062697 0.773046 0.216133
H29   H     H_    0.046506 0.489565 0.798380 0.237364
H30   H     H_    0.450506 0.507744 0.301434 0.236129
H31   H     H_    0.549461 0.007733 0.198558 0.236145
H32   H     H_    0.953495 0.989565 0.701617 0.237365
N1    N     N_R   0.629984 0.376884 0.721826 0.245958
O21   O     O_R   0.605679 0.331203 0.757712 -0.351732
O22   O     O_R   0.516722 0.380902 0.678808 -0.278984
N2    N     N_R   0.806699 0.631861 0.222562 0.222696
O23   O     O_R   0.733527 0.687464 0.223025 -0.304942
O24   O     O_R   0.980776 0.627105 0.209239 -0.320978
N3    N     N_R   0.193326 0.131858 0.277440 0.222712
O25   O     O_R   0.266377 0.187477 0.276819 -0.305094
O26   O     O_R   0.019339 0.127092 0.290872 -0.320893
N4    N     N_R   0.370011 0.876884 0.778173 0.245948
O27   O     O_R   0.394295 0.831198 0.742292 -0.351725
O28   O     O_R   0.483314 0.880914 0.821180 -0.278987
O29   O     O_3   0.402656 0.517539 0.702398 -0.693218
H33   H     H_    0.359884 0.555516 0.681960 0.323419
O30   O     O_3   0.100873 0.473913 0.206815 -0.703677
H34   H     H_    0.138915 0.433633 0.189412 0.323418
O31   O     O_3   0.899153 0.973952 0.293222 -0.703591
H35   H     H_    0.861084 0.933675 0.310624 0.323408
O32   O     O_3   0.597345 0.017542 0.797602 -0.693213
H36   H     H_    0.640116 0.055520 0.818039 0.323417
N5    N     N_R   0.513452 0.516978 0.844656 0.236107
O33   O     O_R   0.387547 0.491496 0.876690 -0.371246
O34   O     O_R   0.583353 0.570517 0.859849 -0.360569
N6    N     N_R   0.993953 0.488949 0.345054 0.236216
O35   O     O_R   0.124756 0.517334 0.373061 -0.371661
O36   O     O_R   0.926537 0.437259 0.365587 -0.362254
N7    N     N_R   0.005946 0.988984 0.154973 0.236208
O37   O     O_R   0.875130 0.017380 0.126982 -0.371689
O38   O     O_R   0.073322 0.937294 0.134427 -0.362273
N8    N     N_R   0.486552 0.016978 0.655344 0.236106
O39   O     O_R   0.612455 0.991495 0.623311 -0.371248
O40   O     O_R   0.416656 0.070517 0.640150 -0.360568
N9    N     N_R   0.961021 0.387746 0.728805 0.238577
O41   O     O_R   0.118212 0.417176 0.726064 -0.346553
O42   O     O_R   0.963286 0.327067 0.724617 -0.289510
N10   N     N_R   0.492641 0.595301 0.231051 0.255613
O43   O     O_R   0.376173 0.575294 0.192847 -0.306289
O44   O     O_R   0.431381 0.633985 0.269485 -0.341311
N11   N     N_R   0.507400 0.095313 0.268933 0.255589
O45   O     O_R   0.623914 0.075301 0.307122 -0.306287
O46   O     O_R   0.568626 0.133995 0.230493 -0.341299
N12   N     N_R   0.038973 0.887747 0.771194 0.238576
O47   O     O_R   0.881784 0.917178 0.773934 -0.346550
O48   O     O_R   0.036702 0.827069 0.775386 -0.289507

loop_
_geom_bond_atom_site_label_1
_geom_bond_atom_site_label_2
_geom_bond_distance
_ccdc_geom_bond_type
O17   V3    1.767279 S    
C31   C35   1.559114 S    
C32   H32   1.107365 S    
O1    C5    1.330823 A    
C19   H15   1.107371 S    
C12   H28   1.112751 S    
C1    C24   1.452139 S    
O13   V1    1.964817 S    
O3    C7    1.330734 A    
C2    C23   1.452113 S    
O1    V3    1.964629 S    
C32   C36   1.559590 S    
C3    C22   1.452116 S    
O15   V3    1.965703 S    
C18   H14   1.107344 S    
C17   N5    1.471591 S    
C14   O30   1.407268 S    
C9    C25   1.550121 S    
C26   C50   1.494415 S    
C41   H21   1.108127 S    
C25   C49   1.494161 S    
C22   C46   1.216263 T    
C43   H23   1.110772 S    
O2    V4    1.965512 S    
N10   O44   1.302309 A    
C14   C18   1.566865 S    
N9    O41   1.301174 A    
O4    C8    1.330825 A    
O19   V1    1.767288 S    
C9    H5    1.112895 S    
C52   C56   1.216388 T    
N2    O23   1.302118 A    
C18   N6    1.472170 S    
C20   C36   1.573194 S    
C30   C34   1.559125 S    
C30   H30   1.111564 S    
C29   H29   1.107366 S    
C1    O15   1.330438 A    
C15   H11   1.116345 S    
C14   C26   1.558064 S    
C2    O16   1.330725 A    
C16   H12   1.116284 S    
C39   N3    1.483880 S    
O2    C6    1.330736 A    
N11   O45   1.301590 A    
C19   N7    1.472160 S    
O14   V2    1.965701 S    
C37   C41   1.588784 S    
C10   C30   1.555389 S    
N12   O48   1.302108 A    
C12   H8    1.112896 S    
C38   N10   1.489791 S    
C13   H9    1.116285 S    
O11   C7    1.334222 A    
C11   C31   1.555375 S    
O12   C8    1.334199 A    
C43   H19   1.108340 S    
C49   C53   1.216387 T    
C42   H18   1.108345 S    
C10   C26   1.553903 S    
C15   C27   1.558060 S    
O10   V2    1.976748 S    
C37   N1    1.489444 S    
N9    O42   1.302107 A    
C50   C54   1.216405 T    
C13   O29   1.407612 S    
N3    O26   1.301536 A    
C19   C35   1.575500 S    
C18   C34   1.575532 S    
C10   H6    1.112848 S    
H1    C29   1.109168 S    
C40   C44   1.588784 S    
C28   C44   1.554779 S    
O7    V3    1.978484 S    
N10   O43   1.301577 A    
N6    O36   1.301452 A    
O18   V4    1.767279 S    
C40   N4    1.489442 S    
C15   O31   1.407267 S    
C17   C33   1.573194 S    
O11   V3    1.976753 S    
C7    C53   1.452587 S    
C13   C25   1.562477 S    
O8    V4    1.976825 S    
O7    C3    1.334175 A    
O5    C1    1.334401 A    
C8    C54   1.452595 S    
C26   C42   1.556056 S    
C38   C42   1.589234 S    
C25   C41   1.554779 S    
C14   H10   1.116343 S    
C11   C27   1.553886 S    
O8    C4    1.334401 A    
H3    C31   1.108005 S    
C27   C51   1.494415 S    
C42   H22   1.110787 S    
C9    H25   1.112751 S    
C27   C43   1.556047 S    
C34   C46   1.496513 S    
N3    O25   1.302106 A    
C29   C33   1.559592 S    
C33   C45   1.496273 S    
N12   O47   1.301175 A    
C21   C45   1.216291 T    
C35   C47   1.496515 S    
O6    V2    1.978476 S    
C16   O32   1.407614 S    
C11   H7    1.112846 S    
N5    O33   1.301310 A    
C44   H24   1.108127 S    
N8    O40   1.301666 A    
H4    C32   1.109170 S    
N4    O28   1.301863 A    
O32   H36   0.992740 S    
O5    V1    1.976817 S    
C37   N9    1.483125 S    
C39   N11   1.489793 S    
N1    O21   1.302244 A    
O16   V4    1.964820 S    
O9    V1    1.978408 S    
C36   C48   1.496273 S    
C3    O13   1.330727 A    
C23   C47   1.216262 T    
C6    C56   1.452583 S    
C38   N2    1.483868 S    
C36   C40   1.592931 S    
N6    O35   1.301404 A    
O6    C2    1.334177 A    
C44   H20   1.112037 S    
C15   C19   1.566863 S    
N7    O37   1.301404 A    
C12   C28   1.550120 S    
C40   N12   1.483127 S    
C9    C29   1.551748 S    
O12   V4    1.978412 S    
C5    C55   1.452592 S    
C34   C38   1.592893 S    
C31   H31   1.111562 S    
O10   C6    1.334222 A    
O20   V2    1.767288 S    
O31   H35   0.992750 S    
C17   H13   1.112816 S    
O9    C5    1.334201 A    
C39   C43   1.589294 S    
C4    C21   1.452141 S    
N7    O38   1.301450 A    
O3    V1    1.965507 S    
O29   H33   0.992741 S    
C41   H17   1.112037 S    
C20   H16   1.112817 S    
C28   C52   1.494160 S    
N2    O24   1.301541 A    
C10   H26   1.111691 S    
N11   O46   1.302306 A    
C13   C17   1.570786 S    
H2    C30   1.108003 S    
C11   H27   1.111697 S    
C51   C55   1.216403 T    
C12   C32   1.551749 S    
C16   C20   1.570788 S    
C20   N8    1.471590 S    
C16   C28   1.562477 S    
C4    O14   1.330436 A    
N5    O34   1.301666 A    
C33   C37   1.592932 S    
N8    O39   1.301312 A    
N4    O27   1.302245 A    
C35   C39   1.592858 S    
C24   C48   1.216290 T    
O4    V2    1.964623 S    
O30   H34   0.992755 S    
N1    O22   1.301861 A    
