data_mof_unit_14677.cif
_audit_creation_date              2012-12-10T20:34:49-0500
_audit_creation_method            fapswitch 2.2
_symmetry_space_group_name_H-M    P1
_symmetry_Int_Tables_number       1
_space_group_crystal_system       triclinic
_cell_length_a                    10.658344
_cell_length_b                    10.664974
_cell_length_c                    9.891956
_cell_angle_alpha                 90.32798
_cell_angle_beta                  89.9383
_cell_angle_gamma                 90.453569
_cell_volume                      1124.37389849

loop_
_atom_site_label
_atom_site_type_symbol
_atom_type_description
_atom_site_fract_x
_atom_site_fract_y
_atom_site_fract_z
_atom_type_partial_charge
C1    C     C_R   0.506291 0.260235 0.499509 0.947351
C2    C     C_3   0.878700 0.500727 0.499940 0.061869
C3    C     C_3   0.931017 0.632799 0.460793 0.115515
C4    C     C_3   0.926747 0.399443 0.400023 -0.339299
C5    C     C_R   0.495514 0.064045 0.618621 0.040403
C6    C     C_R   0.525106 0.128510 0.500543 -0.151710
C7    C     C_R   0.578735 0.062971 0.390186 0.252391
C8    C     C_R   0.575974 0.932802 0.391842 -0.190571
C9    C     C_R   0.524442 0.870860 0.503573 -0.130088
C10   C     C_R   0.498548 0.936828 0.621426 0.059395
C11   C     C_3   0.389823 0.927247 0.716326 -0.435828
C12   C     C_R   0.257680 0.497814 0.500467 0.881523
C13   C     C_3   0.384656 0.069513 0.711987 0.102378
C14   C     C_R   0.425108 0.418541 0.070241 0.199975
C15   C     C_R   0.578944 0.575787 0.072192 -0.047357
C16   C     C_R   0.578410 0.576437 0.928443 -0.097001
C17   C     C_R   0.429984 0.413726 0.927869 0.171537
C18   C     C_3   0.292140 0.398055 0.916013 -0.514939
C19   C     C_3   0.284596 0.416638 0.067359 0.038427
C20   C     C_R   0.504440 0.739697 0.500495 0.906783
C21   C     C_R   0.742270 0.500684 0.500014 0.853404
C22   C     C_3   0.070028 0.470118 0.645467 -0.398417
C23   C     C_3   0.927345 0.467584 0.643619 -0.426448
C24   C     C_3   0.075341 0.629766 0.460234 -0.378551
C25   C     C_3   0.070216 0.396837 0.402817 -0.374051
C26   C     C_3   0.121163 0.498266 0.501903 0.087520
H1    H     H_    0.894725 0.418893 0.295240 0.238611
H2    H     H_    0.112869 0.654476 0.359297 0.257819
H3    H     H_    0.608840 0.880883 0.304394 0.209282
H4    H     H_    0.418310 0.890736 0.816673 0.199275
H5    H     H_    0.407473 0.115045 0.810386 0.147507
H6    H     H_    0.640590 0.639152 0.126452 0.183145
H7    H     H_    0.639766 0.640280 0.874692 0.151632
H8    H     H_    0.249103 0.474397 0.857640 0.247569
H9    H     H_    0.265252 0.301928 0.882673 0.205845
H10   H     H_    0.242825 0.335412 0.121469 0.142111
H11   H     H_    0.893094 0.372770 0.673643 0.210493
H12   H     H_    0.892359 0.536019 0.720133 0.200171
H13   H     H_    0.112217 0.701968 0.531994 0.149106
H14   H     H_    0.899707 0.702176 0.538066 0.127166
H15   H     H_    0.105699 0.412816 0.299079 0.221140
H16   H     H_    0.102262 0.302401 0.434035 0.213740
N1    N     N_R   0.499150 0.499140 0.142800 -0.094272
N2    N     N_R   0.499150 0.499180 0.857150 -0.101984
O1    O     O_R   0.500020 0.316790 0.614690 -0.613141
O2    O     O_R   0.500000 0.316760 0.385350 -0.585222
O3    O     O_R   0.314800 0.500000 0.614670 -0.628359
O4    O     O_R   0.314790 0.499960 0.385330 -0.593157
O5    O     O_R   0.500000 0.683240 0.614650 -0.622444
O6    O     O_R   0.499980 0.683210 0.385310 -0.602544
O7    O     O_R   0.685210 0.500040 0.614670 -0.642527
O8    O     O_R   0.685200 0.500000 0.385330 -0.585418
Zn1   Zn    Zn3+2 0.500010 0.500020 0.653130 0.962872
Zn2   Zn    Zn3+2 0.499990 0.499980 0.346870 1.023645
H17   H     H_    0.101026 0.544961 0.717056 0.197282
Br1   Br    Br    0.871291 0.695762 0.287119 -0.510806
Br2   Br    Br    0.652540 0.141683 0.234261 -0.505533
H18   H     H_    0.307525 0.878519 0.670307 0.226084
Br3   Br    Br    0.232096 0.128419 0.626232 -0.584244
H19   H     H_    0.105328 0.378615 0.682278 0.227535
Br4   Br    Br    0.212435 0.580439 0.106433 -0.495550
H20   H     H_    0.888771 0.305563 0.428206 0.188964

loop_
_geom_bond_atom_site_label_1
_geom_bond_atom_site_label_2
_ccdc_geom_bond_type
C25   H16   S    
C2    C4    S    
C22   H17   S    
C13   Br3   S    
C16   H7    S    
C11   H18   S    
C11   C13   S    
C3    Br1   S    
C16   N2    A    
N1    Zn2   S    
C5    C13   S    
O3    Zn1   S    
C12   O4    A    
O2    Zn2   S    
C2    C21   S    
C17   C18   S    
C17   N2    A    
C15   N1    A    
C15   H6    S    
O4    Zn2   S    
C18   H8    S    
C14   C17   A    
C1    O1    A    
C3    C24   S    
O6    Zn2   S    
C19   Br4   S    
C12   O3    A    
C20   O5    A    
C8    H3    S    
C14   C19   S    
C18   H9    S    
C12   C26   S    
O8    Zn2   S    
C3    H14   S    
C4    C25   S    
C6    C7    A    
C2    C3    S    
C19   H10   S    
C22   H19   S    
C5    C6    A    
O5    Zn1   S    
C1    O2    A    
C21   O7    A    
C7    C8    A    
C10   C11   S    
C22   C26   S    
C1    C6    S    
C23   H12   S    
C4    H20   S    
C5    C10   A    
C24   H13   S    
C24   H2    S    
C18   C19   S    
C9    C10   A    
C25   H15   S    
C2    C23   S    
C13   H5    S    
C22   C23   S    
C8    C9    A    
C7    Br2   S    
C20   O6    A    
C4    H1    S    
C9    C20   S    
C25   C26   S    
C23   H11   S    
N2    Zn1   S    
O1    Zn1   S    
C21   O8    A    
C15   C16   A    
C11   H4    S    
C24   C26   S    
C14   N1    A    
O7    Zn1   S    
