data_mof_unit_65743.cif
_audit_creation_date              2012-12-11T15:27:22-0500
_audit_creation_method            fapswitch 2.2
_symmetry_space_group_name_H-M    P1
_symmetry_Int_Tables_number       1
_space_group_crystal_system       triclinic
_cell_length_a                    14.016717
_cell_length_b                    14.01458
_cell_length_c                    27.231356
_cell_angle_alpha                 91.245963
_cell_angle_beta                  89.952893
_cell_angle_gamma                 119.764986
_cell_volume                      4642.14320863

loop_
_atom_site_label
_atom_site_type_symbol
_atom_type_description
_atom_site_fract_x
_atom_site_fract_y
_atom_site_fract_z
_atom_type_partial_charge
Br1   Br    Br    0.775260 0.075332 0.818883 -0.320338
Br2   Br    Br    0.609624 0.629806 0.113028 -0.216866
Br3   Br    Br    0.318236 0.106392 0.153768 -0.207894
Br4   Br    Br    0.981219 0.360273 0.121800 -0.219150
Br5   Br    Br    0.629139 0.044913 0.226053 -0.116885
Br6   Br    Br    0.923461 0.633033 0.235136 -0.176275
Br7   Br    Br    0.424339 0.414995 0.220604 -0.173878
Br8   Br    Br    0.686710 0.640833 0.275713 -0.257933
Br9   Br    Br    0.297698 0.778704 0.242977 -0.443805
Br10  Br    Br    0.939055 0.270286 0.281109 -0.244443
Br11  Br    Br    0.755781 0.696241 0.811276 -0.297554
Br12  Br    Br    0.007866 0.572362 0.816637 -0.299565
Br13  Br    Br    0.029559 0.931676 0.814335 -0.497854
Br14  Br    Br    0.968184 0.083824 0.748516 -0.296347
Br15  Br    Br    0.369310 0.304266 0.804319 -0.319090
Br16  Br    Br    0.529664 0.948854 0.824649 -0.358816
Br17  Br    Br    0.259431 0.689071 0.824262 -0.335518
Br18  Br    Br    0.317458 0.475704 0.850577 -0.308660
Br19  Br    Br    0.686473 0.031644 0.409281 -0.257601
Br20  Br    Br    0.030662 0.833544 0.433955 -0.292995
Br21  Br    Br    0.372910 0.340558 0.400184 -0.268708
C1    C     C_R   0.235061 0.787664 0.568968 0.554105
C2    C     C_1   0.676037 0.843928 0.865517 0.072715
C3    C     C_1   0.138752 0.821813 0.863724 0.081560
C4    C     C_1   0.120901 0.231020 0.850013 0.076784
C5    C     C_1   0.608281 0.810064 0.662479 0.113912
C6    C     C_1   0.184186 0.809699 0.660011 0.101977
C7    C     C_1   0.204008 0.390949 0.660032 0.130453
C8    C     C_1   0.589285 0.793950 0.619078 0.099656
C9    C     C_1   0.204362 0.804566 0.617275 0.092989
C10   C     C_1   0.206722 0.415118 0.618021 0.107858
C11   C     C_R   0.070999 0.162143 0.941301 0.556920
C12   C     C_R   0.215498 0.452163 0.569427 0.556079
C13   C     C_R   0.775203 0.884106 0.951133 0.565437
C14   C     C_R   0.113924 0.890117 0.950542 0.578368
C15   C     C_R   0.612827 0.800573 0.384793 -0.065195
C16   C     C_R   0.196977 0.801073 0.384774 -0.039600
C17   C     C_R   0.188887 0.381648 0.384587 -0.068337
C18   C     C_R   0.656277 0.907659 0.367096 0.190244
C19   C     C_R   0.108163 0.819528 0.378641 0.182807
C20   C     C_R   0.262164 0.351629 0.363076 0.181238
C21   C     C_R   0.683684 0.926505 0.317456 0.441429
C22   C     C_R   0.077983 0.831078 0.331234 0.434808
C23   C     C_R   0.550735 0.765232 0.569457 0.549716
C24   C     C_R   0.252425 0.324960 0.312794 0.428712
C25   C     C_R   0.658573 0.837828 0.284286 0.020700
C26   C     C_R   0.134991 0.821677 0.290689 0.025791
C27   C     C_R   0.177255 0.338052 0.283184 0.013148
C28   C     C_R   0.232766 0.787112 0.432313 0.573188
C29   C     C_R   0.211920 0.444471 0.431387 0.561655
C30   C     C_R   0.554246 0.765723 0.431563 0.563602
C31   C     C_R   0.645333 0.740357 0.305709 0.121120
C32   C     C_R   0.220274 0.797832 0.297169 0.126201
C33   C     C_R   0.085769 0.333292 0.308112 0.114538
C34   C     C_3   0.541138 0.730232 0.798022 -0.208198
C35   C     C_R   0.617757 0.720952 0.354789 -0.112009
C36   C     C_R   0.251243 0.788593 0.344215 -0.124319
C37   C     C_R   0.094785 0.360062 0.357873 -0.113239
C38   C     C_R   0.616957 0.753648 0.198670 -0.092621
C39   C     C_R   0.195777 0.950345 0.223915 -0.073548
C40   C     C_R   0.117587 0.373858 0.201857 -0.098753
C41   C     C_R   0.651089 0.763099 0.150203 0.137604
C42   C     C_R   0.190642 0.976768 0.175690 0.108027
C43   C     C_R   0.093839 0.341508 0.152822 0.133015
C44   C     C_R   0.719004 0.958673 0.156910 0.366659
C45   C     C_3   0.255866 0.910813 0.793551 -0.245754
C46   C     C_R   0.014563 0.807237 0.165842 0.374842
C47   C     C_R   0.251433 0.316202 0.150135 0.382340
C48   C     C_R   0.680876 0.946391 0.205122 0.270066
C49   C     C_R   0.025540 0.777661 0.213177 0.250550
C50   C     C_R   0.272870 0.346963 0.199983 0.252238
C51   C     C_R   0.652911 0.847479 0.229352 -0.043716
C52   C     C_R   0.115601 0.850650 0.242309 -0.006023
C53   C     C_R   0.189841 0.351380 0.228320 -0.056021
C54   C     C_R   0.714265 0.868500 0.130904 -0.016615
C55   C     C_R   0.098693 0.905633 0.145793 -0.028912
C56   C     C_3   0.077833 0.329406 0.787249 -0.233840
C57   C     C_R   0.152278 0.296675 0.128872 -0.016772
C58   C     C_R   0.107520 0.225348 0.084856 0.611267
C59   C     C_R   0.778679 0.885921 0.086088 0.594690
C60   C     C_R   0.089854 0.931596 0.094353 0.569234
C61   C     C_3   0.640248 0.933101 0.736357 0.704355
C62   C     C_3   0.147471 0.698196 0.735133 0.669825
C63   C     C_3   0.292231 0.425309 0.744755 0.670914
C64   C     C_3   0.725519 0.810538 0.729545 0.260344
C65   C     C_3   0.070185 0.827624 0.727241 0.273019
C66   C     C_3   0.172262 0.235947 0.709963 0.259510
C67   C     C_3   0.522202 0.727114 0.741602 -0.212378
C68   C     C_3   0.743196 0.820303 0.786084 0.062381
C69   C     C_3   0.051354 0.817037 0.783913 0.064295
C70   C     C_3   0.123942 0.183334 0.759744 0.101298
C71   C     C_1   0.714575 0.860804 0.906257 0.102415
C72   C     C_1   0.130049 0.847643 0.905138 0.096549
C73   C     C_1   0.098296 0.199098 0.891610 0.102310
C74   C     C_3   0.623971 0.820917 0.716183 -0.031254
C75   C     C_3   0.168213 0.809657 0.713632 -0.000423
C76   C     C_3   0.191030 0.354455 0.710523 0.001338
C77   C     C_3   0.650016 0.938267 0.794176 0.316911
C78   C     C_3   0.273651 0.903485 0.738055 -0.234980
C79   C     C_3   0.141156 0.700977 0.793072 0.314190
C80   C     C_3   0.273249 0.367830 0.796167 0.290338
C81   C     C_3   0.651681 0.833354 0.812567 -0.101930
C82   C     C_3   0.146457 0.810731 0.810147 -0.068708
C83   C     C_3   0.148474 0.275714 0.799898 -0.094717
C84   C     C_3   0.090250 0.358278 0.732355 -0.226308
Cr1   Cr    Cr6+3 0.164410 0.584450 0.499910 1.120035
Cr2   Cr    Cr6+3 0.415550 0.579960 0.499910 1.133440
Cr3   Cr    Cr6+3 0.420040 0.835590 0.499910 1.138323
Cr4   Cr    Cr6+3 0.156760 0.076070 0.017830 1.172301
Cr5   Cr    Cr6+3 0.923930 0.080690 0.017830 1.163960
Cr6   Cr    Cr6+3 0.919310 0.843240 0.017830 1.178164
F1    F     F_    0.552267 0.944905 0.721267 -0.572904
F2    F     F_    0.733560 0.017882 0.715877 -0.530283
F3    F     F_    0.050252 0.613917 0.715085 -0.584204
F4    F     F_    0.387163 0.438082 0.722903 -0.575495
F5    F     F_    0.712202 0.711556 0.710955 -0.546745
F6    F     F_    0.090765 0.929700 0.711773 -0.556240
F7    F     F_    0.106710 0.173833 0.670293 -0.530228
F8    F     F_    0.230842 0.678172 0.720418 -0.572828
F9    F     F_    0.303473 0.528713 0.750707 -0.571596
F10   F     F_    0.746144 0.031840 0.303772 -0.522244
F11   F     F_    0.996068 0.854899 0.324608 -0.549493
F12   F     F_    0.307170 0.275131 0.294773 -0.538985
F13   F     F_    0.758414 0.057678 0.135430 -0.536105
F14   F     F_    0.923899 0.737122 0.138983 -0.537617
F15   F     F_    0.328842 0.311648 0.121809 -0.520515
H1    H     H_    0.540282 0.653822 0.808723 0.251748
H2    H     H_    0.799465 0.876569 0.711757 0.225443
H3    H     H_    0.994245 0.764493 0.707925 0.207556
H4    H     H_    0.252215 0.238328 0.704911 0.188069
H5    H     H_    0.822225 0.894518 0.794806 0.198923
H6    H     H_    0.973074 0.740357 0.790152 0.201922
H7    H     H_    0.161563 0.133496 0.770618 0.200990
H8    H     H_    0.448371 0.734868 0.734160 0.252441
H9    H     H_    0.343689 0.888446 0.732276 0.238697
H10   H     H_    0.099522 0.441362 0.728498 0.257615
H11   H     H_    0.505748 0.646399 0.726029 0.279872
H12   H     H_    0.255911 0.988908 0.801953 0.210426
H13   H     H_    0.296373 0.983568 0.721182 0.214916
H14   H     H_    0.014172 0.299479 0.711794 0.230715
H15   H     H_    0.472601 0.729946 0.818056 0.242155
H16   H     H_    0.325417 0.916057 0.814578 0.223685
H17   H     H_    0.104126 0.405263 0.810079 0.233359
H18   H     H_    0.989741 0.274442 0.795558 0.232716
H19   H     H_    0.565126 0.672418 0.212460 0.213583
H20   H     H_    0.266497 0.005028 0.246570 0.215524
H21   H     H_    0.075918 0.412440 0.219376 0.213499
H22   H     H_    0.598610 0.641957 0.369137 0.214284
H23   H     H_    0.317829 0.771200 0.349257 0.154057
H24   H     H_    0.028492 0.366291 0.375278 0.209815
O1    O     O_R   0.137310 0.468260 0.552980 -0.476195
O2    O     O_R   0.139940 0.470480 0.446230 -0.502214
O3    O     O_R   0.529520 0.669460 0.446230 -0.494365
O4    O     O_R   0.330540 0.860060 0.446230 -0.472508
O5    O     O_R   0.176560 0.690850 0.450770 -0.483925
O6    O     O_R   0.309150 0.485710 0.450770 -0.464357
O7    O     O_R   0.514290 0.823440 0.450770 -0.468072
O8    O     O_3   0.333333 0.666667 0.499990 -0.331813
O9    O     O_3   0.000000 0.000000 0.017910 -0.346302
O10   O     O_R   0.149710 0.171070 0.967700 -0.467623
O11   O     O_R   0.828930 0.978640 0.967700 -0.510814
O12   O     O_R   0.531740 0.669050 0.552980 -0.473478
O13   O     O_R   0.021360 0.850290 0.967700 -0.483550
O14   O     O_R   0.178510 0.985930 0.071830 -0.444146
O15   O     O_R   0.014070 0.192580 0.071830 -0.449082
O16   O     O_R   0.807420 0.821490 0.071830 -0.444162
O17   O     O_R   0.147830 0.173300 0.066650 -0.461615
O18   O     O_R   0.826700 0.974530 0.066650 -0.452737
O19   O     O_R   0.025470 0.852170 0.066650 -0.418197
O20   O     O_R   0.330950 0.862690 0.552980 -0.479646
O21   O     O_R   0.180530 0.983530 0.965090 -0.491460
O22   O     O_R   0.016470 0.197000 0.965090 -0.464810
O23   O     O_R   0.803000 0.819470 0.965090 -0.477635
O24   O     O_R   0.174120 0.688790 0.549730 -0.479835
O25   O     O_R   0.311210 0.485330 0.549730 -0.486697
O26   O     O_R   0.514670 0.825880 0.549730 -0.481403

loop_
_geom_bond_atom_site_label_1
_geom_bond_atom_site_label_2
_ccdc_geom_bond_type
C7    C76   S    
C11   C73   S    
C34   H15   S    
Cr3   O20   S    
Br13  C69   S    
C40   C43   A    
C14   O21   A    
Br14  C70   S    
C70   C83   S    
C13   O11   A    
C24   F12   S    
C27   C33   A    
C34   C81   S    
C39   H20   S    
C39   C42   A    
C63   C76   S    
Br19  C18   S    
C66   H4    S    
C16   C19   A    
C66   C70   S    
C46   F14   S    
Br7   C50   S    
C68   C81   S    
Cr5   O15   S    
C44   C48   A    
C2    C81   S    
Cr3   O8    S    
C42   C55   A    
C75   C78   S    
C25   C31   A    
C39   C52   A    
C21   C25   A    
C44   F13   S    
C62   F8    S    
C34   C67   S    
Cr6   O9    S    
Br5   C48   S    
Cr4   O17   S    
C17   C37   A    
Cr5   O18   S    
C19   C22   A    
C29   O6    A    
C36   H23   S    
C45   H16   S    
C10   C12   S    
Cr1   O1    S    
C60   O19   A    
C54   C59   S    
Br8   C31   S    
C25   C51   S    
Cr2   O6    S    
C38   C51   A    
C26   C32   A    
C69   H6    S    
C11   O22   A    
C67   C74   S    
C4    C73   T    
C6    C9    T    
C63   C80   S    
C61   C77   S    
C62   F3    S    
C78   H13   S    
C6    C75   S    
C23   O12   A    
Br10  C33   S    
C59   O16   A    
C1    O24   A    
Cr5   O11   S    
C18   C21   A    
C13   C71   S    
C14   C72   S    
C47   C57   A    
C69   C82   S    
Cr1   O2    S    
C27   C53   S    
C28   O4    A    
Cr6   O13   S    
C26   C52   S    
C17   C20   A    
C12   O1    A    
C64   F5    S    
C32   C36   A    
C57   C58   S    
C66   C76   S    
Cr3   O7    S    
Cr1   O8    S    
C30   O7    A    
C79   C82   S    
Br15  C80   S    
Br12  C79   S    
Cr6   O19   S    
Br18  C80   S    
C61   F1    S    
C45   C78   S    
C35   H22   S    
C48   C51   A    
C56   H17   S    
C15   C35   A    
C29   O2    A    
C16   C28   S    
Br11  C68   S    
C45   H12   S    
Cr2   O12   S    
C63   F9    S    
C49   C52   A    
Cr1   O24   S    
C78   H9    S    
C65   H3    S    
Cr6   O16   S    
Cr2   O3    S    
C58   O15   A    
C22   F11   S    
C1    O20   A    
C15   C30   S    
C65   C75   S    
C70   H7    S    
C66   F7    S    
C84   H10   S    
Br21  C20   S    
C38   H19   S    
C34   H1    S    
C63   F4    S    
C62   C79   S    
C7    C10   T    
C8    C23   S    
C65   C69   S    
C60   O14   A    
C41   C54   A    
Br9   C32   S    
Cr4   O9    S    
C47   F15   S    
Cr2   O8    S    
C33   C37   A    
C24   C27   A    
C5    C74   S    
Br6   C49   S    
C30   O3    A    
C38   C41   A    
C64   C68   S    
C61   C74   S    
C1    C9    S    
Cr6   O23   S    
C43   C57   A    
C45   C82   S    
C28   O5    A    
C15   C18   A    
C23   O26   A    
C61   F2    S    
C56   C83   S    
Cr4   O14   S    
C68   H5    S    
C55   C60   S    
C50   C53   A    
C4    C83   S    
C17   C29   S    
Br3   C42   S    
C40   C53   A    
C80   C83   S    
Br4   C43   S    
C44   C54   A    
C3    C82   S    
C46   C49   A    
C56   C84   S    
C40   H21   S    
Br1   C77   S    
C76   C84   S    
C13   O23   A    
C77   C81   S    
C3    C72   T    
C84   H14   S    
C64   C74   S    
Br16  C77   S    
Cr2   O25   S    
C47   C50   A    
Br20  C19   S    
C62   C75   S    
Cr3   O26   S    
C65   F6    S    
C37   H24   S    
C12   O25   A    
Br17  C79   S    
C14   O13   A    
C67   H11   S    
C56   H18   S    
C67   H8    S    
Cr4   O21   S    
Cr3   O4    S    
C5    C8    T    
Cr1   O5    S    
Br2   C41   S    
C20   C24   A    
C2    C71   T    
C64   H2    S    
C46   C55   A    
C58   O17   A    
Cr4   O10   S    
C22   C26   A    
C59   O18   A    
C16   C36   A    
Cr5   O9    S    
C31   C35   A    
C21   F10   S    
C11   O10   A    
Cr5   O22   S    
