data_mof_unit_18433.cif
_audit_creation_date              2012-12-10T17:47:11-0500
_audit_creation_method            fapswitch 2.2
_symmetry_space_group_name_H-M    P1
_symmetry_Int_Tables_number       1
_space_group_crystal_system       triclinic
_cell_length_a                    11.712333
_cell_length_b                    14.786939
_cell_length_c                    14.646416
_cell_angle_alpha                 65.115922
_cell_angle_beta                  102.767434
_cell_angle_gamma                 102.349713
_cell_volume                      2223.16738384

loop_
_atom_site_label
_atom_site_type_symbol
_atom_type_description
_atom_site_fract_x
_atom_site_fract_y
_atom_site_fract_z
_atom_type_partial_charge
C1    C     C_R   0.480374 0.119473 0.312169 0.813062
C2    C     C_R   0.518537 0.880426 0.687906 0.808604
C3    C     C_R   0.443317 0.321841 0.999617 -0.027935
C4    C     C_R   0.545378 0.676391 0.000091 -0.026995
C5    C     C_R   0.489036 0.466055 0.051176 -0.103709
C6    C     C_R   0.490482 0.533009 0.947192 -0.103716
C7    C     C_R   0.475140 0.491184 0.873058 0.594384
C8    C     C_R   0.503742 0.507899 0.125142 0.587470
C9    C     C_R   0.445967 0.388437 0.898654 -0.250146
C10   C     C_R   0.539073 0.609878 0.100643 -0.245198
C11   C     C_R   0.725229 0.307037 0.630629 -0.357891
C12   C     C_R   0.277566 0.699768 0.360414 -0.392990
C13   C     C_R   0.686749 0.218805 0.612654 0.566088
C14   C     C_R   0.316534 0.787227 0.381019 0.572444
C15   C     C_R   0.498801 0.272591 0.535913 0.622958
C16   C     C_R   0.497715 0.723992 0.469407 0.645254
C17   C     C_R   0.541292 0.370526 0.537389 -0.098393
C18   C     C_R   0.452576 0.627191 0.467152 -0.082904
C19   C     C_R   0.653022 0.381920 0.594399 -0.064878
C20   C     C_R   0.343318 0.619314 0.405371 -0.064433
C21   C     C_R   0.474821 0.454364 0.491385 -0.129926
C22   C     C_R   0.515788 0.541593 0.515848 -0.120765
C23   C     C_R   0.284264 0.000703 0.499468 0.822693
C24   C     C_R   0.715607 0.999603 0.499740 0.816433
C25   C     C_R   0.617363 0.539081 0.589550 0.709967
C26   C     C_R   0.372405 0.456533 0.418413 0.699317
C27   C     C_R   0.688495 0.464229 0.622000 -0.246880
C28   C     C_R   0.305268 0.535039 0.380947 -0.240540
C29   C     C_1   0.162375 0.001346 0.498451 -0.184714
C30   C     C_1   0.837011 0.999136 0.498814 -0.153751
C31   C     C_1   0.059536 0.000644 0.497963 -0.020357
C32   C     C_1   0.939469 0.999601 0.498197 -0.002888
C33   C     C_R   0.465992 0.187125 0.203944 -0.146317
C34   C     C_R   0.528432 0.812259 0.796224 -0.144265
C35   C     C_R   0.418588 0.217116 0.024407 0.471328
C36   C     C_R   0.578142 0.780435 0.976711 0.489502
C37   C     C_R   0.428651 0.150321 0.127039 -0.296751
C38   C     C_R   0.573594 0.847483 0.873752 -0.307367
C39   C     C_R   0.491425 0.290765 0.178130 -0.120578
C40   C     C_R   0.492948 0.709385 0.821365 -0.116945
C41   C     C_R   0.472140 0.360019 0.077127 0.027323
C42   C     C_R   0.510749 0.639062 0.921936 0.026855
Cu1   Cu    Cu3+1 0.469550 0.918260 0.475690 1.016190
Cu2   Cu    Cu3+1 0.530450 0.081740 0.524310 1.021103
H1    H     H_    0.431481 0.360884 0.838583 0.200542
H2    H     H_    0.554480 0.637294 0.160904 0.199172
H3    H     H_    0.445952 0.686145 0.761293 0.227144
H4    H     H_    0.533497 0.315694 0.238067 0.232339
H5    H     H_    0.602537 0.926888 0.854133 0.145214
H6    H     H_    0.412370 0.069964 0.146159 0.171219
H7    H     H_    0.769586 0.468159 0.673787 0.167878
H8    H     H_    0.225511 0.532262 0.327431 0.171406
H9    H     H_    0.811825 0.317410 0.672668 0.164029
H10   H     H_    0.197392 0.694287 0.308520 0.165229
N1    N     N_R   0.576230 0.204580 0.560790 -0.274768
N2    N     N_R   0.423770 0.795420 0.439210 -0.277666
O1    O     O_R   0.459870 0.022090 0.338120 -0.563495
O2    O     O_R   0.540130 0.977910 0.661880 -0.591809
O3    O     O_R   0.511290 0.160150 0.379180 -0.562807
O4    O     O_R   0.488710 0.839850 0.620820 -0.556299
O5    O     O_R   0.311490 0.930960 0.479480 -0.555339
O6    O     O_R   0.688510 0.069040 0.520520 -0.526565
O7    O     O_R   0.362910 0.069020 0.520540 -0.524783
O8    O     O_R   0.637090 0.930980 0.479460 -0.552508
F1    F     F_    0.646794 0.605491 0.635270 -0.593481
F2    F     F_    0.340046 0.387609 0.375842 -0.597827
O9    O     O_3   0.399675 0.181077 0.948153 -0.638830
C43   C     C_3   0.288142 0.121459 0.945126 0.031857
H11   H     H_    0.233346 0.162157 0.872383 0.158724
H12   H     H_    0.238721 0.106714 0.008142 0.129693
C44   C     C_3   0.304643 0.021000 0.946931 -0.353724
H13   H     H_    0.357092 0.035007 0.886472 0.217170
H14   H     H_    0.353607 0.977937 0.022102 0.209122
C45   C     C_3   0.186726 0.958421 0.929548 -0.919923
H15   H     H_    0.131505 0.944420 0.987939 0.262769
H16   H     H_    0.202694 0.884888 0.934851 0.259122
H17   H     H_    0.138654 0.997871 0.852734 0.256509
O10   O     O_3   0.625314 0.811932 0.056260 -0.630156
C46   C     C_3   0.582144 0.899150 0.044517 0.034718
H18   H     H_    0.548148 0.883125 0.115614 0.149400
H19   H     H_    0.506814 0.921117 0.981903 0.129751
C47   C     C_3   0.683848 0.985701 0.030245 -0.391716
H20   H     H_    0.748740 0.968401 0.101102 0.225415
H21   H     H_    0.728856 0.993638 0.967790 0.224085
C48   C     C_3   0.640896 0.084864 0.005006 -0.868676
H22   H     H_    0.580202 0.106036 0.931621 0.275112
H23   H     H_    0.717458 0.145218 0.997909 0.251701
H24   H     H_    0.594891 0.077975 0.066644 0.269591
F3    F     F_    0.496363 0.546483 0.776264 -0.649367
F4    F     F_    0.476558 0.453578 0.220349 -0.648098
O11   O     O_3   0.618354 0.754355 0.477736 -0.516006
C49   C     C_3   0.653045 0.797863 0.379143 0.107610
H25   H     H_    0.713367 0.868930 0.371154 0.165528
H26   H     H_    0.578516 0.819549 0.315026 0.051604
C50   C     C_3   0.719263 0.727634 0.363894 -0.403054
H27   H     H_    0.664270 0.653533 0.376768 0.218692
H28   H     H_    0.735572 0.760644 0.283634 0.207683
C51   C     C_3   0.837648 0.713400 0.433929 -0.763832
H29   H     H_    0.895444 0.786824 0.418203 0.230362
H30   H     H_    0.882573 0.662096 0.420517 0.223954
H31   H     H_    0.824453 0.680064 0.514926 0.298238
O12   O     O_3   0.379107 0.238109 0.530720 -0.508567
C52   C     C_3   0.343519 0.221290 0.623821 0.083909
H32   H     H_    0.353007 0.293025 0.634279 0.119944
H33   H     H_    0.397551 0.168795 0.689764 0.084560
C53   C     C_3   0.214088 0.174188 0.626566 -0.352662
H34   H     H_    0.203852 0.097702 0.627291 0.217654
H35   H     H_    0.188122 0.166193 0.698345 0.157739
C54   C     C_3   0.131612 0.237934 0.537015 -0.686317
H36   H     H_    0.142951 0.315343 0.534759 0.228137
H37   H     H_    0.038508 0.203457 0.545579 0.225311
H38   H     H_    0.149925 0.241605 0.464224 0.302018
O13   O     O_3   0.259658 0.872518 0.330812 -0.575301
C55   C     C_3   0.134765 0.851441 0.317447 0.059148
H39   H     H_    0.100832 0.902150 0.340501 0.168656
H40   H     H_    0.099584 0.773687 0.366723 0.123330
C56   C     C_3   0.087439 0.875634 0.204689 -0.385566
H41   H     H_    0.110042 0.957563 0.160288 0.224593
H42   H     H_    0.129398 0.834438 0.175650 0.220479
C57   C     C_3   0.953866 0.847157 0.187938 -0.894412
H43   H     H_    0.930037 0.764672 0.227737 0.267528
H44   H     H_    0.921456 0.868442 0.105440 0.265876
H45   H     H_    0.910408 0.887205 0.217188 0.248158
O14   O     O_3   0.761522 0.146629 0.646540 -0.574941
C58   C     C_3   0.788313 0.105796 0.754069 0.051275
H46   H     H_    0.767765 0.022746 0.780678 0.166509
H47   H     H_    0.734983 0.129315 0.792861 0.118657
C59   C     C_3   0.920563 0.131186 0.786695 -0.352757
H48   H     H_    0.971408 0.093249 0.760832 0.219632
H49   H     H_    0.948982 0.213316 0.750991 0.215037
C60   C     C_3   0.949525 0.097419 0.901944 -0.945975
H50   H     H_    0.896999 0.132453 0.929523 0.265839
H51   H     H_    0.043868 0.121589 0.923251 0.251232
H52   H     H_    0.931326 0.014232 0.939426 0.259681

loop_
_geom_bond_atom_site_label_1
_geom_bond_atom_site_label_2
_ccdc_geom_bond_type
C40   H3    S    
C14   N2    A    
C21   C26   A    
C4    C36   A    
C9    H1    S    
C11   C13   A    
C50   H27   S    
C60   H52   S    
C59   H48   S    
C56   H42   S    
C55   H39   S    
C50   C51   S    
C1    C33   S    
C39   C41   A    
C38   H5    S    
C48   H22   S    
C11   C19   A    
C33   C39   A    
C45   H16   S    
C34   C40   A    
C23   C29   S    
C35   C37   A    
C54   H37   S    
C5    C6    A    
C2    O4    A    
C53   H34   S    
Cu2   O3    S    
C7    F3    S    
C15   C17   A    
C17   C19   A    
Cu2   O2    S    
C43   H11   S    
C45   H17   S    
C10   H2    S    
C58   C59   S    
C35   O9    S    
C19   C27   A    
C11   H9    S    
C57   H45   S    
C2    C34   S    
C23   O7    A    
C24   O8    A    
C34   C38   A    
C21   C22   A    
C57   H44   S    
Cu1   O8    S    
C24   C30   S    
C48   H23   S    
Cu2   O7    S    
C45   H15   S    
O9    C43   S    
C26   F2    S    
C25   F1    S    
C54   H38   S    
O11   C49   S    
C46   H19   S    
C13   O14   S    
O10   C46   S    
C20   C28   A    
Cu2   O6    S    
C22   C25   A    
C49   C50   S    
C17   C21   A    
C15   N1    A    
Cu1   Cu2   S    
C16   N2    A    
C3    C9    A    
C1    O1    A    
C44   C45   S    
C31   C32   S    
C3    C35   A    
C12   C20   A    
C49   H26   S    
C52   H33   S    
Cu1   O4    S    
C16   C18   A    
C12   C14   A    
C51   H29   S    
C47   H21   S    
C58   H46   S    
C56   C57   S    
C5    C8    A    
C8    F4    S    
C4    C10   A    
C60   H50   S    
C47   C48   S    
C59   C60   S    
C57   H43   S    
Cu1   O5    S    
C53   H35   S    
C44   H14   S    
O13   C55   S    
C48   H24   S    
C7    C9    A    
C5    C41   A    
C50   H28   S    
C3    C41   A    
C24   O6    A    
C18   C22   A    
C26   C28   A    
C40   C42   A    
C60   H51   S    
C59   H49   S    
C46   C47   S    
C55   H40   S    
C2    O2    A    
C6    C7    A    
C25   C27   A    
C14   O13   S    
C51   H30   S    
C51   H31   S    
C1    O3    A    
C44   H13   S    
C29   C31   T    
C36   O10   S    
C56   H41   S    
C30   C32   T    
C37   H6    S    
C28   H8    S    
Cu2   N1    S    
C4    C42   A    
C43   C44   S    
C36   C38   A    
C49   H25   S    
C27   H7    S    
C52   C53   S    
C18   C20   A    
C15   O12   S    
O12   C52   S    
C33   C37   A    
C55   C56   S    
Cu1   O1    S    
C46   H18   S    
Cu1   N2    S    
C23   O5    A    
C16   O11   S    
C8    C10   A    
C47   H20   S    
C6    C42   A    
C52   H32   S    
C58   H47   S    
C43   H12   S    
C39   H4    S    
C54   H36   S    
C12   H10   S    
O14   C58   S    
C13   N1    A    
C53   C54   S    
