data_mof_unit_67128.cif
_audit_creation_date              2013-03-05T15:58:41-0500
_audit_creation_method            fapswitch 2.2
_symmetry_space_group_name_H-M    P1
_symmetry_Int_Tables_number       1
_space_group_crystal_system       triclinic
_cell_length_a                    8.221126
_cell_length_b                    12.633313
_cell_length_c                    14.845796
_cell_angle_alpha                 96.733829
_cell_angle_beta                  97.287956
_cell_angle_gamma                 98.546905
_cell_volume                      1497.81221714

loop_
_atom_site_label
_atom_site_type_symbol
_atom_site_description
_atom_site_fract_x
_atom_site_fract_y
_atom_site_fract_z
_atom_type_partial_charge
P1    P     P_3+3 0.998770 0.403620 0.291990 0.497171
O1    O     O_2   0.827930 0.435360 0.277760 -0.351546
O2    O     O_3   0.100310 0.439010 0.391180 -0.390893
O3    O     O_3   0.625610 0.634200 0.333270 -0.383428
O4    O     O_2   0.709299 0.558683 0.173136 -0.399655
O5    O     O_3   0.927898 0.263902 0.277391 -0.539275
O6    O     O_3   0.633593 0.752261 0.182062 -0.532080
H1    H     H_    0.710940 0.839530 0.310223 0.164068
C1    C     C_3   0.611347 0.938943 0.215907 -0.699695
H2    H     H_    0.639805 0.005596 0.274316 0.152160
H3    H     H_    0.709859 0.949380 0.171417 0.268995
P2    P     P_3+3 0.687370 0.751000 0.571300 0.455224
P3    P     P_3+3 0.104098 0.828399 0.375469 0.426234
O7    O     O_2   0.857120 0.766320 0.543890 -0.413296
O8    O     O_3   0.056570 0.691100 0.379020 -0.383352
O9    O     O_2   0.988113 0.883358 0.432950 -0.393634
O10   O     O_3   0.702705 0.785211 0.691249 -0.602847
O11   O     O_3   0.043387 0.851748 0.263155 -0.547094
C2    C     C_3   0.075942 0.766171 0.202254 0.356221
H4    H     H_    0.001060 0.688349 0.211006 0.165945
H5    H     H_    0.210030 0.759667 0.212754 0.008032
C3    C     C_3   0.027892 0.786230 0.104193 -0.759324
H6    H     H_    0.064968 0.723001 0.056399 0.237103
H7    H     H_    0.891478 0.783304 0.089019 0.287522
C4    C     C_3   0.272337 0.778792 0.649402 0.388927
H8    H     H_    0.389722 0.754729 0.633745 0.128532
H9    H     H_    0.173243 0.748905 0.589929 0.124937
C5    C     C_3   0.292201 0.901577 0.665624 -0.924779
H10   H     H_    0.335813 0.932607 0.738955 0.284427
H11   H     H_    0.382845 0.938311 0.624460 0.220803
H12   H     H_    0.171534 0.927251 0.645095 0.263939
Ba1   Ba    Ba6+2 0.843760 0.550230 0.455610 1.567620
C6    C     C_3   0.052341 0.208766 0.311127 0.209176
H13   H     H_    0.031994 0.191222 0.380791 0.092552
H14   H     H_    0.176582 0.255831 0.315640 0.100522
C7    C     C_3   0.044036 0.102111 0.249198 -0.080844
H15   H     H_    0.937249 0.043917 0.260927 0.125556
H16   H     H_    0.157701 0.067773 0.268417 0.112722
C8    C     C_3   0.853168 0.772081 0.741972 0.833256
H17   H     H_    0.930488 0.728844 0.699798 0.022343
C9    C     C_3   0.948299 0.883942 0.784852 -0.943863
H18   H     H_    0.960892 0.939063 0.733144 0.229427
H19   H     H_    0.074501 0.877685 0.818249 0.278405
H20   H     H_    0.881041 0.920504 0.837609 0.267938
P4    P     P_3+3 0.190950 0.596470 0.708020 0.485767
O12   O     O_2   0.361790 0.564680 0.722290 -0.314565
O13   O     O_3   0.089410 0.561080 0.608830 -0.416366
O14   O     O_3   0.564100 0.365890 0.666740 -0.375685
O15   O     O_3   0.234157 0.737783 0.729130 -0.567010
P5    P     P_3+3 0.087822 0.168643 0.617516 0.439379
O16   O     O_3   0.601940 0.368260 0.453780 -0.379989
O17   O     O_3   0.133140 0.308990 0.620990 -0.387916
O18   O     O_2   0.216591 0.118867 0.566179 -0.380553
O19   O     O_3   0.132555 0.136827 0.728821 -0.533148
Ba2   Ba    Ba6+2 0.346080 0.449860 0.544400 1.585843
P6    P     P_3+3 0.583791 0.623520 0.213777 0.436045
C10   C     C_3   0.608289 0.830387 0.252106 0.336937
H21   H     H_    0.488330 0.807832 0.277618 0.004383
O20   O     O_3   0.587770 0.631830 0.546230 -0.361937
C11   C     C_3   0.472643 0.292331 0.252505 0.379003
H22   H     H_    0.350200 0.315766 0.233928 0.028286
H23   H     H_    0.554021 0.363671 0.292908 0.154555
C12   C     C_3   0.537618 0.264529 0.162609 -0.773977
H24   H     H_    0.446705 0.201371 0.116468 0.275992
H25   H     H_    0.558019 0.337527 0.127804 0.209302
H26   H     H_    0.656025 0.233538 0.175409 0.297448
P7    P     P_3+3 0.503919 0.234176 0.418391 0.423610
O21   O     O_2   0.332600 0.233710 0.456170 -0.387686
O22   O     O_3   0.455475 0.200409 0.298268 -0.601383
H27   H     H_    0.091333 0.866460 0.093226 0.272654
C13   C     C_3   0.113218 0.224092 0.792285 0.389884
H28   H     H_    0.202937 0.297361 0.787401 0.153716
H29   H     H_    0.984551 0.241809 0.780912 0.016946
C14   C     C_3   0.148359 0.195752 0.888912 -0.815755
H30   H     H_    0.278903 0.182049 0.903344 0.283203
H31   H     H_    0.129280 0.263046 0.939585 0.216551
H32   H     H_    0.063735 0.121283 0.896446 0.270167
P8    P     P_3+3 0.604950 0.375293 0.785571 0.495923
C15   C     C_3   0.600436 0.169907 0.749654 0.427281
H33   H     H_    0.706651 0.202725 0.715865 0.021342
O23   O     O_2   0.479835 0.439573 0.826929 -0.367947
O24   O     O_3   0.557368 0.245882 0.815908 -0.525777
H34   H     H_    0.491018 0.139750 0.696101 0.147228
H35   H     H_    0.767680 0.103362 0.843543 0.265859
C16   C     C_3   0.649929 0.075921 0.795723 -0.961030
H36   H     H_    0.667817 0.010399 0.743035 0.237121
H37   H     H_    0.552394 0.044424 0.835533 0.291664
C17   C     C_R   0.366926 0.558825 0.168647 0.190446
H38   H     H_    0.328329 0.523928 0.302993 0.176515
H39   H     H_    0.505576 0.645783 0.032116 0.205225
C18   C     C_R   0.111564 0.462173 0.204911 0.274166
C19   C     C_R   0.918583 0.479020 0.765920 -0.448500
C20   C     C_R   0.820841 0.438063 0.827809 0.300905
C21   C     C_R   0.887083 0.442990 0.919697 -0.258934
C22   C     C_R   0.053450 0.492498 0.952767 0.058528
C23   C     C_R   0.148698 0.541590 0.889757 0.012739
C24   C     C_R   0.126383 0.497742 0.046784 0.028076
C25   C     C_R   0.293188 0.552462 0.075968 -0.022203
C26   C     C_R   0.380217 0.602535 0.012916 -0.157722
C27   C     C_R   0.307717 0.600088 0.923033 -0.045392
C28   C     C_R   0.039344 0.450725 0.113070 -0.244369
C29   C     C_R   0.273119 0.516817 0.231937 -0.521600
C30   C     C_R   0.080527 0.532756 0.795276 0.232392
H40   H     H_    0.915287 0.405439 0.096229 0.164647
H41   H     H_    0.865193 0.473255 0.694703 0.172264
H42   H     H_    0.804692 0.408253 0.963238 0.153662
H43   H     H_    0.379535 0.645154 0.880148 0.210264
C31   C     C_R   0.777974 0.178864 0.519382 -0.463687
C32   C     C_R   0.420721 0.807235 0.459849 -0.508266
C33   C     C_R   0.388653 0.985838 0.426295 -0.229397
C34   C     C_R   0.323107 0.877573 0.422796 0.223894
C35   C     C_R   0.580732 0.845982 0.507523 0.274698
C36   C     C_R   0.648419 0.957831 0.512508 -0.067165
C37   C     C_R   0.551060 0.027719 0.469954 -0.072203
C38   C     C_R   0.617446 0.138480 0.474124 0.273384
C39   C     C_R   0.874741 0.111583 0.560716 0.213419
C40   C     C_R   0.809791 0.002489 0.558299 -0.203211
H44   H     H_    0.309092 0.036689 0.396487 0.166887
H45   H     H_    0.889027 0.953795 0.590619 0.167433
H46   H     H_    0.829223 0.263286 0.521398 0.180822
H47   H     H_    0.367769 0.722945 0.456565 0.171377
N1    N     N_R   0.029606 0.116373 0.152387 0.268902
O25   O     O_R   0.890998 0.135527 0.109798 -0.378675
O26   O     O_R   0.147363 0.096361 0.105434 -0.409007
N2    N     N_R   0.816221 0.710197 0.816380 0.208374
O27   O     O_R   0.664783 0.665552 0.820209 -0.371197
O28   O     O_R   0.931006 0.709813 0.885108 -0.463483
C41   C     C_2   0.447426 0.946168 0.162423 0.746992
H48   H     H_    0.340665 0.950951 0.197699 0.003248
O29   O     O_2   0.433766 0.948633 0.079889 -0.533764

loop_
_geom_bond_atom_site_label_1
_geom_bond_atom_site_label_2
_geom_bond_distance
_ccdc_geom_bond_type
O14   Ba2   2.797806 S    
C12   H25   1.110560 S    
C20   C21   1.393872 A    
C8    N2    1.463137 S    
Ba2   O20   2.801351 S    
H38   C29   1.082139 S    
C9    H18   1.099560 S    
C31   H46   1.082430 S    
O4    P6    1.546887 D    
C2    H4    1.110317 S    
P2    C35   1.863703 S    
C41   H48   1.083161 S    
C33   H44   1.074466 S    
Ba2   O21   2.866892 S    
O8    Ba1   2.752216 S    
C8    C9    1.532376 S    
P4    O12   1.513575 D    
C4    C5    1.522484 S    
P5    O19   1.752933 S    
C14   H31   1.110338 S    
P3    O11   1.750513 S    
C11   C12   1.522002 S    
C31   C38   1.395675 A    
O1    Ba1   2.837662 S    
C5    H10   1.107470 S    
C2    H5    1.110211 S    
O11   C2    1.405725 S    
C32   C34   1.396705 A    
P6    C17   1.852268 S    
P8    C20   1.831629 S    
C6    C7    1.526978 S    
C39   C40   1.396674 A    
C11   H23   1.100833 S    
P1    O1    1.513278 D    
O10   C8    1.406635 S    
O14   P8    1.740052 S    
P7    C38   1.841544 S    
C33   C34   1.385989 A    
P4    C30   1.864327 S    
C19   C30   1.392153 A    
P2    O20   1.581270 S    
O2    Ba2   2.820261 S    
O19   C13   1.405295 S    
C22   C23   1.431919 A    
C14   H32   1.109714 S    
O12   Ba2   2.838070 S    
P5    O17   1.750003 S    
C1    H2    1.111057 S    
C33   C37   1.404551 A    
Ba1   Ba2   4.505985 S    
P5    C39   1.845721 S    
O17   Ba2   2.752848 S    
P4    O13   1.577324 S    
C12   H26   1.104891 S    
P1    C18   1.844660 S    
O3    P6    1.748925 S    
C9    H19   1.109757 S    
C21   C22   1.416418 A    
O6    P6    1.750747 S    
C18   C28   1.398318 A    
C35   C36   1.429364 A    
C24   C25   1.429470 A    
C4    O15   1.399155 S    
C16   H37   1.109559 S    
P5    O18   1.545044 D    
C14   H30   1.110527 S    
P7    O21   1.580189 D    
C1    C41   1.495638 S    
Ba1   O13   2.819661 S    
C2    C3    1.519857 S    
H35   C16   1.108814 S    
C32   C35   1.400766 A    
C8    H17   1.103808 S    
C13   H29   1.109699 S    
O16   Ba2   2.886937 S    
C4    H8    1.097855 S    
C16   H36   1.110036 S    
P1    Ba1   3.374427 S    
C15   H33   1.112796 S    
C11   H22   1.101949 S    
P1    O2    1.577323 S    
P2    O10   1.766379 S    
C7    N1    1.461510 S    
Ba1   O16   2.801978 S    
H1    C10   1.110341 S    
C15   O24   1.407850 S    
P8    O24   1.748132 S    
C26   C27   1.385600 A    
P4    O15   1.750308 S    
C6    H13   1.110559 S    
O16   P7    1.752978 S    
C1    H3    1.110827 S    
O3    Ba1   2.798461 S    
C36   C40   1.413934 A    
P2    O7    1.494267 D    
C28   H40   1.076258 S    
P3    O8    1.728960 S    
N2    O27   1.299269 A    
C9    H20   1.110619 S    
C3    H7    1.109702 S    
P3    O9    1.543943 D    
C18   C29   1.388845 A    
N1    O26   1.299868 A    
C7    H16   1.106648 S    
H39   C26   1.078637 S    
C15   C16   1.518743 S    
O13   Ba2   2.901709 S    
C36   C37   1.425437 A    
C21   H42   1.076330 S    
C27   H43   1.076348 S    
C5    H12   1.106474 S    
O7    Ba1   2.866624 S    
C41   O29   1.220649 D    
C13   C14   1.521671 S    
C17   C29   1.392253 A    
C22   C24   1.437434 A    
C37   C38   1.415546 A    
C4    H9    1.110716 S    
O5    C6    1.395095 S    
C31   C39   1.389731 A    
C40   H45   1.068648 S    
C13   H28   1.110163 S    
P3    C34   1.834563 S    
C15   H34   1.109980 S    
P8    O23   1.544670 D    
C32   H47   1.081880 S    
C10   H21   1.110761 S    
C11   O22   1.410922 S    
C23   C27   1.400936 A    
C5    H11   1.106067 S    
C19   C20   1.390253 A    
C6    H14   1.092727 S    
C3    H27   1.108589 S    
C1    C10   1.528480 S    
O2    Ba1   2.900883 S    
C24   C28   1.422190 A    
C12   H24   1.108669 S    
C17   C25   1.419510 A    
C19   H41   1.081890 S    
P4    Ba2   3.374968 S    
C7    H15   1.103856 S    
C25   C26   1.400892 A    
C23   C30   1.427999 A    
P1    O5    1.753453 S    
N2    O28   1.299933 A    
C3    H6    1.108485 S    
Ba1   O20   2.887836 S    
P7    O22   1.764016 S    
N1    O25   1.300715 A    
O6    C10   1.404968 S    
P2    Ba1   3.397660 S    
