data_mof_unit_40597.cif
_audit_creation_date              2012-12-10T17:03:43-0500
_audit_creation_method            fapswitch 2.2
_symmetry_space_group_name_H-M    P1
_symmetry_Int_Tables_number       1
_space_group_crystal_system       triclinic
_cell_length_a                    10.017808
_cell_length_b                    10.762024
_cell_length_c                    13.101791
_cell_angle_alpha                 89.804066
_cell_angle_beta                  69.555245
_cell_angle_gamma                 89.26852
_cell_volume                      1323.44417296

loop_
_atom_site_label
_atom_site_type_symbol
_atom_type_description
_atom_site_fract_x
_atom_site_fract_y
_atom_site_fract_z
_atom_type_partial_charge
C1    C     C_R   0.501137 0.736983 0.496080 0.877343
C2    C     C_R   0.432115 0.487029 0.985542 0.116748
C3    C     C_R   0.453430 0.446499 0.878903 -0.000018
C4    C     C_R   0.539235 0.460041 0.030046 0.104811
C5    C     C_R   0.652468 0.376790 0.976198 0.097897
C6    C     C_R   0.660608 0.324108 0.877171 -0.197620
C7    C     C_R   0.562760 0.358734 0.828806 -0.159965
C8    C     C_R   0.537091 0.514668 0.126485 -0.326977
C9    C     C_R   0.743431 0.392557 0.126333 0.536154
C10   C     C_R   0.366774 0.496766 0.823818 -0.233345
C11   C     C_2   0.608559 0.059888 0.513629 0.485255
C12   C     C_R   0.420236 0.497251 0.704681 0.871865
C13   C     C_2   0.494025 0.132603 0.525852 -0.392765
C14   C     C_2   0.582219 0.929778 0.529648 -0.419375
C15   C     C_2   0.511163 0.866960 0.477095 0.273885
C16   C     C_2   0.110379 0.449252 0.423505 -0.086075
C17   C     C_2   0.962186 0.457983 0.419615 -0.029749
C18   C     C_R   0.499760 0.262642 0.504176 0.959027
C19   C     C_R   0.579609 0.496998 0.295474 0.972253
C20   C     C_R   0.754447 0.344941 0.023184 -0.329119
C21   C     C_R   0.628795 0.474167 0.178612 -0.156810
C22   C     C_R   0.240094 0.562221 0.882110 0.522545
C23   C     C_R   0.209369 0.587658 0.992440 -0.244481
C24   C     C_R   0.304712 0.552686 0.043302 -0.281267
H1    H     H_    0.388146 0.092711 0.553805 0.171011
H2    H     H_    0.623994 0.883436 0.586344 0.152431
H3    H     H_    0.190524 0.400738 0.357239 0.174496
H4    H     H_    0.074924 0.551388 0.557738 0.165409
H5    H     H_    0.946557 0.425586 0.346453 0.193811
H6    H     H_    0.865183 0.521494 0.570898 0.164491
H7    H     H_    0.744149 0.257628 0.836033 0.168218
H8    H     H_    0.837362 0.278523 0.981333 0.146306
H9    H     H_    0.459055 0.585181 0.166642 0.195270
H10   H     H_    0.274295 0.575969 0.128474 0.168888
H11   H     H_    0.114126 0.639873 0.037914 0.178602
H12   H     H_    0.572553 0.314991 0.752210 0.177085
N1    N     N_2   0.148270 0.498670 0.498870 -0.184419
N2    N     N_2   0.852610 0.498640 0.498840 -0.175520
O1    O     O_R   0.386950 0.680940 0.500020 -0.562443
O2    O     O_R   0.613110 0.680900 0.499980 -0.627835
O3    O     O_R   0.330780 0.500000 0.653640 -0.575880
O4    O     O_R   0.556930 0.499960 0.653610 -0.626293
O5    O     O_R   0.386890 0.319100 0.500020 -0.605166
O6    O     O_R   0.613050 0.319060 0.499980 -0.540141
O7    O     O_R   0.443070 0.500040 0.346390 -0.612905
O8    O     O_R   0.669220 0.500000 0.346360 -0.572419
Zn1   Zn    Zn3+2 0.349000 0.500030 0.500020 1.016244
Zn2   Zn    Zn3+2 0.651000 0.499970 0.499980 1.027854
O9    O     O_3   0.829297 0.351868 0.184112 -0.577200
C25   C     C_3   0.968320 0.317565 0.116054 -0.229509
H13   H     H_    0.969706 0.221505 0.084958 0.188982
H14   H     H_    0.038835 0.317738 0.165137 0.195775
H15   H     H_    0.013483 0.384264 0.048080 0.119396
S1    S     S_3+6 0.459825 0.925170 0.368433 0.040239
O10   O     O_2   0.312113 0.980196 0.413804 -0.279353
O11   O     O_2   0.561868 0.022311 0.304625 -0.267464
O12   O     O_3   0.459460 0.807301 0.284539 -0.574619
H16   H     H_    0.424596 0.844539 0.229131 0.383753
O13   O     O_3   0.155979 0.614150 0.828439 -0.589593
C26   C     C_3   0.026793 0.548919 0.857648 -0.277913
H17   H     H_    0.959051 0.567937 0.943652 0.159558
H18   H     H_    0.045415 0.447084 0.843654 0.146947
H19   H     H_    0.966914 0.581669 0.805477 0.192562
S2    S     S_3+6 0.789259 0.106093 0.474785 0.076829
O14   O     O_2   0.831798 0.174564 0.368270 -0.208004
O15   O     O_2   0.808436 0.189385 0.560441 -0.338576
O16   O     O_3   0.896030 0.980286 0.459346 -0.492975
H20   H     H_    0.886117 0.954652 0.534309 0.353856

loop_
_geom_bond_atom_site_label_1
_geom_bond_atom_site_label_2
_ccdc_geom_bond_type
C25   H14   S    
C23   C24   A    
C19   O7    A    
C6    C7    A    
C1    C15   S    
C18   O6    A    
N1    Zn1   S    
C17   H5    S    
C7    H12   S    
C9    C20   A    
C2    C4    A    
C14   C15   D    
C16   N1    D    
C4    C8    A    
C13   H1    S    
S2    O14   D    
C14   H2    S    
C16   H3    S    
C6    H7    S    
O3    Zn1   S    
C19   O8    A    
O13   C26   S    
C3    C10   A    
O4    Zn2   S    
C18   O5    A    
C10   C22   A    
C11   C13   D    
C9    C21   A    
O12   H16   S    
C12   O3    A    
C10   C12   S    
H4    N1    S    
C26   H19   S    
C13   C18   S    
O1    Zn1   S    
C19   C21   S    
C2    C3    A    
C3    C7    A    
C23   H11   S    
C8    H9    S    
O7    Zn1   S    
C2    C24   A    
C5    C6    A    
C11   C14   S    
S1    O11   D    
C25   H15   S    
O8    Zn2   S    
S2    O16   S    
C1    O1    A    
O16   H20   S    
C15   S1    S    
O6    Zn2   S    
C9    O9    S    
C17   N2    D    
H6    N2    S    
C26   H18   S    
O9    C25   S    
C20   H8    S    
C22   O13   S    
C5    C20   A    
O2    Zn2   S    
C22   C23   A    
C4    C5    A    
C12   O4    A    
C1    O2    A    
C25   H13   S    
S1    O10   D    
N2    Zn2   S    
C24   H10   S    
O5    Zn1   S    
C16   C17   S    
S2    O15   D    
C26   H17   S    
C11   S2    S    
S1    O12   S    
C8    C21   A    
