data_mof_unit_61865.cif
_audit_creation_date              2012-10-26T17:27:25-0400
_audit_creation_method            fapswitch 2.2
_symmetry_space_group_name_H-M    P1
_symmetry_Int_Tables_number       1
_space_group_crystal_system       triclinic
_cell_length_a                    18.797019
_cell_length_b                    18.837393
_cell_length_c                    18.725215
_cell_angle_alpha                 109.095248
_cell_angle_beta                  109.282795
_cell_angle_gamma                 109.209946
_cell_volume                      5155.39068007

loop_
_atom_site_label
_atom_site_type_symbol
_atom_type_description
_atom_site_fract_x
_atom_site_fract_y
_atom_site_fract_z
_atom_type_partial_charge
C1    C     C_R   0.118328 0.999373 0.618641 0.523223
C2    C     C_R   0.251682 0.014592 0.829272 -0.078464
C3    C     C_R   0.315176 0.999597 0.814096 0.082304
C4    C     C_R   0.117062 0.118012 0.498225 0.519098
C5    C     C_R   0.305100 0.973373 0.730782 -0.015916
C6    C     C_3   0.363773 0.996923 0.694029 0.142615
C7    C     C_3   0.289249 0.992393 0.623766 -0.208752
C8    C     C_R   0.733487 0.759573 0.427611 0.060508
C9    C     C_R   0.813529 0.818363 0.501224 -0.005874
C10   C     C_R   0.824832 0.821796 0.580330 -0.131949
C11   C     C_R   0.761373 0.759020 0.583287 0.230863
C12   C     C_R   0.269425 0.234046 0.576762 0.024529
C13   C     C_R   0.685022 0.690793 0.504296 0.052803
C14   C     C_R   0.671903 0.696255 0.428579 -0.050705
C15   C     C_3   0.635834 0.633926 0.334749 0.162717
C16   C     C_R   0.881822 0.000810 0.381639 0.568988
C17   C     C_3   0.704529 0.706026 0.334327 0.422413
C18   C     C_R   0.826335 0.010413 0.248046 -0.029376
C19   C     C_R   0.817031 0.004271 0.316857 0.028779
C20   C     C_R   0.745638 0.005673 0.324794 -0.105692
C21   C     C_R   0.679616 0.002175 0.258497 -0.145967
C22   C     C_R   0.685228 0.998572 0.184534 0.024662
C23   C     C_R   0.187483 0.183486 0.501878 0.015922
C24   C     C_R   0.760889 0.005947 0.182043 0.033158
C25   C     C_3   0.776666 0.953263 0.114933 0.449987
C26   C     C_3   0.851816 0.962533 0.189675 0.134351
C27   C     C_R   0.498963 0.617932 0.618818 0.617458
C28   C     C_R   0.880587 0.881999 0.499604 0.577210
C29   C     C_R   0.381698 0.382285 0.502554 0.569078
C30   C     C_R   0.497430 0.378474 0.381604 0.585908
C31   C     C_R   0.618769 0.619855 0.500767 0.629472
C32   C     C_R   0.498784 0.118255 0.117542 0.549819
C33   C     C_R   0.381700 0.999303 0.880295 0.552274
C34   C     C_R   0.171012 0.197259 0.430914 -0.138476
C35   C     C_R   0.499025 0.881709 0.879986 0.576625
C36   C     C_R   0.618573 0.998578 0.117603 0.576696
C37   C     C_R   0.525859 0.766337 0.693813 0.048754
C38   C     C_R   0.499274 0.684336 0.686381 -0.033062
C39   C     C_R   0.482005 0.671093 0.750550 0.164880
C40   C     C_R   0.286148 0.218283 0.647952 -0.094005
C41   C     C_R   0.481846 0.736327 0.813256 -0.091670
C42   C     C_R   0.502439 0.815910 0.816037 -0.012469
C43   C     C_R   0.527918 0.831253 0.758269 0.021526
C44   C     C_3   0.492093 0.862465 0.699178 -0.217723
C45   C     C_R   0.234925 0.262712 0.433563 -0.130099
C46   C     C_3   0.489865 0.791805 0.628268 0.136318
C47   C     C_R   0.435651 0.269141 0.228757 0.100565
C48   C     C_R   0.496308 0.309723 0.315970 0.045872
C49   C     C_R   0.559576 0.283929 0.337633 -0.134957
C50   C     C_R   0.560603 0.220797 0.272335 -0.134531
C51   C     C_R   0.499252 0.183588 0.184682 0.036128
C52   C     C_R   0.365758 0.269843 0.723175 -0.076729
C53   C     C_R   0.438881 0.211052 0.165893 -0.021340
C54   C     C_3   0.364785 0.201073 0.093542 0.129433
C55   C     C_3   0.358776 0.265104 0.165687 0.437533
C56   C     C_R   0.317324 0.315651 0.507019 0.024437
C57   C     C_R   0.430778 0.336784 0.728631 -0.057540
C58   C     C_R   0.416572 0.352499 0.658845 -0.013957
C59   C     C_R   0.335786 0.301517 0.580630 0.050489
C60   C     C_R   0.238457 0.969213 0.666841 -0.028392
C61   C     C_R   0.182336 0.995770 0.684473 0.014982
C62   C     C_R   0.186595 0.014687 0.765399 -0.114753
Cu1   Cu    Cu3+1 0.000020 0.938200 0.438210 1.056772
Cu2   Cu    Cu3+1 0.999980 0.061800 0.561790 1.024057
Cu3   Cu    Cu3+1 0.438170 0.500030 0.438220 1.166151
Cu4   Cu    Cu3+1 0.561770 0.500000 0.561810 1.123266
Cu5   Cu    Cu3+1 0.561810 0.061820 0.000030 1.200895
Cu6   Cu    Cu3+1 0.438190 0.938280 0.000080 1.044865
H1    H     H_    0.107660 0.158012 0.373615 0.147005
H2    H     H_    0.845022 0.901272 0.188978 0.175969
H3    H     H_    0.464085 0.724567 0.859323 0.218997
H4    H     H_    0.426540 0.851555 0.687411 0.067189
H5    H     H_    0.538876 0.929316 0.719877 0.229713
H6    H     H_    0.423508 0.741632 0.574321 0.113340
H7    H     H_    0.376682 0.258248 0.777671 0.169458
H8    H     H_    0.608617 0.312828 0.404390 0.152140
H9    H     H_    0.609198 0.201519 0.290138 0.122252
H10   H     H_    0.309275 0.134351 0.054653 0.125286
H11   H     H_    0.492729 0.377310 0.787617 0.165922
H12   H     H_    0.379597 0.945985 0.667591 0.100010
H13   H     H_    0.470359 0.406658 0.670602 0.212103
H14   H     H_    0.219679 0.271428 0.377041 0.188462
H15   H     H_    0.140819 0.030734 0.779655 0.165398
H16   H     H_    0.254736 0.029939 0.891610 0.150773
H17   H     H_    0.709961 0.763216 0.755820 0.390772
H18   H     H_    0.735524 0.509655 0.394212 0.368921
H19   H     H_    0.746286 0.657597 0.259758 0.380748
H20   H     H_    0.595830 0.823697 0.273459 0.377335
H21   H     H_    0.659528 0.738148 0.925516 0.390460
H22   H     H_    0.885821 0.136371 0.088468 0.378628
H23   H     H_    0.300063 0.054941 0.625944 0.172379
H24   H     H_    0.976042 0.017223 0.254497 0.322847
H25   H     H_    0.325216 0.507250 0.641325 0.342800
H26   H     H_    0.702460 0.903246 0.649560 0.379236
H27   H     H_    0.332370 0.244890 0.912784 0.375813
H28   H     H_    0.325397 0.333973 0.119676 0.375431
H29   H     H_    0.211352 0.118316 0.204486 0.383997
H30   H     H_    0.492549 0.223723 0.865565 0.384694
H31   H     H_    0.262446 0.938230 0.558225 0.130052
H32   H     H_    0.884687 0.871744 0.639303 0.170365
H33   H     H_    0.568194 0.617249 0.294120 0.162819
H34   H     H_    0.738947 0.005209 0.379952 0.159041
H35   H     H_    0.237962 0.166165 0.646545 0.133114
H36   H     H_    0.623946 0.001208 0.264447 0.136286
O1    O     O_R   0.090180 0.947810 0.537990 -0.508296
O2    O     O_R   0.447830 0.038100 0.090230 -0.522869
O3    O     O_R   0.462030 0.052220 0.909860 -0.419984
O4    O     O_R   0.090150 0.052180 0.642350 -0.516297
O5    O     O_R   0.357640 0.947890 0.909900 -0.540009
O6    O     O_R   0.552170 0.962000 0.909870 -0.456623
O7    O     O_R   0.447780 0.857670 0.909910 -0.513327
O8    O     O_R   0.642360 0.052210 0.090200 -0.484795
O9    O     O_R   0.537970 0.947880 0.090240 -0.491700
O10   O     O_R   0.090190 0.037990 0.447830 -0.523091
O11   O     O_R   0.090170 0.142360 0.552190 -0.503453
O12   O     O_R   0.552150 0.590170 0.642370 -0.440429
O13   O     O_R   0.909850 0.947820 0.357650 -0.494413
O14   O     O_R   0.909820 0.052190 0.462010 -0.511832
O15   O     O_R   0.909830 0.857640 0.447810 -0.437189
O16   O     O_R   0.909810 0.962010 0.552170 -0.514911
O17   O     O_R   0.447770 0.590190 0.538000 -0.520928
O18   O     O_2   0.807275 0.703978 0.696860 -0.237311
O19   O     O_2   0.853691 0.857978 0.757174 -0.239188
O20   O     O_3   0.692331 0.752065 0.695499 -0.482298
O21   O     O_2   0.572753 0.472867 0.308717 -0.270541
O22   O     O_2   0.653701 0.506988 0.235308 -0.192892
O23   O     O_R   0.357600 0.409850 0.447820 -0.495825
O24   O     O_3   0.740343 0.565873 0.401641 -0.503304
O25   O     O_3   0.769054 0.689967 0.323152 -0.600745
O26   O     O_2   0.732274 0.810375 0.265569 -0.253252
O27   O     O_2   0.594883 0.674916 0.177860 -0.210552
O28   O     O_3   0.613169 0.797998 0.309975 -0.530258
O29   O     O_2   0.682424 0.796392 0.094889 -0.222183
O30   O     O_2   0.607932 0.841409 0.000292 -0.312523
O31   O     O_3   0.713821 0.793125 0.969054 -0.454090
O32   O     O_2   0.853421 0.969571 0.017830 -0.157768
O33   O     O_2   0.727033 0.990789 0.985436 -0.237956
O34   O     O_R   0.461980 0.409830 0.552180 -0.537152
O35   O     O_3   0.871709 0.112278 0.124795 -0.485198
O36   O     O_3   0.933674 0.016778 0.205492 -0.620525
O37   O     O_2   0.530844 0.559340 0.772933 -0.262085
O38   O     O_2   0.424368 0.571095 0.816419 -0.237761
O39   O     O_3   0.372424 0.492723 0.651802 -0.551422
O40   O     O_2   0.556365 0.759766 0.522354 -0.268730
O41   O     O_2   0.540444 0.888805 0.558020 -0.239414
O42   O     O_3   0.665376 0.892896 0.676360 -0.445597
O43   O     O_2   0.471811 0.333622 0.086059 -0.152633
O44   O     O_2   0.429730 0.187549 0.984624 -0.275563
O45   O     O_R   0.447790 0.409860 0.357660 -0.427248
O46   O     O_3   0.314868 0.237672 0.955487 -0.513409
O47   O     O_3   0.376750 0.344891 0.169023 -0.574133
O48   O     O_2   0.264610 0.284702 0.245073 -0.261752
O49   O     O_2   0.184916 0.182312 0.089179 -0.235406
O50   O     O_3   0.261709 0.137119 0.195147 -0.550099
O51   O     O_2   0.533099 0.097676 0.811860 -0.247047
O52   O     O_2   0.474788 0.138685 0.704087 -0.264810
O53   O     O_3   0.437500 0.168408 0.828874 -0.506616
O54   O     O_R   0.552170 0.409840 0.462020 -0.542945
O55   O     O_R   0.537960 0.590200 0.447840 -0.478961
O56   O     O_R   0.642340 0.590180 0.552210 -0.453299
O57   O     O_R   0.552220 0.142430 0.090190 -0.472801
S1    S     S_3+6 0.781662 0.769140 0.686528 0.069762
S2    S     S_3+6 0.456195 0.102958 0.760778 0.024602
S3    S     S_3+6 0.649456 0.540942 0.317568 0.057801
S4    S     S_3+6 0.660557 0.747755 0.268299 0.040538
S5    S     S_3+6 0.691476 0.843110 0.044224 0.062692
S6    S     S_3+6 0.806637 0.005758 0.056672 0.147449
S7    S     S_3+6 0.453328 0.572256 0.750751 0.008171
S8    S     S_3+6 0.563518 0.833468 0.592934 0.051516
S9    S     S_3+6 0.399046 0.242116 0.029715 0.035596
S10   S     S_3+6 0.263843 0.217549 0.173646 0.021567

loop_
_geom_bond_atom_site_label_1
_geom_bond_atom_site_label_2
_ccdc_geom_bond_type
H26   O42   S    
C62   H15   S    
C37   C43   A    
H21   O31   S    
C41   C42   A    
C57   H11   S    
C4    O11   A    
C2    H16   S    
C45   H14   S    
C33   O3    A    
O33   S6    D    
O29   S5    D    
Cu3   O55   S    
C52   H7    S    
C6    S2    S    
Cu4   O56   S    
H22   O35   S    
C27   O17   A    
C39   C41   A    
C53   C54   S    
C25   S6    S    
C29   O34   A    
C12   C23   A    
Cu4   O12   S    
C18   C24   A    
C5    C6    S    
Cu3   O23   S    
C30   C48   S    
C4    C23   S    
C26   O36   S    
C38   C39   A    
Cu1   O13   S    
C20   H34   S    
C3    C33   S    
C27   C38   S    
O24   S3    S    
Cu2   O14   S    
H17   O20   S    
C15   C17   S    
C18   C19   A    
C39   S7    S    
C35   C42   S    
C54   S9    S    
Cu1   O10   S    
C19   C20   A    
C45   C56   A    
C8    C9    A    
C18   C26   S    
C36   O8    A    
O44   S9    D    
O30   S5    D    
Cu3   O17   S    
Cu1   O1    S    
C9    C10   A    
O53   S2    S    
C31   O56   A    
H25   O39   S    
O43   S9    D    
Cu6   O9    S    
C47   C53   A    
C27   O12   A    
Cu2   O11   S    
C32   O2    A    
C13   C14   A    
Cu4   O54   S    
C21   H36   S    
C44   H5    S    
Cu6   O2    S    
O22   S3    D    
C36   O9    A    
C55   S10   S    
C44   C46   S    
Cu2   O4    S    
O20   S1    S    
O41   S8    D    
C17   O25   S    
Cu5   Cu6   S    
C15   S3    S    
O28   S4    S    
O52   S2    D    
C28   O16   A    
C58   H13   S    
H27   O46   S    
O48   S10   D    
C30   O45   A    
O51   S2    D    
C25   C26   S    
C40   C52   A    
H28   O47   S    
H18   O24   S    
O40   S8    D    
C11   S1    S    
C15   H33   S    
C60   C61   A    
C51   C53   A    
Cu6   O7    S    
C12   C40   A    
O35   S6    S    
C43   C44   S    
C32   C51   S    
C37   C38   A    
C16   O14   A    
Cu1   O15   S    
Cu5   O57   S    
Cu5   O6    S    
C6    H12   S    
C47   C48   A    
Cu4   O34   S    
H30   O53   S    
C23   C34   A    
C7    H23   S    
C32   O57   A    
O49   S10   D    
C50   C51   A    
C49   H8    S    
C34   C45   A    
H29   O50   S    
C24   C25   S    
C10   H32   S    
C34   H1    S    
C35   O6    A    
C7    H31   S    
C48   C49   A    
O32   S6    D    
Cu3   Cu4   S    
C29   O23   A    
C26   H2    S    
C22   C24   A    
O21   S3    D    
C33   O5    A    
C42   C43   A    
H20   O28   S    
C52   C57   A    
H24   O36   S    
C50   H9    S    
C7    C60   S    
C46   H6    S    
C35   O7    A    
C47   C55   S    
C4    O10   A    
C30   O54   A    
C54   C55   S    
O37   S7    D    
C8    C14   A    
C5    C60   A    
C13   C31   S    
C3    C5    A    
C28   O15   A    
C1    C61   S    
C56   C59   A    
C55   O47   S    
C6    C7    S    
C29   C56   S    
C25   S5    S    
C22   C36   S    
C8    C17   S    
Cu2   O16   S    
C46   S8    S    
C41   H3    S    
O18   S1    D    
C21   C22   A    
H19   O25   S    
C2    C3    A    
C58   C59   A    
C17   S4    S    
C16   O13   A    
C40   H35   S    
C11   C13   A    
O26   S4    D    
Cu5   O3    S    
C57   C58   A    
O46   S9    S    
C16   C19   S    
O31   S5    S    
O50   S10   S    
C44   H4    S    
Cu6   O5    S    
C12   C59   A    
Cu3   O45   S    
C61   C62   A    
O39   S7    S    
C10   C11   A    
C1    O4    A    
O38   S7    D    
Cu1   Cu2   S    
Cu5   O8    S    
C20   C21   A    
O27   S4    D    
C49   C50   A    
O42   S8    S    
C14   C15   S    
C37   C46   S    
O19   S1    D    
C31   O55   A    
C2    C62   A    
C9    C28   S    
C1    O1    A    
C54   H10   S    
