data_mof_unit_62097.cif
_audit_creation_date              2012-12-10T16:50:24-0500
_audit_creation_method            fapswitch 2.2
_symmetry_space_group_name_H-M    P1
_symmetry_Int_Tables_number       1
_space_group_crystal_system       triclinic
_cell_length_a                    19.156879
_cell_length_b                    19.074695
_cell_length_c                    18.642267
_cell_angle_alpha                 109.586854
_cell_angle_beta                  109.538142
_cell_angle_gamma                 110.683887
_cell_volume                      5151.19281932

loop_
_atom_site_label
_atom_site_type_symbol
_atom_type_description
_atom_site_fract_x
_atom_site_fract_y
_atom_site_fract_z
_atom_type_partial_charge
C1    C     C_R   0.375239 0.380173 0.493372 0.860675
C2    C     C_R   0.584690 0.345658 0.637389 0.127481
C3    C     C_2   0.169465 0.249558 0.488050 -0.130981
C4    C     C_R   0.619982 0.502090 0.621225 0.898423
C5    C     C_2   0.186742 0.200380 0.519197 -0.304183
C6    C     C_2   0.240774 0.322112 0.498156 0.322513
C7    C     C_2   0.298643 0.309724 0.478123 0.112449
C8    C     C_2   0.175420 0.495175 0.255175 0.341495
C9    C     C_2   0.187561 0.519568 0.198118 0.156401
C10   C     C_2   0.249344 0.507191 0.326640 -0.208613
C11   C     C_2   0.295325 0.472336 0.308157 0.255616
C12   C     C_R   0.762267 0.585075 0.761678 0.052599
C13   C     C_2   0.743529 0.825917 0.501297 0.386779
C14   C     C_2   0.817177 0.826811 0.513245 -0.432825
C15   C     C_2   0.682212 0.763583 0.512026 0.061541
C16   C     C_R   0.615669 0.619166 0.496598 0.981785
C17   C     C_2   0.672407 0.684145 0.486676 -0.372838
C18   C     C_R   0.997974 0.380551 0.879011 1.004643
C19   C     C_R   0.877501 0.499262 0.876568 0.945107
C20   C     C_R   0.001664 0.619002 0.120851 0.844472
C21   C     C_R   0.117308 0.504847 0.121125 0.884157
C22   C     C_R   0.003325 0.121443 0.619704 0.924007
C23   C     C_R   0.812544 0.501153 0.811957 -0.123078
C24   C     C_R   0.119161 0.123108 0.504727 0.930707
C25   C     C_R   0.003429 0.885588 0.380017 0.879070
C26   C     C_R   0.881288 0.884279 0.503365 0.993491
C27   C     C_2   0.008630 0.259423 0.680591 0.147667
C28   C     C_R   0.375560 0.493458 0.378679 0.876613
C29   C     C_2   0.015504 0.194927 0.689915 -0.312669
C30   C     C_2   0.019160 0.329848 0.755084 -0.138295
C31   C     C_2   0.991872 0.313009 0.808060 -0.270302
C32   C     C_2   0.081379 0.829184 0.321110 0.050938
C33   C     C_2   0.009363 0.832642 0.308046 0.298855
C34   C     C_R   0.740145 0.422223 0.735352 -0.022391
C35   C     C_2   0.077921 0.766297 0.246465 -0.239551
C36   C     C_2   0.016507 0.681552 0.203123 0.280969
C37   C     C_R   0.786020 0.668117 0.768456 0.073300
C38   C     C_R   0.854241 0.745732 0.849212 0.013245
C39   C     C_R   0.900789 0.741295 0.921798 0.407852
C40   C     C_R   0.884936 0.660606 0.911343 -0.204263
C41   C     C_R   0.819955 0.582304 0.829329 -0.037704
C42   C     C_R   0.667878 0.424531 0.688227 -0.009239
C43   C     C_R   0.683603 0.504472 0.691795 -0.141757
C44   C     C_R   0.735181 0.340696 0.704751 0.389925
C45   C     C_R   0.654764 0.263167 0.645167 -0.180771
C46   C     C_R   0.579582 0.265786 0.616146 -0.168849
Cl1   Cl    Cl    0.243672 0.421839 0.533005 -0.559542
Cl2   Cl    Cl    0.826610 0.332219 0.721901 -0.640084
Cl3   Cl    Cl    0.277011 0.202675 0.415809 -0.573822
Cl4   Cl    Cl    0.075432 0.452764 0.251632 -0.495136
Cl5   Cl    Cl    0.294424 0.584420 0.220973 -0.534085
Cl6   Cl    Cl    0.255655 0.391266 0.198505 -0.493872
Cl7   Cl    Cl    0.720924 0.901986 0.481100 -0.555302
Cl8   Cl    Cl    0.920570 0.782208 0.198904 -0.497624
Cl9   Cl    Cl    0.956234 0.639378 0.248828 -0.502555
Cl10  Cl    Cl    0.983359 0.836332 0.025322 -0.537747
H1    H     H_    0.516865 0.205380 0.575838 0.184269
H2    H     H_    0.924057 0.660220 0.968384 0.191572
H3    H     H_    0.650390 0.200717 0.622343 0.196135
H4    H     H_    0.104117 0.237596 0.456669 0.196324
H5    H     H_    0.675901 0.845828 0.608290 0.207109
H6    H     H_    0.592862 0.798716 0.504038 0.247083
H7    H     H_    0.794457 0.704224 0.679892 0.189443
H8    H     H_    0.722406 0.715304 0.708662 0.232904
H9    H     H_    0.986953 0.314563 0.604893 0.213652
H10   H     H_    0.051480 0.274892 0.598464 0.179960
H11   H     H_    0.209457 0.920684 0.398045 0.209827
H12   H     H_    0.253646 0.218604 0.558137 0.186951
H13   H     H_    0.176486 0.844146 0.425241 0.223481
H14   H     H_    0.868364 0.864455 0.906772 0.244920
H15   H     H_    0.940418 0.862277 0.873808 0.235128
H16   H     H_    0.468759 0.315026 0.548893 0.235057
H17   H     H_    0.515507 0.406548 0.649581 0.185690
H18   H     H_    0.268097 0.548121 0.394661 0.183119
H19   H     H_    0.834457 0.787491 0.537602 0.134843
H20   H     H_    0.703672 0.663642 0.452124 0.153719
H21   H     H_    0.037224 0.199259 0.753926 0.142803
H22   H     H_    0.045171 0.394570 0.763440 0.181458
H23   H     H_    0.957590 0.246815 0.794640 0.163299
H24   H     H_    0.121767 0.790482 0.224160 0.179640
N1    N     N_3   0.632500 0.787409 0.547113 -0.392306
N2    N     N_3   0.746454 0.674574 0.692737 -0.433801
N3    N     N_3   0.994853 0.262151 0.601007 -0.382527
N4    N     N_3   0.160244 0.884403 0.406058 -0.431427
N5    N     N_3   0.875334 0.828606 0.856121 -0.452812
N6    N     N_3   0.505232 0.344298 0.617377 -0.441990
O1    O     O_R   0.409870 0.358470 0.449260 -0.587263
O2    O     O_R   0.948030 0.090450 0.538510 -0.571030
O3    O     O_R   0.141850 0.090470 0.551380 -0.620226
O4    O     O_R   0.409230 0.460600 0.550770 -0.586822
O5    O     O_R   0.039050 0.090460 0.448590 -0.614115
O6    O     O_R   0.051970 0.909550 0.461490 -0.607306
O7    O     O_R   0.949170 0.909540 0.358700 -0.574128
O8    O     O_R   0.960950 0.909540 0.551410 -0.625694
O9    O     O_R   0.858150 0.909530 0.448620 -0.549030
O10   O     O_R   0.591360 0.448940 0.540280 -0.612456
O11   O     O_R   0.590720 0.551070 0.641790 -0.619399
O12   O     O_R   0.048480 0.460610 0.906920 -0.614131
O13   O     O_R   0.590770 0.539400 0.449230 -0.612714
O14   O     O_R   0.590130 0.641530 0.550740 -0.601912
O15   O     O_R   0.409280 0.448930 0.358210 -0.567425
O16   O     O_R   0.408640 0.551060 0.459720 -0.628270
O17   O     O_R   0.946350 0.358500 0.906960 -0.594153
O18   O     O_R   0.854760 0.448970 0.905840 -0.601296
O19   O     O_R   0.956890 0.551080 0.905790 -0.615085
O20   O     O_R   0.945260 0.539450 0.086770 -0.557398
O21   O     O_R   0.047380 0.641560 0.086730 -0.650981
O22   O     O_R   0.036850 0.448980 0.087900 -0.583725
O23   O     O_R   0.138970 0.551100 0.087860 -0.580770
O24   O     O_R   0.050830 0.090460 0.641300 -0.634176
Zn1   Zn    Zn3+2 0.500430 0.431810 0.432220 1.081779
Zn2   Zn    Zn3+2 0.499570 0.568190 0.567780 1.041967
Zn3   Zn    Zn3+2 0.928680 0.431850 0.996880 1.112480
Zn4   Zn    Zn3+2 0.065060 0.568210 0.996820 1.056902
Zn5   Zn    Zn3+2 0.068640 0.000010 0.568630 1.023312
Zn6   Zn    Zn3+2 0.931360 0.999990 0.431370 1.114843

loop_
_geom_bond_atom_site_label_1
_geom_bond_atom_site_label_2
_ccdc_geom_bond_type
C26   O8    A    
O3    Zn5   S    
C1    O1    A    
C1    O4    A    
C22   C29   S    
C27   C29   D    
O16   Zn2   S    
C35   C36   D    
C9    Cl5   S    
O4    Zn2   S    
C3    C6    S    
C24   O3    A    
C15   N1    S    
C45   C46   A    
C2    C46   A    
C25   O7    A    
C12   C41   A    
O17   Zn3   S    
C12   C43   A    
C30   C31   D    
O12   Zn4   S    
O1    Zn1   S    
C35   H24   S    
C26   O9    A    
O5    Zn6   S    
C12   C37   A    
C11   Cl6   S    
H10   N3    S    
H15   N5    S    
C28   O15   A    
C8    C9    D    
C22   O24   A    
C34   C42   A    
C17   H20   S    
C22   O2    A    
C20   O20   A    
C20   O21   A    
C3    H4    S    
H11   N4    S    
C4    O10   A    
C13   C14   D    
C27   C30   S    
C5    H12   S    
C13   Cl7   S    
C38   C39   A    
C32   N4    S    
O10   Zn1   S    
C40   H2    S    
C6    Cl1   S    
O20   Zn3   S    
C32   C35   S    
O19   Zn4   S    
C34   C44   A    
C7    Cl3   S    
C39   C40   A    
O11   Zn2   S    
C16   O14   A    
C38   N5    S    
O7    Zn6   S    
C30   H22   S    
O22   Zn3   S    
O2    Zn6   S    
C19   C23   S    
O21   Zn4   S    
C37   C38   A    
C19   O18   A    
C21   O23   A    
C39   Cl10  S    
O9    Zn6   S    
C23   C34   A    
O13   Zn1   S    
C14   C26   S    
H8    N2    S    
O23   Zn4   S    
C19   O19   A    
C40   C41   A    
H6    N1    S    
O14   Zn2   S    
C13   C15   S    
C46   H1    S    
C37   N2    S    
C42   C43   A    
C24   O5    A    
C8    Cl4   S    
C44   C45   A    
C33   Cl8   S    
C15   C17   D    
C45   H3    S    
C25   O6    A    
C1    C7    S    
C3    C5    D    
H16   N6    S    
O8    Zn5   S    
C16   O13   A    
C31   H23   S    
C6    C7    D    
C4    C43   S    
O15   Zn1   S    
C23   C41   A    
C32   C33   D    
C27   N3    S    
C36   Cl9   S    
H5    N1    S    
C14   H19   S    
C10   H18   S    
C9    C21   S    
C16   C17   S    
C5    C24   S    
C11   C28   S    
C2    C42   A    
C2    N6    S    
C18   O17   A    
O6    Zn5   S    
H17   N6    S    
C21   O22   A    
H9    N3    S    
C10   C11   D    
O18   Zn3   S    
C20   C36   S    
C28   O16   A    
C29   H21   S    
C8    C10   S    
H13   N4    S    
C18   C31   S    
C18   O12   A    
C4    O11   A    
H14   N5    S    
O24   Zn5   S    
H7    N2    S    
C44   Cl2   S    
C25   C33   S    
