data_mof_unit_9814.cif
_audit_creation_date              2012-12-10T17:52:22-0500
_audit_creation_method            fapswitch 2.2
_symmetry_space_group_name_H-M    P1
_symmetry_Int_Tables_number       1
_space_group_crystal_system       triclinic
_cell_length_a                    18.991189
_cell_length_b                    10.718141
_cell_length_c                    9.924806
_cell_angle_alpha                 88.023913
_cell_angle_beta                  90.858322
_cell_angle_gamma                 92.893309
_cell_volume                      2016.24416926

loop_
_atom_site_label
_atom_site_type_symbol
_atom_type_description
_atom_site_fract_x
_atom_site_fract_y
_atom_site_fract_z
_atom_type_partial_charge
C1    C     C_R   0.503278 0.259725 0.503591 0.873178
C2    C     C_R   0.291689 0.534556 0.496513 -0.038156
C3    C     C_R   0.933558 0.596922 0.505093 0.284643
C4    C     C_R   0.075832 0.614202 0.507364 0.353585
C5    C     C_R   0.820398 0.561259 0.626029 -0.152804
C6    C     C_R   0.748180 0.533902 0.625169 -0.190334
C7    C     C_R   0.711589 0.519324 0.502456 -0.039648
C8    C     C_R   0.748237 0.530973 0.380742 -0.188152
C9    C     C_R   0.820409 0.558320 0.381595 -0.153989
C10   C     C_R   0.857010 0.574053 0.504208 0.086188
C11   C     C_R   0.485521 0.095226 0.762076 -0.247594
C12   C     C_R   0.365639 0.505019 0.498892 0.863095
C13   C     C_R   0.453779 0.021985 0.867233 0.015030
C14   C     C_R   0.417318 0.909917 0.836801 -0.196495
C15   C     C_R   0.421706 0.863145 0.708672 -0.180339
C16   C     C_R   0.462622 0.928449 0.608859 0.097417
C17   C     C_R   0.484551 0.052853 0.628050 0.083420
C18   C     C_R   0.506911 0.125587 0.512141 -0.119962
C19   C     C_R   0.523846 0.067885 0.393569 -0.223980
C20   C     C_R   0.516128 0.940554 0.386265 -0.200264
C21   C     C_R   0.486390 0.870756 0.493878 -0.114678
C22   C     C_R   0.400230 0.346807 0.142167 -0.111622
C23   C     C_R   0.494389 0.738778 0.497662 0.880868
C24   C     C_R   0.348726 0.276713 0.072764 -0.160899
C25   C     C_R   0.349631 0.275165 0.933262 -0.187865
C26   C     C_R   0.401777 0.344362 0.862498 -0.166344
C27   C     C_R   0.451474 0.423450 0.928891 0.151554
C28   C     C_R   0.451057 0.424249 0.073362 0.193791
C29   C     C_R   0.545656 0.574231 0.071721 -0.105717
C30   C     C_R   0.545598 0.576413 0.929278 0.144067
C31   C     C_R   0.634887 0.502451 0.500817 0.862917
C32   C     C_R   0.248794 0.486712 0.600814 -0.233622
C33   C     C_R   0.179587 0.519740 0.606892 -0.154542
C34   C     C_R   0.151982 0.601568 0.508979 -0.008481
C35   C     C_R   0.195334 0.655740 0.405645 -0.046726
C36   C     C_R   0.265993 0.621154 0.399531 0.011501
H1    H     H_    0.268753 0.422306 0.677077 0.157167
H2    H     H_    0.514443 0.180013 0.788979 0.207965
H3    H     H_    0.389249 0.854311 0.913867 0.191974
H4    H     H_    0.395268 0.773446 0.689695 0.172017
H5    H     H_    0.534435 0.896803 0.297279 0.184621
H6    H     H_    0.582719 0.634856 0.125788 0.150491
H7    H     H_    0.399379 0.336086 0.249211 0.192128
H8    H     H_    0.309640 0.219251 0.127866 0.164281
H9    H     H_    0.311392 0.216296 0.879818 0.158839
H10   H     H_    0.402767 0.331257 0.756561 0.201424
H11   H     H_    0.146660 0.477057 0.685780 0.165640
H12   H     H_    0.847400 0.572079 0.722114 0.155767
H13   H     H_    0.720986 0.526091 0.720486 0.168585
H14   H     H_    0.721117 0.520826 0.284640 0.161601
H15   H     H_    0.847383 0.566852 0.286106 0.155608
H16   H     H_    0.544099 0.121254 0.306619 0.215331
N1    N     N_R   0.039447 0.608513 0.389123 -0.145375
N2    N     N_R   0.969524 0.600580 0.387977 -0.168320
N3    N     N_R   0.970006 0.604973 0.623314 -0.172015
N4    N     N_R   0.039997 0.613005 0.624506 -0.159055
N5    N     N_R   0.499340 0.498800 0.142780 -0.137803
N6    N     N_R   0.499320 0.498720 0.857170 -0.141357
O1    O     O_R   0.500000 0.316780 0.614690 -0.646977
O2    O     O_R   0.499990 0.316750 0.385360 -0.622086
O3    O     O_R   0.398140 0.500000 0.614700 -0.645340
O4    O     O_R   0.398130 0.499970 0.385370 -0.614545
O5    O     O_R   0.500010 0.683250 0.614640 -0.642789
O6    O     O_R   0.500000 0.683220 0.385310 -0.608590
O7    O     O_R   0.601870 0.500030 0.614630 -0.631111
O8    O     O_R   0.601860 0.500000 0.385300 -0.613773
Zn1   Zn    Zn3+2 0.500000 0.500020 0.653130 0.921464
Zn2   Zn    Zn3+2 0.500000 0.499980 0.346870 0.954075
C37   C     C_2   0.458855 0.060808 0.008790 0.897113
O9    O     O_2   0.502637 0.141980 0.041968 -0.658565
O10   O     O_R   0.413197 0.004510 0.104832 -0.820873
H17   H     H_    0.418399 0.044018 0.195879 0.345163
N7    N     N_3   0.595050 0.663660 0.864976 -0.466469
H18   H     H_    0.593859 0.656576 0.761700 0.259243
H19   H     H_    0.579560 0.753522 0.884256 0.178119
C38   C     C_2   0.168127 0.752930 0.310456 0.901514
O11   O     O_2   0.181230 0.751793 0.190287 -0.628365
O12   O     O_R   0.126860 0.845635 0.358928 -0.789912
H20   H     H_    0.111104 0.906020 0.284938 0.352569
N8    N     N_3   0.313503 0.679268 0.302053 -0.420577
H21   H     H_    0.296732 0.654082 0.205566 0.237223
H22   H     H_    0.313370 0.776353 0.309285 0.204933

loop_
_geom_bond_atom_site_label_1
_geom_bond_atom_site_label_2
_ccdc_geom_bond_type
C31   O8    A    
O8    Zn2   S    
N3    N4    A    
C16   C21   A    
C25   H9    S    
C4    N1    A    
N7    H18   S    
C35   C36   A    
C9    H15   S    
C2    C12   S    
C20   H5    S    
C7    C8    A    
N1    N2    A    
C26   C27   A    
O6    Zn2   S    
C38   O12   S    
C34   C35   A    
C1    O1    A    
C5    C6    A    
C29   H6    S    
C3    N2    A    
C15   C16   A    
C2    C32   A    
C18   C19   A    
C37   O10   S    
O1    Zn1   S    
C14   H3    S    
C3    N3    A    
C19   H16   S    
C19   C20   A    
C16   C17   A    
O7    Zn1   S    
C9    C10   A    
C23   O5    A    
C22   C28   A    
C13   C14   A    
C4    N4    A    
N7    H19   S    
C33   C34   A    
O5    Zn1   S    
C5    H12   S    
C4    C34   S    
C35   C38   S    
C7    C31   S    
C38   O11   D    
N8    H22   S    
C36   N8    S    
C1    O2    A    
C30   N7    S    
O12   H20   S    
C8    C9    A    
C25   C26   A    
C28   N5    A    
C11   H2    S    
C29   C30   A    
C12   O4    A    
O3    Zn1   S    
C22   H7    S    
C17   C18   A    
C1    C18   S    
C32   H1    S    
C24   C25   A    
C23   O6    A    
C29   N5    A    
C21   C23   S    
C33   H11   S    
C22   C24   A    
N5    Zn2   S    
C8    H14   S    
C2    C36   A    
C31   O7    A    
C11   C17   A    
N8    H21   S    
C27   N6    A    
C6    C7    A    
O4    Zn2   S    
C32   C33   A    
C5    C10   A    
C3    C10   S    
C12   O3    A    
C11   C13   A    
C13   C37   S    
C24   H8    S    
C30   N6    A    
C6    H13   S    
C37   O9    D    
C15   H4    S    
C26   H10   S    
N6    Zn1   S    
O10   H17   S    
C20   C21   A    
O2    Zn2   S    
C27   C28   A    
C14   C15   A    
