data_mof_unit_20589.cif
_audit_creation_date              2012-12-11T15:20:39-0500
_audit_creation_method            fapswitch 2.2
_symmetry_space_group_name_H-M    P1
_symmetry_Int_Tables_number       1
_space_group_crystal_system       triclinic
_cell_length_a                    13.00792
_cell_length_b                    13.019343
_cell_length_c                    15.315519
_cell_angle_alpha                 117.007668
_cell_angle_beta                  63.307133
_cell_angle_gamma                 97.410858
_cell_volume                      2055.42880974

loop_
_atom_site_label
_atom_site_type_symbol
_atom_type_description
_atom_site_fract_x
_atom_site_fract_y
_atom_site_fract_z
_atom_type_partial_charge
C1    C     C_R   0.013455 0.835381 0.039002 -0.120027
C2    C     C_R   0.320729 0.530046 0.778268 -0.125953
C3    C     C_R   0.258261 0.422972 0.055177 -0.156504
C4    C     C_R   0.699060 0.406713 0.210183 -0.121717
C5    C     C_R   0.985229 0.299516 0.696397 -0.116624
C6    C     C_R   0.361564 0.446069 0.988138 0.166104
C7    C     C_R   0.925126 0.204367 0.696943 0.046244
C8    C     C_R   0.330896 0.451958 0.675263 0.044284
C9    C     C_R   0.037895 0.142446 0.012063 0.045146
C10   C     C_R   0.927537 0.044634 0.425921 -0.185308
C11   C     C_R   0.918829 0.140097 0.520662 -0.170990
C12   C     C_R   0.705069 0.431038 0.305482 0.057169
C13   C     C_R   0.886609 0.126871 0.615306 0.139131
C14   C     C_R   0.837243 0.026779 0.621246 -0.172456
C15   C     C_R   0.845597 0.931689 0.526814 -0.170154
C16   C     C_R   0.756657 0.516519 0.891259 -0.144245
C17   C     C_R   0.903731 0.937047 0.426825 0.142953
C18   C     C_R   0.633902 0.449946 0.490245 -0.169255
C19   C     C_R   0.541381 0.452264 0.581986 -0.177631
C20   C     C_R   0.440718 0.403752 0.576013 0.068499
C21   C     C_R   0.445979 0.325896 0.472479 0.027291
C22   C     C_R   0.539047 0.327528 0.379712 -0.221702
C23   C     C_R   0.664539 0.454328 0.923654 0.105471
C24   C     C_R   0.627429 0.398601 0.390926 0.134318
C25   C     C_2   0.472644 0.405494 0.963821 -0.247382
C26   C     C_2   0.571114 0.424595 0.892457 0.283998
C27   C     C_2   0.856152 0.963990 0.066534 -0.219129
C28   C     C_R   0.941614 0.719845 0.316059 -0.127542
C29   C     C_2   0.843151 0.051304 0.162346 -0.126694
C30   C     C_R   0.678168 0.419350 0.989862 -0.164813
C31   C     C_R   0.031597 0.821612 0.223225 -0.133393
C32   C     C_R   0.802352 0.488608 0.303690 -0.144150
C33   C     C_R   0.907790 0.748127 0.948673 -0.147825
C34   C     C_R   0.954220 0.830788 0.325685 0.038438
C35   C     C_R   0.927256 0.854894 0.016446 0.141708
C36   C     C_R   0.360898 0.239338 0.459089 0.111287
C37   C     C_R   0.327447 0.174191 0.518349 -0.135571
C38   C     C_R   0.249878 0.090356 0.504371 -0.102141
C39   C     C_R   0.205680 0.069986 0.430628 -0.080897
C40   C     C_R   0.237607 0.134564 0.371821 -0.121452
C41   C     C_R   0.315036 0.218791 0.385654 -0.177394
C42   C     C_3   0.584832 0.427681 0.790526 -1.032279
C43   C     C_R   0.339208 0.530424 0.966903 -0.129441
C44   C     C_R   0.904219 0.199691 0.791849 -0.139895
C45   C     C_R   0.219410 0.440068 0.683592 -0.131030
C46   C     C_R   0.066740 0.249549 0.071919 -0.123476
C47   C     C_R   0.971741 0.165758 0.971531 -0.102189
H1    H     H_    0.055646 0.901894 0.080991 0.083834
H2    H     H_    0.949855 0.219108 0.515342 0.109860
H3    H     H_    0.804159 0.016253 0.694957 0.105656
H4    H     H_    0.642028 0.351306 0.178883 0.083717
H5    H     H_    0.817600 0.851946 0.531841 0.106826
H6    H     H_    0.703989 0.499738 0.501280 0.106045
H7    H     H_    0.546479 0.503567 0.657959 0.123734
H8    H     H_    0.541332 0.275669 0.300027 0.114102
H9    H     H_    0.470076 0.386840 0.026852 0.099268
H10   H     H_    0.806220 0.970989 0.028342 0.131207
H11   H     H_    0.887200 0.048067 0.206855 0.122911
H12   H     H_    0.846855 0.146125 0.826193 0.083285
H13   H     H_    0.780153 0.543580 0.828089 0.100828
H14   H     H_    0.891369 0.692878 0.378937 0.091713
H15   H     H_    0.634883 0.353993 0.014996 0.087963
H16   H     H_    0.072532 0.891155 0.204969 0.081082
H17   H     H_    0.843290 0.504786 0.355833 0.084247
H18   H     H_    0.845700 0.730975 0.916011 0.098598
H19   H     H_    0.399543 0.584569 0.936431 0.109254
H20   H     H_    0.362058 0.187794 0.574851 0.117264
H21   H     H_    0.224572 0.040640 0.550252 0.113415
H22   H     H_    0.146725 0.004064 0.419100 0.119294
H23   H     H_    0.193245 0.392052 0.619426 0.116158
H24   H     H_    0.202510 0.119134 0.315295 0.102480
H25   H     H_    0.338379 0.268374 0.339777 0.106135
H26   H     H_    0.664039 0.372202 0.720036 0.255531
H27   H     H_    0.511012 0.393231 0.771325 0.264061
H28   H     H_    0.594011 0.517598 0.799949 0.228929
H29   H     H_    0.107373 0.264072 0.123800 0.085172
H30   H     H_    0.929201 0.103578 0.925921 0.090012
H31   H     H_    0.388572 0.570044 0.799576 0.088930
H32   H     H_    0.246967 0.371807 0.097193 0.092788
H33   H     H_    0.002890 0.338466 0.642677 0.084024
H34   H     H_    0.964097 0.053220 0.350940 0.102690
N1    N     N_R   0.037310 0.720000 0.995790 -0.043506
N2    N     N_R   0.824890 0.517960 0.936420 -0.038982
N3    N     N_R   0.003210 0.648190 0.211380 -0.039604
N4    N     N_R   0.774330 0.457010 0.995840 -0.034721
N5    N     N_R   0.053760 0.709140 0.151960 -0.037590
N6    N     N_R   0.853860 0.498840 0.211410 -0.037608
N7    N     N_R   0.974240 0.667310 0.936390 -0.042883
N8    N     N_R   0.225670 0.542990 0.004160 -0.046578
N9    N     N_R   0.946240 0.290860 0.848040 -0.037910
N10   N     N_R   0.146140 0.501160 0.788590 -0.042952
N11   N     N_R   0.025760 0.332690 0.063610 -0.038426
N12   N     N_R   0.962690 0.280000 0.004210 -0.042846
N13   N     N_R   0.209210 0.553840 0.847990 -0.040108
N14   N     N_R   0.175110 0.482040 0.063580 -0.041714
N15   N     N_R   0.996790 0.351810 0.788620 -0.039128
N16   N     N_R   0.790790 0.446160 0.152010 -0.037646
Ni1   Ni    Ni4+2 0.130310 0.630310 0.999970 0.211163
Ni2   Ni    Ni4+2 0.869690 0.369690 0.000030 0.208611
Ni3   Ni    Ni4+2 0.985640 0.509470 0.863740 0.207836
Ni4   Ni    Ni4+2 0.014360 0.490530 0.136260 0.210799

loop_
_geom_bond_atom_site_label_1
_geom_bond_atom_site_label_2
_ccdc_geom_bond_type
C40   H24   S    
C28   N3    A    
C19   C20   A    
C25   H9    S    
C3    C6    A    
C3    H32   S    
C46   H29   S    
C33   H18   S    
C21   C36   S    
C1    C35   A    
C42   H28   S    
C43   N8    A    
N4    Ni2   S    
C36   C37   A    
C33   N7    A    
N3    N5    A    
C38   C39   A    
C6    C25   S    
C46   N11   A    
N13   Ni1   S    
C10   C17   A    
N15   Ni3   S    
C27   C29   D    
C18   C19   A    
C16   H13   S    
C23   C26   S    
C8    C45   A    
C18   H6    S    
N6    Ni4   S    
N10   Ni3   S    
C4    C12   A    
N12   Ni2   S    
C28   H14   S    
C28   C34   A    
C9    C46   A    
C31   N5    A    
C13   C14   A    
C12   C32   A    
N3    Ni4   S    
N1    Ni1   S    
C36   C41   A    
N5    Ni1   S    
N16   Ni2   S    
C47   N12   A    
C42   H27   S    
C4    H4    S    
C23   C30   A    
C31   H16   S    
C2    N13   A    
C11   H2    S    
C32   H17   S    
C27   H10   S    
C39   C40   A    
C5    C7    A    
C27   C35   S    
C1    N1    A    
C15   H5    S    
C32   N6    A    
C16   N2    A    
C30   N4    A    
N8    N14   A    
C37   C38   A    
C2    H31   S    
C4    N16   A    
C39   H22   S    
C31   C34   A    
C8    C20   S    
C7    C44   A    
C20   C21   A    
C5    H33   S    
N7    Ni3   S    
N11   Ni4   S    
C41   H25   S    
C19   H7    S    
C40   C41   A    
N2    N4    A    
C38   H21   S    
C9    C47   A    
C16   C23   A    
C6    C43   A    
C30   H15   S    
C18   C24   A    
C17   C34   S    
C47   H30   S    
N9    Ni2   S    
C5    N15   A    
C44   N9    A    
C26   C42   S    
C15   C17   A    
C42   H26   S    
C45   H23   S    
C2    C8    A    
C1    H1    S    
N9    N15   A    
C22   H8    S    
C12   C24   S    
C10   H34   S    
N8    Ni1   S    
N2    Ni3   S    
C25   C26   D    
N10   N13   A    
C11   C13   A    
C14   H3    S    
C43   H19   S    
N1    N7    A    
C37   H20   S    
N11   N12   A    
C33   C35   A    
C22   C24   A    
C45   N10   A    
C10   C11   A    
C7    C13   S    
C29   H11   S    
C14   C15   A    
C3    N14   A    
C44   H12   S    
C21   C22   A    
N14   Ni4   S    
N6    N16   A    
