data_mof_unit_34524.cif
_audit_creation_date              2012-12-10T16:34:45-0500
_audit_creation_method            fapswitch 2.2
_symmetry_space_group_name_H-M    P1
_symmetry_Int_Tables_number       1
_space_group_crystal_system       triclinic
_cell_length_a                    28.193638
_cell_length_b                    18.418971
_cell_length_c                    17.088069
_cell_angle_alpha                 90.296122
_cell_angle_beta                  60.829092
_cell_angle_gamma                 90.538032
_cell_volume                      7747.98674754

loop_
_atom_site_label
_atom_site_type_symbol
_atom_type_description
_atom_site_fract_x
_atom_site_fract_y
_atom_site_fract_z
_atom_type_partial_charge
C1    C     C_R   0.700762 0.265795 0.676488 0.877378
C2    C     C_R   0.299046 0.733798 0.323541 0.879371
C3    C     C_R   0.294861 0.275983 0.326171 0.895230
C4    C     C_R   0.700708 0.734428 0.676641 0.863591
C5    C     C_R   0.200871 0.766000 0.676468 0.876036
C6    C     C_R   0.799119 0.233974 0.323512 0.875749
C7    C     C_R   0.799392 0.765354 0.323339 0.905598
C8    C     C_R   0.201492 0.232854 0.676492 0.883757
C9    C     C_R   0.903537 0.498912 0.487853 0.066514
C10   C     C_R   0.089914 0.500120 0.529014 0.067529
C11   C     C_R   0.401783 0.999405 0.498783 0.063952
C12   C     C_R   0.579448 0.998594 0.564245 0.067843
C13   C     C_R   0.109757 0.378833 0.465852 -0.235800
C14   C     C_R   0.879942 0.617971 0.557529 -0.249813
C15   C     C_R   0.925571 0.377410 0.424695 -0.246669
C16   C     C_R   0.070306 0.623448 0.586690 -0.250615
C17   C     C_R   0.577380 0.867130 0.562147 -0.249809
C18   C     C_R   0.381802 0.122946 0.555356 -0.250121
C19   C     C_R   0.420482 0.873269 0.452194 -0.245301
C20   C     C_R   0.569953 0.128446 0.591091 -0.252056
C21   C     C_R   0.720282 0.265697 0.955165 0.115141
C22   C     C_R   0.282143 0.736804 0.041919 0.096960
C23   C     C_R   0.278637 0.274603 0.045029 0.112227
C24   C     C_R   0.718536 0.738250 0.956685 0.097700
C25   C     C_R   0.220197 0.766022 0.955547 0.116259
C26   C     C_R   0.782158 0.237083 0.041925 0.095894
C27   C     C_R   0.779388 0.764383 0.045574 0.116043
C28   C     C_R   0.214574 0.242090 0.963694 0.105034
C29   C     C_R   0.707564 0.206023 0.013059 -0.193356
C30   C     C_R   0.294729 0.796897 0.984639 -0.198073
C31   C     C_R   0.272382 0.202599 0.024330 -0.189781
C32   C     C_R   0.705679 0.796750 0.016430 -0.198266
C33   C     C_R   0.207476 0.706159 0.013166 -0.194801
C34   C     C_R   0.794770 0.296956 0.984306 -0.197962
C35   C     C_R   0.792400 0.706117 0.985482 -0.195442
C36   C     C_R   0.218566 0.313724 0.988996 -0.201010
C37   C     C_R   0.738232 0.191854 0.055937 -0.173251
C38   C     C_R   0.263712 0.811729 0.942560 -0.201188
C39   C     C_R   0.241221 0.186567 0.982847 -0.187907
C40   C     C_R   0.736232 0.810121 0.059811 -0.201065
C41   C     C_R   0.238184 0.691685 0.055870 -0.175114
C42   C     C_R   0.763801 0.311480 0.942032 -0.200646
C43   C     C_R   0.762167 0.693138 0.941456 -0.177466
C44   C     C_R   0.252024 0.330152 0.026136 -0.179983
C45   C     C_R   0.647087 0.331071 0.942705 -0.236555
C46   C     C_R   0.354904 0.671759 0.055266 -0.234234
C47   C     C_R   0.360471 0.320399 0.049737 -0.244958
C48   C     C_R   0.645136 0.673307 0.944472 -0.235430
C49   C     C_R   0.146871 0.830927 0.943049 -0.236631
C50   C     C_R   0.854935 0.171993 0.055272 -0.232103
C51   C     C_R   0.853212 0.829329 0.057101 -0.239936
C52   C     C_R   0.142322 0.176881 0.947984 -0.241799
C53   C     C_R   0.619088 0.349942 0.896182 -0.066880
C54   C     C_R   0.381777 0.651332 0.102999 -0.073992
C55   C     C_R   0.386714 0.342021 0.098222 -0.076086
C56   C     C_R   0.617983 0.652348 0.897229 -0.072795
C57   C     C_R   0.118979 0.849793 0.896359 -0.070126
C58   C     C_R   0.881839 0.151527 0.102954 -0.070496
C59   C     C_R   0.881294 0.848817 0.103390 -0.070287
C60   C     C_R   0.116796 0.154210 0.898801 -0.070310
C61   C     C_R   0.634587 0.322424 0.812558 -0.291322
C62   C     C_R   0.365470 0.677785 0.187334 -0.297086
C63   C     C_R   0.367276 0.319914 0.185283 -0.287396
C64   C     C_R   0.633989 0.678764 0.813082 -0.296705
C65   C     C_R   0.134615 0.822349 0.812657 -0.291986
C66   C     C_R   0.865600 0.178076 0.187237 -0.296435
C67   C     C_R   0.865905 0.821514 0.186948 -0.288089
C68   C     C_R   0.134064 0.179449 0.813826 -0.294893
C69   C     C_R   0.677729 0.275689 0.773112 -0.095829
C70   C     C_R   0.322260 0.724479 0.226729 -0.086620
C71   C     C_R   0.315078 0.293007 0.232212 -0.087794
C72   C     C_R   0.677465 0.725755 0.773364 -0.080926
C73   C     C_R   0.178017 0.776028 0.773034 -0.094784
C74   C     C_R   0.822438 0.224873 0.226626 -0.085846
C75   C     C_R   0.822310 0.774801 0.226819 -0.102214
C76   C     C_R   0.179248 0.223561 0.772992 -0.087710
C77   C     C_R   0.702657 0.248207 0.823209 0.086598
C78   C     C_R   0.298182 0.753440 0.175774 0.096340
C79   C     C_R   0.282365 0.286387 0.189283 0.104709
C80   C     C_R   0.701987 0.755282 0.823870 0.092046
C81   C     C_R   0.203220 0.748975 0.822962 0.085686
C82   C     C_R   0.798437 0.253999 0.175617 0.096018
C83   C     C_R   0.796787 0.747075 0.177227 0.084348
C84   C     C_R   0.205541 0.250488 0.822344 0.088821
C85   C     C_R   0.690781 0.129650 0.536844 0.892958
C86   C     C_R   0.308572 0.870857 0.466673 0.890085
C87   C     C_R   0.303490 0.127928 0.482438 0.922557
C88   C     C_R   0.691452 0.870664 0.534714 0.900261
C89   C     C_R   0.190847 0.629753 0.536482 0.891594
C90   C     C_R   0.808750 0.370510 0.464519 0.889519
C91   C     C_R   0.802891 0.627853 0.483492 0.912733
C92   C     C_R   0.195737 0.372225 0.520233 0.889734
C93   C     C_R   0.689029 0.280330 0.907024 0.037866
C94   C     C_R   0.312961 0.722446 0.090811 0.032731
C95   C     C_R   0.308372 0.290554 0.094828 0.046593
C96   C     C_R   0.687293 0.724290 0.908541 0.032457
C97   C     C_R   0.189105 0.780652 0.907175 0.037808
C98   C     C_R   0.813075 0.222843 0.090745 0.032248
C99   C     C_R   0.810840 0.778679 0.093279 0.040202
C100  C     C_R   0.186247 0.225255 0.911277 0.040653
C101  C     C_R   0.074578 0.099438 0.933614 0.916656
C102  C     C_R   0.924431 0.901996 0.067390 0.919405
C103  C     C_R   0.924553 0.098067 0.067437 0.913999
C104  C     C_R   0.075677 0.902300 0.932360 0.918260
C105  C     C_R   0.575350 0.598349 0.932807 0.918555
C106  C     C_R   0.428624 0.396999 0.063347 0.914482
C107  C     C_R   0.424539 0.598010 0.067449 0.923607
C108  C     C_R   0.575779 0.402437 0.932255 0.906910
C109  C     C_R   0.521296 0.127350 0.587005 0.111174
C110  C     C_R   0.459257 0.870655 0.480449 0.107940
C111  C     C_R   0.427446 0.124709 0.567444 0.105448
C112  C     C_R   0.537545 0.867369 0.536553 0.105875
C113  C     C_R   0.021575 0.621685 0.582918 0.112445
C114  C     C_R   0.970850 0.376707 0.437166 0.116400
C115  C     C_R   0.926073 0.618850 0.568314 0.108010
C116  C     C_R   0.062612 0.377002 0.459655 0.111483
C117  C     C_R   0.489248 0.189678 0.605394 -0.207985
C118  C     C_R   0.484035 0.804946 0.480452 -0.212180
C119  C     C_R   0.441996 0.187891 0.597614 -0.209589
C120  C     C_R   0.521366 0.802829 0.511898 -0.211639
C121  C     C_R   0.985647 0.680479 0.613601 -0.210123
C122  C     C_R   0.004486 0.315892 0.412031 -0.208842
C123  C     C_R   0.937962 0.678731 0.607281 -0.211134
C124  C     C_R   0.049840 0.315739 0.424035 -0.236653
C125  C     C_R   0.459125 0.062329 0.549157 0.031425
C126  C     C_R   0.514394 0.933398 0.533704 0.029581
C127  C     C_R   0.504612 0.062852 0.562813 0.029544
C128  C     C_R   0.472785 0.934359 0.510935 0.027098
C129  C     C_R   0.961355 0.559358 0.538497 0.030497
C130  C     C_R   0.028827 0.437668 0.486582 0.031428
C131  C     C_R   0.008535 0.560238 0.547351 0.027296
C132  C     C_R   0.982670 0.437475 0.475514 0.026366
C133  C     C_R   0.949143 0.498577 0.500766 -0.056334
C134  C     C_R   0.042397 0.499390 0.521092 -0.057415
C135  C     C_R   0.444865 0.998900 0.518762 -0.055323
C136  C     C_R   0.532487 0.998288 0.554558 -0.055900
C137  C     C_R   0.890113 0.436910 0.453514 0.060095
C138  C     C_R   0.106005 0.563682 0.556837 0.062894
C139  C     C_R   0.122554 0.437904 0.505910 0.045539
C140  C     C_R   0.870581 0.560692 0.510631 0.049706
C141  C     C_R   0.388103 0.935642 0.467480 0.061342
C142  C     C_R   0.601997 0.065100 0.572466 0.057930
C143  C     C_R   0.604628 0.932376 0.562484 0.054457
C144  C     C_R   0.371140 0.062858 0.513130 0.053169
C145  C     C_R   0.840609 0.436254 0.451094 -0.124286
C146  C     C_R   0.157682 0.564468 0.553158 -0.122282
C147  C     C_R   0.166824 0.437416 0.523933 -0.112042
C148  C     C_R   0.829710 0.562348 0.484559 -0.105138
C149  C     C_R   0.340814 0.935950 0.456909 -0.118767
C150  C     C_R   0.655580 0.064979 0.561649 -0.120514
C151  C     C_R   0.656637 0.934308 0.557760 -0.118159
C152  C     C_R   0.330977 0.063087 0.484776 -0.106943
C153  C     C_R   0.814916 0.500301 0.456344 -0.305987
C154  C     C_R   0.183594 0.500237 0.547166 -0.308994
C155  C     C_R   0.316918 0.000341 0.456850 -0.311556
C156  C     C_R   0.680013 0.999897 0.560446 -0.308399
H1    H     H_    0.075710 0.268388 0.403478 0.139249
H2    H     H_    0.911011 0.724939 0.630992 0.136452
H3    H     H_    0.995774 0.268586 0.383068 0.140488
H4    H     H_    0.994532 0.727939 0.642074 0.139477
H5    H     H_    0.539343 0.751391 0.513120 0.138184
H6    H     H_    0.417798 0.236576 0.612454 0.134442
H7    H     H_    0.473393 0.755016 0.458682 0.137973
H8    H     H_    0.500716 0.239720 0.625629 0.137651
H9    H     H_    0.780623 0.500715 0.444033 0.196066
H10   H     H_    0.219798 0.500094 0.554247 0.196345
H11   H     H_    0.284129 0.000634 0.440758 0.193887
H12   H     H_    0.720274 0.000360 0.553790 0.198485
H13   H     H_    0.137091 0.334832 0.433239 0.179988
H14   H     H_    0.851497 0.661854 0.587591 0.173664
H15   H     H_    0.919085 0.332025 0.390392 0.162431
H16   H     H_    0.079166 0.670578 0.615595 0.162504
H17   H     H_    0.585959 0.815124 0.580705 0.181137
H18   H     H_    0.354924 0.168691 0.581450 0.175206
H19   H     H_    0.416543 0.826080 0.417934 0.172500
H20   H     H_    0.581422 0.178415 0.611127 0.169110
H21   H     H_    0.774258 0.357920 0.897881 0.141215
H22   H     H_    0.227496 0.645397 0.100308 0.138538
H23   H     H_    0.256377 0.385977 0.041834 0.140830
H24   H     H_    0.772837 0.647948 0.895243 0.139076
H25   H     H_    0.274169 0.858287 0.898584 0.140818
H26   H     H_    0.727536 0.145701 0.100570 0.139419
H27   H     H_    0.725819 0.855633 0.105510 0.140994
H28   H     H_    0.238495 0.130935 0.964465 0.139166
H29   H     H_    0.674057 0.170261 0.024666 0.132692
H30   H     H_    0.328090 0.832759 0.973541 0.141192
H31   H     H_    0.291924 0.158936 0.039826 0.138852
H32   H     H_    0.672395 0.832336 0.028662 0.140736
H33   H     H_    0.173988 0.670431 0.024578 0.132369
H34   H     H_    0.828125 0.332881 0.973064 0.141329
H35   H     H_    0.825806 0.670673 0.972969 0.134025
H36   H     H_    0.197780 0.357253 0.976133 0.136267
H37   H     H_    0.636416 0.355852 0.006806 0.163744
H38   H     H_    0.366166 0.647770 0.990528 0.163748
H39   H     H_    0.378034 0.333044 0.979074 0.159717
H40   H     H_    0.634066 0.649296 0.008990 0.164275
H41   H     H_    0.135966 0.855471 0.007364 0.163324
H42   H     H_    0.866108 0.147897 0.990622 0.164150
H43   H     H_    0.863950 0.853861 0.992987 0.162898
H44   H     H_    0.128737 0.155819 0.014774 0.161147
H45   H     H_    0.614561 0.340749 0.775862 0.183384
H46   H     H_    0.384814 0.658404 0.224659 0.184608
H47   H     H_    0.390567 0.330998 0.219229 0.183302
H48   H     H_    0.614360 0.658964 0.775985 0.185092
H49   H     H_    0.114504 0.840486 0.776017 0.183402
H50   H     H_    0.884924 0.158639 0.224568 0.184330
H51   H     H_    0.886220 0.840187 0.223427 0.185188
H52   H     H_    0.114246 0.160250 0.776771 0.185632
O1    O     O_R   0.746490 0.236330 0.638080 -0.627608
O2    O     O_R   0.253510 0.763670 0.361920 -0.629873
O3    O     O_R   0.253510 0.236330 0.361920 -0.647994
O4    O     O_R   0.746490 0.763670 0.638080 -0.647410
O5    O     O_R   0.246490 0.736330 0.638080 -0.628318
O6    O     O_R   0.753510 0.263670 0.361920 -0.630422
O7    O     O_R   0.753510 0.736330 0.361920 -0.626948
O8    O     O_R   0.246490 0.263670 0.638080 -0.647349
O9    O     O_R   0.674170 0.186160 0.516270 -0.631341
O10   O     O_R   0.325830 0.813840 0.483730 -0.637792
O11   O     O_R   0.325830 0.186160 0.483730 -0.640438
O12   O     O_R   0.674170 0.813840 0.516270 -0.642853
O13   O     O_R   0.174170 0.686160 0.516270 -0.628999
O14   O     O_R   0.825830 0.313840 0.483730 -0.630194
O15   O     O_R   0.825830 0.686160 0.483730 -0.640202
O16   O     O_R   0.174170 0.313840 0.516270 -0.648766
O17   O     O_R   0.739960 0.127620 0.525000 -0.628369
O18   O     O_R   0.260040 0.872380 0.475000 -0.620589
O19   O     O_R   0.260040 0.127620 0.475000 -0.624922
O20   O     O_R   0.739960 0.872380 0.525000 -0.625583
O21   O     O_R   0.239960 0.627620 0.525000 -0.628002
O22   O     O_R   0.760040 0.372380 0.475000 -0.623016
O23   O     O_R   0.760040 0.627620 0.475000 -0.636970
O24   O     O_R   0.239960 0.372380 0.525000 -0.632836
O25   O     O_R   0.680700 0.294870 0.629350 -0.629086
O26   O     O_R   0.319300 0.705130 0.370650 -0.626907
O27   O     O_R   0.319300 0.294870 0.370650 -0.621949
O28   O     O_R   0.680700 0.705130 0.629350 -0.633425
O29   O     O_R   0.180700 0.794870 0.629350 -0.628402
O30   O     O_R   0.819300 0.205130 0.370650 -0.627710
O31   O     O_R   0.819300 0.794870 0.370650 -0.617314
O32   O     O_R   0.180700 0.205130 0.629350 -0.621975
O33   O     O_R   0.062020 0.072840 0.007170 -0.629354
O34   O     O_R   0.937980 0.927160 0.992830 -0.629088
O35   O     O_R   0.937980 0.072840 0.992830 -0.628497
O36   O     O_R   0.062020 0.927160 0.007170 -0.627605
O37   O     O_R   0.562020 0.572840 0.007170 -0.628540
O38   O     O_R   0.437980 0.427160 0.992830 -0.626181
O39   O     O_R   0.437980 0.572840 0.992830 -0.626269
O40   O     O_R   0.562020 0.427160 0.007170 -0.630281
O41   O     O_R   0.947860 0.073950 0.109290 -0.624409
O42   O     O_R   0.052140 0.926050 0.890710 -0.623259
O43   O     O_R   0.052140 0.073950 0.890710 -0.622193
O44   O     O_R   0.947860 0.926050 0.109290 -0.622668
O45   O     O_R   0.447860 0.573950 0.109290 -0.621075
O46   O     O_R   0.552140 0.426050 0.890710 -0.627859
O47   O     O_R   0.552140 0.573950 0.890710 -0.623938
O48   O     O_R   0.447860 0.426050 0.109290 -0.619712
Zn1   Zn    Zn3+2 0.792340 0.208750 0.507670 0.931508
Zn2   Zn    Zn3+2 0.207660 0.791250 0.492330 0.936126
Zn3   Zn    Zn3+2 0.207660 0.208750 0.492330 0.930398
Zn4   Zn    Zn3+2 0.792340 0.791250 0.507670 0.931024
Zn5   Zn    Zn3+2 0.292340 0.708750 0.507670 0.925814
Zn6   Zn    Zn3+2 0.707660 0.291250 0.492330 0.932965
Zn7   Zn    Zn3+2 0.707660 0.708750 0.492330 0.920939
Zn8   Zn    Zn3+2 0.292340 0.291250 0.507670 0.925022
Zn9   Zn    Zn3+2 0.505960 0.500000 0.080520 0.933862
Zn10  Zn    Zn3+2 0.494040 0.500000 0.919480 0.928879
Zn11  Zn    Zn3+2 0.005960 1.000000 0.080520 0.932645
Zn12  Zn    Zn3+2 0.994040 0.000000 0.919480 0.933596
C157  C     C_3   0.739496 0.182065 0.792583 -0.397073
C158  C     C_3   0.800127 0.202581 0.747983 -0.283885
C159  C     C_3   0.835706 0.138363 0.696667 -0.888842
H53   H     H_    0.827818 0.091857 0.742664 0.257916
H54   H     H_    0.827342 0.121407 0.642046 0.262789
H55   H     H_    0.879182 0.154264 0.666531 0.244036
H56   H     H_    0.809566 0.248830 0.701101 0.243152
H57   H     H_    0.810937 0.219428 0.799709 0.220002
H58   H     H_    0.729342 0.146084 0.850687 0.182740
H59   H     H_    0.730706 0.147669 0.747544 0.208848
C160  C     C_3   0.258822 0.817388 0.208716 -0.401173
C161  C     C_3   0.285999 0.886097 0.220797 -0.326904
C162  C     C_3   0.245793 0.948489 0.259390 -0.874822
H60   H     H_    0.229259 0.961869 0.214064 0.254184
H61   H     H_    0.211833 0.933565 0.326450 0.260764
H62   H     H_    0.266713 0.997327 0.266708 0.249834
H63   H     H_    0.302933 0.875825 0.266244 0.223028
H64   H     H_    0.320146 0.902801 0.154647 0.211112
H65   H     H_    0.244575 0.831621 0.160805 0.200902
H66   H     H_    0.220773 0.803262 0.270509 0.226905
C163  C     C_3   0.221689 0.302177 0.239405 -0.433928
C164  C     C_3   0.213242 0.385276 0.248671 -0.340501
C165  C     C_3   0.163284 0.409079 0.242739 -0.861943
H67   H     H_    0.172873 0.412835 0.171809 0.250292
H68   H     H_    0.129506 0.369838 0.276506 0.274225
H69   H     H_    0.149943 0.463316 0.274245 0.253894
H70   H     H_    0.209719 0.403175 0.313404 0.210128
H71   H     H_    0.248907 0.414833 0.195420 0.226250
H72   H     H_    0.201358 0.278110 0.203675 0.217359
H73   H     H_    0.199945 0.276477 0.305884 0.200927
C166  C     C_3   0.741674 0.819714 0.790903 -0.405685
C167  C     C_3   0.714881 0.887922 0.778737 -0.316661
C168  C     C_3   0.754890 0.951570 0.743123 -0.891181
H74   H     H_    0.769997 0.965258 0.790543 0.255185
H75   H     H_    0.789828 0.937860 0.676710 0.262288
H76   H     H_    0.734291 0.999890 0.735328 0.245952
H77   H     H_    0.699180 0.877504 0.731442 0.225831
H78   H     H_    0.679929 0.903418 0.844433 0.209863
H79   H     H_    0.755846 0.834373 0.839068 0.201173
H80   H     H_    0.779638 0.805913 0.729027 0.219162
C169  C     C_3   0.241462 0.684223 0.791312 -0.397045
C170  C     C_3   0.301673 0.707233 0.745688 -0.279621
C171  C     C_3   0.338536 0.644750 0.691998 -0.894028
H81   H     H_    0.332141 0.597606 0.736469 0.257623
H82   H     H_    0.329973 0.627975 0.637539 0.261448
H83   H     H_    0.381672 0.662466 0.661401 0.243446
H84   H     H_    0.309585 0.754110 0.700206 0.243068
H85   H     H_    0.312776 0.724184 0.797038 0.218864
H86   H     H_    0.232631 0.648388 0.848966 0.181274
H87   H     H_    0.232863 0.648802 0.746855 0.209571
C172  C     C_3   0.759350 0.318290 0.208346 -0.400472
C173  C     C_3   0.786763 0.386836 0.220289 -0.325342
C174  C     C_3   0.747258 0.450232 0.256121 -0.886796
H88   H     H_    0.732065 0.463581 0.208956 0.255605
H89   H     H_    0.712332 0.436445 0.322670 0.262666
H90   H     H_    0.768310 0.498803 0.263719 0.244758
H91   H     H_    0.802550 0.376772 0.267360 0.222302
H92   H     H_    0.821737 0.402410 0.154476 0.210827
H93   H     H_    0.745239 0.332567 0.160269 0.201684
H94   H     H_    0.721236 0.304527 0.270205 0.226828
C175  C     C_3   0.758503 0.681624 0.208743 -0.394986
C176  C     C_3   0.698315 0.703377 0.254136 -0.283831
C177  C     C_3   0.661440 0.640613 0.308578 -0.893015
H95   H     H_    0.667907 0.592777 0.264717 0.258583
H96   H     H_    0.669943 0.625320 0.363319 0.262956
H97   H     H_    0.618303 0.657308 0.338848 0.239344
H98   H     H_    0.690452 0.750822 0.299093 0.241830
H99   H     H_    0.687213 0.718936 0.202591 0.218841
H100  H     H_    0.767455 0.645570 0.150931 0.182165
H101  H     H_    0.766950 0.647015 0.253490 0.211893
C178  C     C_3   0.254103 0.303428 0.781673 -0.393924
C179  C     C_3   0.236751 0.379474 0.768965 -0.306781
C180  C     C_3   0.285595 0.430386 0.721434 -0.892932
H102  H     H_    0.307143 0.436089 0.760952 0.253462
H103  H     H_    0.314100 0.409085 0.653693 0.260411
H104  H     H_    0.271653 0.484846 0.714044 0.246251
H105  H     H_    0.215054 0.376887 0.729528 0.236242
H106  H     H_    0.208285 0.402834 0.835504 0.199162
H107  H     H_    0.274283 0.309706 0.822695 0.196224
H108  H     H_    0.288241 0.281563 0.719384 0.214857

loop_
_geom_bond_atom_site_label_1
_geom_bond_atom_site_label_2
_ccdc_geom_bond_type
O3    Zn3   S    
O27   Zn8   S    
C4    O28   A    
C165  H67   S    
C34   C42   A    
C14   H14   S    
C16   C113  A    
C110  C118  A    
C50   H42   S    
C170  H85   S    
C168  H74   S    
C162  H62   S    
C178  H108  S    
C6    O30   A    
C27   C99   S    
C38   H25   S    
C54   C107  S    
C13   C139  A    
C47   H39   S    
C117  C119  A    
C92   O24   A    
C159  H53   S    
C30   C38   A    
C33   H33   S    
C161  H63   S    
C3    O27   A    
O39   Zn10  S    
C109  C127  A    
O26   Zn5   S    
C1    O25   A    
C111  C125  A    
C173  H92   S    
C125  C135  A    
C8    O32   A    
C64   H48   S    
C126  C136  A    
C19   C141  A    
C92   C147  S    
C82   C98   A    
O18   Zn2   S    
C130  C134  A    
C44   H23   S    
C73   C81   A    
C17   H17   S    
C16   C138  A    
C43   H24   S    
C115  C123  A    
C176  C177  S    
C84   C100  A    
C92   O16   A    
C127  C136  A    
C128  C135  A    
C112  C120  A    
C27   C35   A    
C21   C29   A    
C23   C31   A    
C24   C32   A    
C158  H57   S    
O44   Zn11  S    
O1    Zn1   S    
C146  C154  A    
C5    O5    A    
C129  C133  A    
C63   C71   A    
C36   C44   A    
C148  C153  A    
C105  O47   A    
C167  C168  S    
C168  H76   S    
C57   C104  S    
O46   Zn10  S    
C48   C96   A    
C59   C102  S    
O37   Zn9   S    
O11   Zn8   S    
C8    O8    A    
O47   Zn10  S    
C108  O40   A    
C83   C175  S    
C60   C68   A    
C163  H72   S    
C24   C96   S    
C149  C155  A    
C104  O36   A    
C53   C108  S    
C166  H79   S    
C21   C93   S    
C78   C94   A    
C23   C95   S    
O32   Zn3   S    
C118  C120  A    
C121  C123  A    
C49   C97   A    
C21   C42   A    
C116  C130  A    
O28   Zn7   S    
C174  H88   S    
C31   H31   S    
O29   Zn2   S    
C125  C127  A    
C24   C43   A    
C10   C138  A    
C110  C128  A    
C15   C137  A    
C9    C133  A    
C167  H77   S    
C69   C77   A    
C179  C180  S    
C45   C93   A    
C71   C79   A    
C49   H41   S    
C62   C70   A    
C63   H47   S    
C164  H71   S    
C165  H68   S    
C89   O13   A    
C9    C140  A    
C65   H49   S    
C156  H12   S    
C66   C74   A    
C8    C76   S    
C49   C57   A    
C111  C119  A    
C86   O10   A    
C52   C60   A    
C59   C67   A    
C53   C61   A    
C55   C63   A    
C56   C64   A    
C52   H44   S    
O34   Zn12  S    
C35   C43   A    
C39   H28   S    
C40   H27   S    
C13   H13   S    
C45   C53   A    
C22   C94   S    
C175  H100  S    
C46   H38   S    
C180  H103  S    
C3    O3    A    
C50   C98   A    
C1    O1    A    
C103  O41   A    
C106  O48   A    
C34   H34   S    
C161  C162  S    
C155  H11   S    
O40   Zn9   S    
C52   C100  A    
C91   O23   A    
C160  H65   S    
C25   C38   A    
C169  H87   S    
C46   C94   A    
C27   C40   A    
C160  C161  S    
C174  H90   S    
C163  C164  S    
C157  H58   S    
C11   C141  A    
C105  O37   A    
O16   Zn3   S    
C18   H18   S    
C25   C97   S    
C172  H93   S    
C87   C152  S    
C171  H82   S    
C88   C151  S    
C77   C157  S    
O12   Zn7   S    
C85   O17   A    
C179  H105  S    
C122  C124  A    
O13   Zn2   S    
O23   Zn7   S    
C126  C128  A    
O24   Zn8   S    
C153  H9    S    
C36   H36   S    
C158  H56   S    
C14   C140  A    
O20   Zn4   S    
O21   Zn5   S    
C162  H61   S    
C178  H107  S    
C12   C143  A    
C176  H98   S    
O36   Zn11  S    
O41   Zn11  S    
O42   Zn12  S    
C144  C152  A    
C20   H20   S    
C138  C146  A    
C143  C151  A    
C29   H29   S    
C5    C73   S    
C177  H97   S    
C161  H64   S    
O14   Zn1   S    
C67   C75   A    
C12   C136  A    
O10   Zn5   S    
C90   O22   A    
O38   Zn10  S    
C25   C33   A    
C159  H55   S    
O48   Zn9   S    
O22   Zn6   S    
C131  C134  A    
C76   C84   A    
C109  C117  A    
C5    O29   A    
C137  C145  A    
C78   C160  S    
C90   C145  S    
C19   C110  A    
C22   C41   A    
C14   C115  A    
C107  O45   A    
O30   Zn1   S    
C48   C56   A    
C164  C165  S    
C85   C150  S    
C62   H46   S    
C80   C166  S    
C9    C137  A    
C2    O26   A    
C121  H4    S    
C68   H52   S    
C35   H35   S    
C122  H3    S    
C22   C30   A    
C112  C126  A    
C81   C169  S    
C108  O46   A    
C83   C99   A    
C157  C158  S    
C101  O43   A    
C74   C82   A    
C119  H6    S    
C6    C74   S    
C170  H84   S    
C168  H75   S    
C117  H8    S    
C45   H37   S    
C118  H7    S    
C55   C106  S    
C50   C58   A    
O7    Zn7   S    
O31   Zn4   S    
C104  O42   A    
O35   Zn12  S    
O8    Zn8   S    
C54   C62   A    
C28   C39   A    
C180  H102  S    
O4    Zn4   S    
C1    C69   S    
C23   C44   A    
C88   O12   A    
C130  C132  A    
C166  C167  S    
C79   C95   A    
C11   C135  A    
C178  C179  S    
C6    O6    A    
C152  C155  A    
C124  H1    S    
C46   C54   A    
C15   H15   S    
C173  H91   S    
C18   C111  A    
C87   O19   A    
C68   C76   A    
C10   C139  A    
C91   O15   A    
C4    C72   S    
C167  H78   S    
C170  C171  S    
C116  C124  A    
O6    Zn6   S    
C57   C65   A    
C26   C37   A    
C82   C172  S    
O2    Zn2   S    
C17   C143  A    
C33   C41   A    
C142  C150  A    
C18   C144  A    
C160  H66   S    
C75   C83   A    
C37   H26   S    
C77   C93   A    
C12   C142  A    
C56   C105  S    
C13   C116  A    
C172  C173  S    
C28   C36   A    
C72   C80   A    
C29   C37   A    
C158  C159  S    
C154  H10   S    
O5    Zn5   S    
C2    C70   S    
O43   Zn12  S    
C7    O7    A    
O25   Zn6   S    
C171  H81   S    
C70   C78   A    
C175  C176  S    
C3    C71   S    
C177  H95   S    
C140  C148  A    
C141  C149  A    
C88   O20   A    
C169  C170  S    
C139  C147  A    
C102  O44   A    
C163  H73   S    
C30   H30   S    
C107  O39   A    
C90   O14   A    
C79   C163  S    
O15   Zn4   S    
C66   H50   S    
C166  H80   S    
C42   H21   S    
C65   C73   A    
C147  C154  A    
C85   O9    A    
C61   H45   S    
C169  H86   S    
C58   C66   A    
C132  C133  A    
C174  H89   S    
C103  O35   A    
C87   O11   A    
C80   C96   A    
C101  O33   A    
C11   C144  A    
O19   Zn3   S    
C145  C153  A    
C28   C100  S    
C32   C40   A    
C84   C178  S    
C150  C156  A    
C48   H40   S    
C179  H106  S    
C91   C148  S    
C26   C34   A    
C19   H19   S    
C51   C99   A    
C89   C146  S    
C2    O2    A    
C32   H32   S    
C164  H70   S    
C20   C142  A    
C41   H22   S    
C165  H69   S    
C86   C149  S    
C7    C75   S    
O45   Zn9   S    
C162  H60   S    
C151  C156  A    
C16   H16   S    
O33   Zn11  S    
C15   C114  A    
C113  C121  A    
C106  O38   A    
C177  H96   S    
C51   H43   S    
C120  H5    S    
C26   C98   S    
C102  O34   A    
C7    O31   A    
C86   O18   A    
C51   C59   A    
C60   C101  S    
C17   C112  A    
C175  H101  S    
C67   H51   S    
C47   C55   A    
C115  C129  A    
C180  H104  S    
C61   C69   A    
C159  H54   S    
O9    Zn6   S    
C113  C131  A    
C114  C132  A    
C10   C134  A    
C123  H2    S    
C4    O4    A    
C173  C174  S    
O17   Zn1   S    
C81   C97   A    
C31   C39   A    
C157  H59   S    
C64   C72   A    
C20   C109  A    
C114  C122  A    
C172  H94   S    
C171  H83   S    
C47   C95   A    
C176  H99   S    
C58   C103  S    
C89   O21   A    
C129  C131  A    
