data_mof_unit_11208.cif
_audit_creation_date              2012-12-10T19:06:29-0500
_audit_creation_method            fapswitch 2.2
_symmetry_space_group_name_H-M    P1
_symmetry_Int_Tables_number       1
_space_group_crystal_system       triclinic
_cell_length_a                    23.476954
_cell_length_b                    10.794067
_cell_length_c                    9.621101
_cell_angle_alpha                 90.495756
_cell_angle_beta                  89.357847
_cell_angle_gamma                 90.200372
_cell_volume                      2437.84217978

loop_
_atom_site_label
_atom_site_type_symbol
_atom_type_description
_atom_site_fract_x
_atom_site_fract_y
_atom_site_fract_z
_atom_type_partial_charge
C1    C     C_R   0.498645 0.262687 0.499625 0.809944
C2    C     C_R   0.121103 0.614819 0.535276 0.548501
C3    C     C_R   0.240307 0.562859 0.396889 -0.185024
C4    C     C_R   0.391185 0.499165 0.500522 0.812656
C5    C     C_R   0.299567 0.560160 0.395455 -0.181173
C6    C     C_R   0.328798 0.499155 0.500906 -0.065517
C7    C     C_R   0.298100 0.438025 0.605834 -0.299853
C8    C     C_R   0.238430 0.440528 0.608203 0.297110
C9    C     C_R   0.209485 0.503765 0.502819 0.339835
C10   C     C_R   0.760125 0.427611 0.585951 -0.115004
C11   C     C_R   0.700828 0.425619 0.584256 -0.238375
C12   C     C_R   0.969800 0.298774 0.419874 -0.167765
C13   C     C_R   0.671006 0.507902 0.499974 -0.044354
C14   C     C_R   0.701137 0.596225 0.420141 0.210239
C15   C     C_R   0.760783 0.594998 0.419679 -0.183511
C16   C     C_R   0.497608 0.737401 0.500411 0.816092
C17   C     C_R   0.790422 0.511276 0.502470 0.301275
C18   C     C_R   0.499026 0.065095 0.622946 0.085983
C19   C     C_R   0.492287 0.129722 0.500086 -0.188780
C20   C     C_R   0.474658 0.064856 0.381147 -0.306156
C21   C     C_R   0.473822 0.934377 0.379873 0.490034
C22   C     C_R   0.490350 0.870718 0.501162 -0.186627
C23   C     C_R   0.028983 0.297499 0.420572 -0.173544
C24   C     C_R   0.497990 0.938111 0.624107 0.005165
C25   C     C_3   0.542924 0.932104 0.733120 -0.517779
C26   C     C_3   0.544463 0.073431 0.729780 0.116212
C27   C     C_R   0.549538 0.512007 0.071682 0.069770
C28   C     C_R   0.608714 0.501896 0.499561 0.810564
C29   C     C_R   0.452824 0.466898 0.075295 0.469236
C30   C     C_R   0.451227 0.480887 0.928500 0.447849
C31   C     C_R   0.549780 0.509953 0.925053 0.154915
C32   C     C_3   0.591643 0.614313 0.919067 0.297709
C33   C     C_3   0.591548 0.615006 0.077448 -0.492551
C34   C     C_R   0.059643 0.404432 0.457387 0.019548
C35   C     C_R   0.880091 0.617469 0.540861 0.576206
C36   C     C_R   0.880328 0.407895 0.459608 0.534722
C37   C     C_R   0.939949 0.406619 0.457268 0.032350
C38   C     C_R   0.970144 0.515548 0.492878 -0.087030
C39   C     C_R   0.940190 0.623685 0.531855 -0.158491
C40   C     C_3   0.649074 0.788830 0.426511 -0.691183
C41   C     C_3   0.483708 0.901084 0.143796 -0.323885
C42   C     C_3   0.565608 0.151166 0.963151 -0.699575
C43   C     C_3   0.396143 0.298425 0.112865 -0.254837
C44   C     C_3   0.371788 0.591626 0.887303 -0.274852
C45   C     C_R   0.030321 0.514881 0.491727 -0.069552
C46   C     C_3   0.679504 0.676778 0.837200 -0.272859
C47   C     C_3   0.081903 0.905667 0.444984 -0.589008
C48   C     C_3   0.928028 0.910303 0.479033 -0.212177
C49   C     C_3   0.190072 0.456067 0.829757 -0.658091
C50   C     C_R   0.061107 0.623388 0.526232 -0.120912
C51   C     C_R   0.031069 0.735393 0.552917 0.174713
C52   C     C_R   0.970870 0.734563 0.558978 0.430930
C53   C     C_R   0.119194 0.403277 0.460879 0.566673
Cu1   Cu    Cu3+1 0.500000 0.499980 0.640670 0.986580
Cu2   Cu    Cu3+1 0.500000 0.500020 0.359330 0.999600
H1    H     H_    0.947514 0.214447 0.391407 0.169982
H2    H     H_    0.632429 0.583381 0.121403 0.237526
H3    H     H_    0.573708 0.700941 0.124621 0.177361
H4    H     H_    0.218120 0.610780 0.315318 0.146433
H5    H     H_    0.322589 0.607235 0.313076 0.180326
H6    H     H_    0.320405 0.388174 0.685741 0.192636
H7    H     H_    0.782604 0.363673 0.651690 0.161578
H8    H     H_    0.694816 0.720277 0.258435 0.244621
H9    H     H_    0.684169 0.842584 0.475169 0.229110
H10   H     H_    0.620228 0.753159 0.508999 0.213230
H11   H     H_    0.624163 0.851452 0.359485 0.218748
H12   H     H_    0.678108 0.359067 0.648018 0.167932
H13   H     H_    0.478529 0.825407 0.066117 0.170918
H14   H     H_    0.530258 0.912948 0.161355 0.143863
H15   H     H_    0.465300 0.986056 0.098803 0.156805
H16   H     H_    0.484859 0.099372 0.893412 0.246837
H17   H     H_    0.545968 0.200916 0.053037 0.220368
H18   H     H_    0.601343 0.208524 0.922355 0.246214
H19   H     H_    0.582191 0.060753 0.998891 0.216525
H20   H     H_    0.369235 0.257364 0.196163 0.183651
H21   H     H_    0.436599 0.244816 0.107797 0.115347
H22   H     H_    0.372933 0.287581 0.013558 0.187714
H23   H     H_    0.784315 0.660792 0.356709 0.144441
H24   H     H_    0.330875 0.591340 0.830986 0.184141
H25   H     H_    0.398016 0.669386 0.845517 0.156696
H26   H     H_    0.361573 0.608157 0.999092 0.171558
H27   H     H_    0.686185 0.732272 0.933756 0.148500
H28   H     H_    0.661801 0.735771 0.754088 0.148449
H29   H     H_    0.721735 0.643244 0.800591 0.211555
H30   H     H_    0.040954 0.912623 0.637368 0.281785
H31   H     H_    0.046135 0.930876 0.376612 0.181224
H32   H     H_    0.110354 0.841264 0.386713 0.244909
H33   H     H_    0.106506 0.990750 0.470546 0.243491
H34   H     H_    0.462732 0.115014 0.289474 0.164739
H35   H     H_    0.885837 0.953777 0.497518 0.215716
H36   H     H_    0.924865 0.853979 0.381530 0.127458
H37   H     H_    0.959132 0.986598 0.464198 0.141799
H38   H     H_    0.227675 0.298428 0.748149 0.259410
H39   H     H_    0.164656 0.400805 0.905116 0.233617
H40   H     H_    0.163099 0.533103 0.793139 0.254448
H41   H     H_    0.227949 0.494572 0.883604 0.219433
H42   H     H_    0.526015 0.893447 0.832042 0.187002
H43   H     H_    0.583014 0.889129 0.694277 0.165918
H44   H     H_    0.584902 0.114195 0.689007 0.132698
H45   H     H_    0.050589 0.212098 0.392955 0.173935
H46   H     H_    0.573169 0.698210 0.870533 0.077035
N1    N     N_R   0.851670 0.511927 0.501795 -0.462032
N2    N     N_R   0.148427 0.506931 0.500712 -0.458716
N3    N     N_R   0.500360 0.500930 0.147930 -0.240986
N4    N     N_R   0.500360 0.500890 0.852020 -0.277787
N5    N     N_2   0.672054 0.688177 0.343229 -0.433954
N6    N     N_2   0.523489 0.132041 0.856683 -0.392543
N7    N     N_2   0.060902 0.849642 0.572167 -0.363497
N8    N     N_2   0.207708 0.377591 0.714663 -0.413636
O1    O     O_R   0.500000 0.319640 0.618810 -0.552611
O2    O     O_R   0.582120 0.500020 0.618760 -0.554434
O3    O     O_R   0.582120 0.500060 0.381180 -0.559555
O4    O     O_2   0.850033 0.715058 0.589885 -0.507177
O5    O     O_3   0.453751 0.868096 0.265973 -0.556762
O6    O     O_3   0.404810 0.425051 0.144458 -0.547028
O7    O     O_3   0.398924 0.476207 0.865592 -0.560403
O8    O     O_3   0.644064 0.573487 0.861974 -0.544601
O9    O     O_3   0.942404 0.841779 0.598167 -0.547138
O10   O     O_2   0.851130 0.306039 0.419292 -0.554137
O11   O     O_2   0.147819 0.299325 0.425142 -0.546434
O12   O     O_2   0.152120 0.711669 0.582054 -0.513395
O13   O     O_R   0.500010 0.319680 0.381230 -0.581839
O14   O     O_R   0.417880 0.499940 0.618820 -0.529762
O15   O     O_R   0.417880 0.499980 0.381240 -0.518985
O16   O     O_R   0.499990 0.680320 0.618770 -0.600216
O17   O     O_R   0.500000 0.680360 0.381190 -0.525999

loop_
_geom_bond_atom_site_label_1
_geom_bond_atom_site_label_2
_ccdc_geom_bond_type
Cu1   O14   S    
C33   H3    S    
H16   N6    S    
Cu2   O3    S    
Cu1   Cu2   S    
C19   C20   A    
C18   C26   S    
C41   O5    S    
C35   N1    A    
C53   O11   S    
C7    C8    A    
C30   O7    S    
C27   C33   S    
C12   C23   A    
C4    O15   A    
C29   C30   A    
C18   C24   A    
C45   C50   A    
C40   N5    S    
C36   C37   A    
C38   C39   A    
C15   H23   S    
C10   C17   A    
C27   N3    A    
Cu1   O1    S    
C36   N1    A    
C18   C19   A    
C12   C37   A    
C36   O10   S    
C1    O13   A    
C7    H6    S    
C38   C45   A    
C2    C50   A    
C43   O6    S    
C46   H27   S    
C51   N7    S    
C48   H36   S    
C16   C22   S    
C13   C28   S    
C49   H39   S    
H30   N7    S    
C42   N6    S    
C32   O8    S    
Cu1   N4    S    
C26   H44   S    
C23   H45   S    
C29   O6    S    
Cu2   O13   S    
C40   H11   S    
C21   C22   A    
C31   N4    A    
C10   H7    S    
C11   H12   S    
C41   H13   S    
C28   O2    A    
C43   H20   S    
Cu1   O16   S    
C42   H19   S    
C1    C19   S    
C27   C31   A    
C51   C52   A    
C47   H31   S    
C44   H25   S    
C24   C25   S    
C4    C6    S    
C44   H26   S    
C8    C9    A    
C48   O9    S    
C25   C26   S    
Cu2   N3    S    
C28   O3    A    
C46   O8    S    
C39   C52   A    
C47   H32   S    
C35   C39   A    
C17   N1    S    
C37   C38   A    
C3    C9    A    
C1    O1    A    
C31   C32   S    
Cu2   O17   S    
C9    N2    S    
C23   C34   A    
C42   H17   S    
C50   C51   A    
C34   C45   A    
C49   H40   S    
H8    N5    S    
C44   O7    S    
C12   H1    S    
C46   H29   S    
C25   H42   S    
C40   H10   S    
C30   N4    A    
C22   C24   A    
C52   O9    S    
C41   H14   S    
C16   O16   A    
C2    O12   S    
C43   H21   S    
C15   C17   A    
Cu2   O15   S    
C42   H18   S    
C33   H2    S    
C5    H5    S    
C14   C15   A    
C44   H24   S    
C21   O5    S    
C3    C5    A    
C26   N6    S    
C6    C7    A    
C43   H22   S    
C20   H34   S    
C40   H9    S    
C47   H33   S    
C49   N8    S    
C8    N8    S    
C32   C33   S    
C11   C13   A    
C5    C6    A    
C2    N2    A    
C53   N2    A    
Cu1   O2    S    
C35   O4    S    
C49   H41   S    
C4    O14   A    
C10   C11   A    
C46   H28   S    
C25   H43   S    
C14   N5    S    
C20   C21   A    
C29   N3    A    
C34   C53   A    
C47   N7    S    
C48   H37   S    
C32   H46   S    
C48   H35   S    
C13   C14   A    
C16   O17   A    
H38   N8    S    
C41   H15   S    
C3    H4    S    
