data_mof_unit_43898.cif
_audit_creation_date              2012-10-26T19:54:04-0400
_audit_creation_method            fapswitch 2.2
_symmetry_space_group_name_H-M    P1
_symmetry_Int_Tables_number       1
_space_group_crystal_system       triclinic
_cell_length_a                    15.882112
_cell_length_b                    15.987904
_cell_length_c                    14.753946
_cell_angle_alpha                 89.381539
_cell_angle_beta                  89.284944
_cell_angle_gamma                 89.723277
_cell_volume                      3745.79550779

loop_
_atom_site_label
_atom_site_type_symbol
_atom_type_description
_atom_site_fract_x
_atom_site_fract_y
_atom_site_fract_z
_atom_type_partial_charge
C1    C     C_R   0.500067 0.340855 0.500480 0.546003
C2    C     C_1   0.499955 0.748210 0.498509 -0.024368
C3    C     C_R   0.577033 0.503819 0.950881 0.228666
C4    C     C_R   0.423689 0.495820 0.048901 0.230108
C5    C     C_R   0.500511 0.500382 0.902832 -0.084974
C6    C     C_R   0.500054 0.500574 0.097095 -0.088804
C7    C     C_R   0.423917 0.497576 0.952705 0.233939
C8    C     C_R   0.576579 0.506245 0.047046 0.233787
C9    C     C_1   0.500250 0.500053 0.802621 0.178680
C10   C     C_1   0.500018 0.500216 0.197340 0.172292
C11   C     C_R   0.339372 0.499688 0.500609 0.547468
C12   C     C_R   0.499995 0.659154 0.499560 0.546678
C13   C     C_R   0.660607 0.500268 0.499473 0.547541
C14   C     C_3   0.970444 0.426167 0.534683 -0.133445
C15   C     C_3   0.029350 0.573287 0.467375 -0.127805
C16   C     C_3   0.029623 0.435420 0.450425 -0.139490
C17   C     C_3   0.970198 0.564079 0.551650 -0.136497
C18   C     C_1   0.249767 0.499148 0.502331 -0.028997
C19   C     C_1   0.750172 0.500613 0.498226 -0.026068
C20   C     C_3   0.024285 0.490017 0.585598 0.293878
C21   C     C_3   0.975471 0.509482 0.416611 0.296564
C22   C     C_3   0.082779 0.499064 0.502924 0.027038
C23   C     C_R   0.500007 0.912721 0.499818 0.001657
C24   C     C_3   0.917083 0.500434 0.499265 0.028210
C25   C     C_1   0.174305 0.498875 0.503522 -0.033809
C26   C     C_1   0.825608 0.500728 0.497896 -0.030439
C27   C     C_R   0.475674 0.954928 0.578995 0.278973
C28   C     C_R   0.524977 0.044863 0.422098 0.267046
C29   C     C_3   0.010916 0.516312 0.264705 0.008362
C30   C     C_3   0.979707 0.546425 0.172404 -0.261193
C31   C     C_3   0.048351 0.539778 0.099641 -0.485490
C32   C     C_3   0.985892 0.478005 0.736289 0.006208
C33   C     C_3   0.016936 0.452206 0.830179 -0.265316
C34   C     C_R   0.500452 0.087291 0.501162 -0.005678
C35   C     C_3   0.944271 0.446724 0.898691 -0.480434
C36   C     C_3   0.502221 0.914645 0.726230 0.009843
C37   C     C_3   0.558129 0.836300 0.728456 -0.256976
C38   C     C_3   0.612876 0.834054 0.812751 -0.493104
C39   C     C_3   0.483847 0.109098 0.291641 0.008494
C40   C     C_3   0.511991 0.172240 0.218993 -0.239470
C41   C     C_3   0.438607 0.200267 0.159987 -0.496511
C42   C     C_3   0.665839 0.594338 0.117814 0.016526
C43   C     C_3   0.755059 0.602794 0.153821 -0.244584
C44   C     C_3   0.770341 0.690623 0.189530 -0.479618
C45   C     C_R   0.525626 0.957425 0.422265 -0.143960
C46   C     C_3   0.323642 0.424123 0.877095 0.006641
C47   C     C_3   0.266535 0.436054 0.795295 -0.235448
C48   C     C_3   0.236595 0.352523 0.758824 -0.474160
C49   C     C_3   0.677015 0.572549 0.864348 0.014816
C50   C     C_3   0.732870 0.554025 0.781713 -0.250545
C51   C     C_3   0.756962 0.633670 0.730018 -0.487993
C52   C     C_3   0.330324 0.414049 0.128201 0.017386
C53   C     C_3   0.236127 0.406666 0.148359 -0.252938
C54   C     C_3   0.214344 0.322327 0.191693 -0.498114
C55   C     C_R   0.474636 0.042636 0.578582 -0.150614
C56   C     C_1   0.499929 0.823230 0.498360 -0.021104
C57   C     C_1   0.500400 0.176803 0.502402 -0.027560
C58   C     C_1   0.500246 0.251816 0.501789 -0.024277
Cu1   Cu    Cu3+1 0.500020 0.500000 0.589220 0.972302
Cu2   Cu    Cu3+1 0.499980 0.500000 0.410780 0.991692
H1    H     H_    0.055182 0.383456 0.408874 0.098467
H2    H     H_    0.959204 0.612732 0.177370 0.165387
H3    H     H_    0.105451 0.574466 0.119848 0.167624
H4    H     H_    0.025155 0.566938 0.034987 0.151086
H5    H     H_    0.064751 0.473128 0.088567 0.140216
H6    H     H_    0.936960 0.432484 0.715663 0.126000
H7    H     H_    0.957196 0.541521 0.740649 0.132543
H8    H     H_    0.048546 0.390168 0.826036 0.169570
H9    H     H_    0.063265 0.498680 0.854010 0.169231
H10   H     H_    0.915268 0.509389 0.908520 0.148527
H11   H     H_    0.968157 0.423668 0.964795 0.150629
H12   H     H_    0.944962 0.616201 0.593149 0.097382
H13   H     H_    0.895645 0.402496 0.875183 0.163143
H14   H     H_    0.464307 0.916721 0.789968 0.154884
H15   H     H_    0.542211 0.971897 0.725398 0.111289
H16   H     H_    0.517992 0.779521 0.728147 0.190993
H17   H     H_    0.599516 0.835488 0.667191 0.158880
H18   H     H_    0.654775 0.889459 0.813594 0.150433
H19   H     H_    0.652481 0.776706 0.812623 0.136837
H20   H     H_    0.572837 0.833322 0.875022 0.146564
H21   H     H_    0.431515 0.137901 0.331922 0.130317
H22   H     H_    0.460226 0.051849 0.258141 0.128824
H23   H     H_    0.945220 0.366587 0.562917 0.106764
H24   H     H_    0.539008 0.227987 0.252182 0.191578
H25   H     H_    0.561626 0.143553 0.175403 0.174023
H26   H     H_    0.410873 0.145787 0.125296 0.145643
H27   H     H_    0.461381 0.245689 0.107860 0.142540
H28   H     H_    0.389329 0.231161 0.202093 0.141375
H29   H     H_    0.620664 0.612205 0.172532 0.137528
H30   H     H_    0.658252 0.638728 0.059648 0.106169
H31   H     H_    0.764966 0.556601 0.209601 0.207498
H32   H     H_    0.800987 0.589543 0.098306 0.159087
H33   H     H_    0.763096 0.737707 0.134225 0.139440
H34   H     H_    0.054506 0.632716 0.438682 0.110195
H35   H     H_    0.835135 0.694802 0.216303 0.158064
H36   H     H_    0.725142 0.705014 0.245351 0.156925
H37   H     H_    0.287835 0.391346 0.931906 0.138275
H38   H     H_    0.378055 0.383883 0.856304 0.111568
H39   H     H_    0.210999 0.474469 0.815084 0.187886
H40   H     H_    0.301493 0.470061 0.740736 0.204177
H41   H     H_    0.291242 0.314046 0.736313 0.146910
H42   H     H_    0.195051 0.363788 0.699901 0.190666
H43   H     H_    0.200511 0.317792 0.811958 0.134314
H44   H     H_    0.713840 0.609353 0.913358 0.135751
H45   H     H_    0.453518 0.075687 0.638533 0.117638
H46   H     H_    0.622342 0.611347 0.841948 0.113207
H47   H     H_    0.791041 0.521381 0.803980 0.156237
H48   H     H_    0.698889 0.511904 0.735450 0.203039
H49   H     H_    0.699804 0.664933 0.702921 0.159631
H50   H     H_    0.799165 0.617585 0.672188 0.142193
H51   H     H_    0.790537 0.677231 0.775074 0.138085
H52   H     H_    0.365115 0.402760 0.192083 0.145966
H53   H     H_    0.348336 0.364659 0.078585 0.100524
H54   H     H_    0.215967 0.457383 0.194951 0.175075
H55   H     H_    0.201338 0.413793 0.083887 0.163556
H56   H     H_    0.545688 0.924587 0.361782 0.125897
H57   H     H_    0.232631 0.270627 0.145644 0.145074
H58   H     H_    0.145428 0.319210 0.204852 0.141951
H59   H     H_    0.247438 0.314390 0.257144 0.149583
H60   H     H_    0.032606 0.450263 0.258834 0.132792
H61   H     H_    0.064940 0.556326 0.284212 0.125888
H62   H     H_    0.925021 0.508055 0.152217 0.176994
N1    N     N_1   0.500030 0.499980 0.276710 -0.194448
N2    N     N_1   0.499970 0.500020 0.723290 -0.199330
O1    O     O_R   0.500040 0.380310 0.575320 -0.493639
O2    O     O_3   0.054580 0.478839 0.674498 -0.568661
O3    O     O_3   0.445245 0.910309 0.653356 -0.558036
O4    O     O_3   0.553426 0.088504 0.346420 -0.559086
O5    O     O_3   0.652638 0.510654 0.091438 -0.528654
O6    O     O_3   0.348097 0.503770 0.907845 -0.530364
O7    O     O_3   0.653336 0.495631 0.905281 -0.533862
O8    O     O_3   0.347090 0.495576 0.094636 -0.532128
O9    O     O_R   0.499960 0.619690 0.424680 -0.493131
O10   O     O_R   0.500000 0.380310 0.424640 -0.492460
O11   O     O_R   0.500000 0.619690 0.575360 -0.490608
O12   O     O_R   0.379100 0.499990 0.575330 -0.495857
O13   O     O_R   0.620900 0.500010 0.424670 -0.479855
O14   O     O_R   0.379060 0.499990 0.424640 -0.491487
O15   O     O_R   0.620940 0.500010 0.575360 -0.507020
O16   O     O_3   0.944048 0.521453 0.328365 -0.560922

loop_
_geom_bond_atom_site_label_1
_geom_bond_atom_site_label_2
_ccdc_geom_bond_type
Cu1   Cu2   S    
C11   C18   S    
C16   C21   S    
C23   C45   A    
C40   H24   S    
C2    C12   S    
C17   C20   S    
C49   H44   S    
C23   C56   S    
C4    O8    S    
C52   H53   S    
C53   H54   S    
C5    C9    S    
C41   H26   S    
C49   O7    S    
C29   C30   S    
C55   H45   S    
C3    O7    S    
C13   O15   A    
C36   C37   S    
C11   O14   A    
C1    O1    A    
C46   O6    S    
C30   C31   S    
C27   C55   A    
C38   H19   S    
C52   H52   S    
C32   O2    S    
Cu1   O12   S    
C9    N2    T    
C47   H39   S    
C15   C17   S    
C14   C24   S    
C29   O16   S    
C19   C26   T    
C7    O6    S    
C44   H33   S    
C27   O3    S    
C15   C22   S    
C30   H62   S    
C35   H10   S    
C22   C25   S    
C29   H61   S    
C34   C57   S    
C51   H51   S    
C23   C27   A    
C33   H9    S    
Cu2   O13   S    
C46   H38   S    
C35   H11   S    
C34   C55   A    
C51   H49   S    
C54   H59   S    
C50   H48   S    
C18   C25   T    
C14   H23   S    
C15   H34   S    
C4    C7    A    
C41   H27   S    
C29   H60   S    
C28   C45   A    
C17   C24   S    
C13   C19   S    
C52   O8    S    
C31   H3    S    
C39   H21   S    
C4    C6    A    
C3    C8    A    
C39   C40   S    
C5    C7    A    
C6    C8    A    
C38   H18   S    
C53   C54   S    
C48   H43   S    
C37   H17   S    
C12   O11   A    
C43   H31   S    
C47   H40   S    
C42   H30   S    
C13   O13   A    
C40   H25   S    
Cu2   N1    S    
C43   C44   S    
C20   O2    S    
C37   C38   S    
C44   H36   S    
C36   H15   S    
C14   C20   S    
C47   C48   S    
Cu1   O15   S    
C48   H42   S    
C50   C51   S    
C36   H14   S    
C32   H7    S    
C40   C41   S    
C46   H37   S    
C20   C22   S    
C10   N1    T    
C51   H50   S    
C12   O9    A    
C54   H58   S    
C50   H47   S    
C14   C16   S    
C21   C24   S    
C36   O3    S    
C42   C43   S    
C1    O10   A    
Cu2   O10   S    
C52   C53   S    
C32   H6    S    
Cu1   N2    S    
C31   H5    S    
C41   H28   S    
C46   C47   S    
C35   H13   S    
C16   C22   S    
C39   O4    S    
C31   H4    S    
C37   H16   S    
C39   H22   S    
C24   C26   S    
C3    C5    A    
C6    C10   S    
C49   H46   S    
Cu1   O1    S    
C43   H32   S    
C42   H29   S    
C32   C33   S    
C30   H2    S    
C44   H35   S    
C2    C56   T    
C11   O12   A    
C45   H56   S    
C57   C58   T    
C38   H20   S    
C48   H41   S    
Cu1   O11   S    
C33   C35   S    
C42   O5    S    
C28   C34   A    
C28   O4    S    
C15   C21   S    
C17   H12   S    
C49   C50   S    
C16   H1    S    
C54   H57   S    
C8    O5    S    
C21   O16   S    
C1    C58   S    
Cu2   O9    S    
C53   H55   S    
C33   H8    S    
Cu2   O14   S    
