data_mof_unit_11511.cif
_audit_creation_date              2012-12-11T14:32:59-0500
_audit_creation_method            fapswitch 2.2
_symmetry_space_group_name_H-M    P1
_symmetry_Int_Tables_number       1
_space_group_crystal_system       triclinic
_cell_length_a                    7.002018
_cell_length_b                    13.946948
_cell_length_c                    17.962834
_cell_angle_alpha                 112.99785
_cell_angle_beta                  95.422919
_cell_angle_gamma                 90.326506
_cell_volume                      1605.80149557

loop_
_atom_site_label
_atom_site_type_symbol
_atom_type_description
_atom_site_fract_x
_atom_site_fract_y
_atom_site_fract_z
_atom_type_partial_charge
O1    O     O_R   0.484560 0.544530 0.414330 -0.533177
O2    O     O_R   0.197040 0.638810 0.585080 -0.543312
O3    O     O_R   0.026800 0.455470 0.585670 -0.536476
C1    C     C_R   0.374784 0.675572 0.614503 0.708663
O4    O     O_R   0.155000 0.556150 0.414940 -0.540167
O5    O     O_R   0.984450 0.372220 0.414320 -0.537813
C2    C     C_R   0.316322 0.558128 0.383182 0.746265
O6    O     O_R   0.526900 0.627780 0.585680 -0.537918
O7    O     O_3   0.339170 0.439750 0.499990 -0.388337
V1    V     V_3+5 0.064350 0.511180 0.500000 1.352252
O8    O     O_R   0.654880 0.361190 0.414920 -0.540692
C3    C     C_R   0.817270 0.324475 0.386860 0.765541
O9    O     O_R   0.696930 0.443850 0.585060 -0.557037
C4    C     C_R   0.871914 0.434485 0.612998 0.679111
V2    V     V_3+5 0.564340 0.488820 0.500000 1.340428
O10   O     O_3   0.839390 0.560250 0.500010 -0.372142
C5    C     C_R   0.040261 0.865637 0.825367 -0.050319
C6    C     C_R   0.898639 0.397696 0.680797 -0.062993
C7    C     C_R   0.932797 0.821582 0.683905 -0.127187
C8    C     C_R   0.989016 0.791227 0.747311 -0.138853
C9    C     C_R   0.029648 0.972599 0.839430 -0.200868
C10   C     C_R   0.970176 0.006002 0.774732 0.094294
C11   C     C_R   0.921379 0.927380 0.696955 0.074893
C12   C     C_R   0.961123 0.113438 0.783919 0.053823
C13   C     C_R   0.900543 0.141322 0.715128 0.008735
C14   C     C_R   0.858086 0.055859 0.636326 0.127757
C15   C     C_R   0.867854 0.953042 0.630922 -0.250150
C16   C     C_R   0.023817 0.193539 0.859657 -0.161769
C17   C     C_R   0.038194 0.296630 0.869889 -0.219111
C18   C     C_R   0.987692 0.326547 0.805860 0.137732
C19   C     C_R   0.909073 0.252078 0.728693 0.104250
C20   C     C_R   0.020981 0.431748 0.819071 -0.125437
C21   C     C_R   0.982884 0.466052 0.756471 -0.127927
C22   C     C_R   0.852922 0.293454 0.669134 -0.265131
H1    H     H_    0.849605 0.890317 0.571385 0.134124
H2    H     H_    0.776103 0.247405 0.612642 0.135522
H3    H     H_    0.018725 0.546376 0.767306 0.093174
H4    H     H_    0.094509 0.353972 0.929007 0.116375
H5    H     H_    0.898493 0.761220 0.623935 0.136520
H6    H     H_    0.991476 0.708889 0.735375 0.093323
H7    H     H_    0.063395 0.026499 0.901509 0.090379
H8    H     H_    0.070438 0.179055 0.912905 0.121425
H9    H     H_    0.083890 0.487280 0.877705 0.131944
H10   H     H_    0.113231 0.222919 0.309896 0.152583
H11   H     H_    0.836227 0.033980 0.194513 0.155698
C23   C     C_2   0.135093 0.037025 0.184362 -0.350331
C24   C     C_2   0.973411 0.077195 0.217797 -0.126909
H12   H     H_    0.676881 0.177384 0.295160 0.125939
C25   C     C_2   0.813840 0.220629 0.319109 -0.352066
C26   C     C_2   0.975914 0.179908 0.286357 -0.131327
H13   H     H_    0.271950 0.080442 0.208114 0.125658
C27   C     C_R   0.414680 0.780842 0.683120 -0.053687
C28   C     C_R   0.539517 0.464286 0.840314 -0.063147
C29   C     C_R   0.537336 0.875222 0.825847 -0.118007
C30   C     C_R   0.475403 0.782401 0.760246 -0.201970
C31   C     C_R   0.425750 0.876797 0.671894 0.103170
C32   C     C_R   0.464753 0.974975 0.743411 0.049827
C33   C     C_R   0.530304 0.971579 0.818843 0.086961
C34   C     C_R   0.438376 0.076843 0.743449 0.079326
C35   C     C_R   0.508538 0.172262 0.810039 0.083099
C36   C     C_R   0.582172 0.162990 0.882175 -0.187040
C37   C     C_R   0.587718 0.064609 0.886961 -0.201992
C38   C     C_R   0.315335 0.086644 0.683295 -0.252254
C39   C     C_R   0.301016 0.177278 0.673710 -0.217189
C40   C     C_R   0.403671 0.266698 0.724425 0.144718
C41   C     C_R   0.493165 0.271467 0.800140 0.068113
C42   C     C_R   0.401290 0.352488 0.702344 0.079329
C43   C     C_R   0.467369 0.450532 0.761430 -0.174225
C44   C     C_R   0.556716 0.373609 0.859547 -0.237664
H14   H     H_    0.640990 0.060970 0.944381 0.117827
H15   H     H_    0.616032 0.383776 0.920044 0.103331
H16   H     H_    0.465151 0.517986 0.745571 0.084107
H17   H     H_    0.187798 0.178137 0.631661 0.161862
H18   H     H_    0.588026 0.871940 0.883354 0.162687
H19   H     H_    0.480027 0.710130 0.769416 0.105478
H20   H     H_    0.632724 0.231003 0.935630 0.123139
H21   H     H_    0.216786 0.025235 0.644949 0.147130
H22   H     H_    0.334080 0.662377 0.192454 0.155234
H23   H     H_    0.612957 0.587735 0.305986 0.156887
C45   C     C_2   0.313638 0.595024 0.315460 -0.345595
C46   C     C_2   0.475204 0.606206 0.282808 -0.129139
H24   H     H_    0.770608 0.636179 0.206154 0.126709
C47   C     C_2   0.633327 0.654931 0.182797 -0.344565
C48   C     C_2   0.471800 0.643619 0.215435 -0.129773
H25   H     H_    0.176351 0.613578 0.291962 0.128317
O11   O     O_R   0.421600 0.630430 0.917010 -0.538239
O12   O     O_R   0.793840 0.702190 0.087630 -0.545006
O13   O     O_R   0.964010 0.886170 0.088190 -0.537019
C49   C     C_R   0.630789 0.693044 0.115745 0.742663
O14   O     O_R   0.751460 0.619510 0.917500 -0.536022
O15   O     O_R   0.921330 0.802900 0.916840 -0.541654
C50   C     C_R   0.575651 0.575690 0.901336 0.686138
O16   O     O_R   0.464290 0.713700 0.088350 -0.539078
O17   O     O_3   0.609200 0.818520 0.002630 -0.380921
V3    V     V_3+5 0.884140 0.747190 0.002530 1.373892
O18   O     O_R   0.251150 0.814630 0.917340 -0.541287
C51   C     C_R   0.074914 0.829002 0.892621 0.686150
O19   O     O_R   0.293530 0.897310 0.087470 -0.542638
C52   C     C_R   0.131337 0.933666 0.115979 0.757505
V4    V     V_3+5 0.384070 0.769710 0.002370 1.372119
O20   O     O_3   0.109180 0.698190 0.002460 -0.376296
C53   C     C_3   0.404559 0.874895 0.585303 -0.438081
C54   C     C_3   0.500716 0.790229 0.520146 -0.710966
H26   H     H_    0.631835 0.764560 0.544405 0.232905
H27   H     H_    0.394948 0.725691 0.491832 0.224384
H28   H     H_    0.536200 0.815643 0.471547 0.199549
H29   H     H_    0.249427 0.869017 0.563153 0.172599
H30   H     H_    0.472390 0.946593 0.586090 0.229654
C55   C     C_3   0.380615 0.340678 0.613602 -0.268047
C56   C     C_3   0.239170 0.263445 0.544825 -0.743077
H31   H     H_    0.284892 0.182101 0.525457 0.186196
H32   H     H_    0.091062 0.269734 0.560359 0.208770
H33   H     H_    0.237920 0.276955 0.488286 0.240747
H34   H     H_    0.357577 0.419598 0.616498 0.225573
H35   H     H_    0.517882 0.314738 0.590955 0.184758
C57   C     C_3   0.845986 0.061471 0.552388 -0.350485
C58   C     C_3   0.641079 0.065316 0.516624 -0.792780
H36   H     H_    0.576230 0.985596 0.482984 0.226727
H37   H     H_    0.551929 0.109446 0.565180 0.244240
H38   H     H_    0.641885 0.103951 0.473016 0.216217
H39   H     H_    0.937851 0.123656 0.550182 0.157077
H40   H     H_    0.910171 0.992402 0.507932 0.173767

loop_
_geom_bond_atom_site_label_1
_geom_bond_atom_site_label_2
_ccdc_geom_bond_type
C33   C37   A    
C23   C52   S    
C13   C19   A    
C4    C6    S    
O2    C1    A    
C7    C8    A    
C1    O6    A    
C28   C44   A    
C3    C25   S    
O14   V3    S    
C57   C58   S    
C14   C15   A    
C17   C18   A    
C57   H40   S    
C1    C27   S    
C16   C17   A    
C58   H37   S    
O5    C3    A    
C18   C19   A    
C8    H6    S    
C32   C34   A    
C41   C44   A    
V2    O10   S    
O19   C52   A    
C5    C8    A    
C31   C32   A    
C37   H14   S    
C23   C24   D    
C44   H15   S    
C28   C43   A    
C56   H31   S    
C29   H18   S    
O8    V2    S    
C42   C55   S    
C40   C42   A    
O12   V3    S    
C17   H4    S    
V3    O20   S    
C39   H17   S    
C53   H30   S    
O1    V2    S    
C11   C15   A    
O11   V4    S    
O7    V1    S    
C36   C37   A    
C27   C30   A    
C30   H19   S    
C38   H21   S    
O13   V3    S    
C35   C41   A    
C34   C35   A    
C9    C10   A    
O17   V3    S    
C24   C26   S    
C14   C57   S    
H11   C24   S    
C36   H20   S    
C47   C49   S    
C57   H39   S    
C42   C43   A    
C12   C13   A    
C58   H38   S    
H23   C46   S    
C15   H1    S    
C13   C14   A    
C23   H13   S    
C21   H3    S    
C35   C36   A    
C7    C11   A    
C45   H25   S    
O14   C50   A    
C47   C48   D    
O16   V4    S    
O17   V4    S    
C43   H16   S    
O18   C51   A    
C28   C50   S    
C19   C22   A    
C53   H29   S    
C54   H27   S    
O15   C51   A    
C6    C22   A    
C56   H33   S    
O3    C4    A    
C7    H5    S    
C55   H34   S    
C9    H7    S    
H12   C25   S    
C25   C26   D    
O6    V2    S    
O19   V4    S    
O12   C49   A    
C10   C12   A    
O2    V1    S    
C46   C48   S    
O4    C2    A    
C29   C33   A    
H10   C26   S    
C29   C30   A    
O1    C2    A    
C12   C16   A    
C45   C46   D    
O5    V1    S    
O8    C3    A    
C34   C38   A    
C20   C21   A    
O9    V2    S    
O7    V2    S    
C31   C53   S    
O4    V1    S    
O3    V1    S    
O11   C50   A    
C58   H36   S    
C39   C40   A    
C18   C20   A    
C32   C33   A    
O18   V4    S    
C16   H8    S    
V4    O20   S    
C20   H9    S    
C54   H28   S    
C22   H2    S    
C40   C41   A    
C49   O16   A    
C53   C54   S    
C6    C21   A    
C56   H32   S    
O13   C52   A    
C55   H35   S    
O15   V3    S    
C38   C39   A    
H22   C48   S    
H24   C47   S    
C55   C56   S    
C54   H26   S    
C10   C11   A    
V1    O10   S    
O9    C4    A    
C5    C51   S    
C27   C31   A    
C2    C45   S    
C5    C9    A    
