data_mof_unit_10545.cif
_audit_creation_date              2012-12-11T15:23:35-0500
_audit_creation_method            fapswitch 2.2
_symmetry_space_group_name_H-M    P1
_symmetry_Int_Tables_number       1
_space_group_crystal_system       triclinic
_cell_length_a                    6.920211
_cell_length_b                    17.642552
_cell_length_c                    19.271793
_cell_angle_alpha                 109.653538
_cell_angle_beta                  90.165698
_cell_angle_gamma                 90.784964
_cell_volume                      2215.54719163

loop_
_atom_site_label
_atom_site_type_symbol
_atom_type_description
_atom_site_fract_x
_atom_site_fract_y
_atom_site_fract_z
_atom_type_partial_charge
O1    O     O_R   0.505810 0.439670 0.562310 -0.537587
O2    O     O_R   0.169070 0.404920 0.411210 -0.544134
O3    O     O_R   0.005550 0.560330 0.437690 -0.552575
C1    C     C_R   0.338317 0.381289 0.383236 0.681833
O4    O     O_R   0.175650 0.430000 0.560110 -0.523331
O5    O     O_R   0.012170 0.585580 0.587650 -0.533002
C2    C     C_R   0.344367 0.415110 0.581882 0.772413
O6    O     O_R   0.499180 0.414420 0.412350 -0.547209
O7    O     O_3   0.341430 0.551020 0.508860 -0.370302
V1    V     V_3+5 0.063930 0.490540 0.498360 1.458344
O8    O     O_R   0.682850 0.595080 0.588790 -0.522730
C3    C     C_R   0.852953 0.617834 0.617200 0.799190
O9    O     O_R   0.676280 0.570000 0.439890 -0.539937
C4    C     C_R   0.845598 0.585703 0.418549 0.712084
V2    V     V_3+5 0.564760 0.509460 0.501640 1.465271
O10   O     O_3   0.837130 0.448980 0.491140 -0.373195
C5    C     C_R   0.063538 0.871483 0.182393 -0.186394
C6    C     C_R   0.914641 0.866358 0.131195 -0.085681
C7    C     C_R   0.754722 0.815400 0.128179 -0.211466
C8    C     C_R   0.744876 0.768895 0.174708 0.110843
C9    C     C_R   0.893391 0.775152 0.226940 0.077817
C10   C     C_R   0.051950 0.827387 0.230963 0.072622
C11   C     C_R   0.588860 0.716121 0.169655 -0.202821
C12   C     C_R   0.580834 0.668897 0.214861 -0.123109
C13   C     C_R   0.726623 0.674559 0.267816 0.099352
C14   C     C_R   0.882880 0.729323 0.275002 -0.112327
C15   C     C_R   0.027480 0.738741 0.329854 0.098047
C16   C     C_R   0.185369 0.792926 0.333522 0.228123
C17   C     C_R   0.196293 0.835365 0.283744 -0.258324
C18   C     C_R   0.716938 0.626518 0.313284 0.143162
C19   C     C_R   0.857207 0.636252 0.369746 -0.184214
C20   C     C_R   0.009487 0.694150 0.379021 0.146283
H1    H     H_    0.186453 0.911372 0.185614 0.137730
H2    H     H_    0.639601 0.810807 0.088601 0.133698
H3    H     H_    0.473167 0.710812 0.130188 0.144307
H4    H     H_    0.457567 0.628623 0.208617 0.171701
H5    H     H_    0.318681 0.875536 0.287052 0.141102
C21   C     C_3   0.709701 0.783285 0.768757 -0.184186
C22   C     C_3   0.816125 0.774890 0.695915 0.182893
H6    H     H_    0.565640 0.810644 0.784118 0.162783
C23   C     C_3   0.868308 0.687823 0.687797 -0.147044
C24   C     C_3   0.762353 0.695413 0.760167 0.134623
C25   C     C_3   0.951901 0.726577 0.802404 0.211837
C26   C     C_3   0.060374 0.717774 0.730594 -0.144371
C27   C     C_3   0.007176 0.805843 0.739202 -0.169239
C28   C     C_3   0.901343 0.813213 0.811632 -0.092004
H7    H     H_    0.204362 0.690351 0.715547 0.176449
H8    H     H_    0.106918 0.851741 0.730772 0.167940
C29   C     C_3   0.516416 0.246801 0.301607 -0.232990
C30   C     C_3   0.364198 0.182014 0.261871 0.209982
H9    H     H_    0.623565 0.242625 0.343118 0.126966
C31   C     C_3   0.414777 0.189587 0.186986 -0.036549
C32   C     C_3   0.561208 0.255776 0.226352 0.223399
C33   C     C_3   0.407591 0.321140 0.238127 -0.124578
C34   C     C_3   0.256127 0.254138 0.199230 -0.202457
C35   C     C_3   0.204211 0.245044 0.274805 -0.120439
C36   C     C_3   0.356601 0.310883 0.312804 -0.077448
H10   H     H_    0.427042 0.379114 0.228056 0.130624
H11   H     H_    0.151643 0.257599 0.156640 0.154326
H12   H     H_    0.058459 0.239308 0.296501 0.116651
C37   C     C_R   0.544384 0.119506 0.808401 0.114000
C38   C     C_R   0.417671 0.134073 0.868699 -0.160327
C39   C     C_R   0.280134 0.196153 0.882345 0.159563
C40   C     C_R   0.257377 0.238957 0.832330 0.075344
C41   C     C_R   0.391355 0.226459 0.773726 -0.019552
C42   C     C_R   0.536446 0.168046 0.763138 0.053398
C43   C     C_R   0.105511 0.294187 0.838424 0.205322
C44   C     C_R   0.098260 0.338915 0.791331 -0.165031
C45   C     C_R   0.235206 0.330751 0.735966 0.053425
C46   C     C_R   0.380725 0.272543 0.725473 -0.019094
C47   C     C_R   0.515003 0.260248 0.666982 0.077321
C48   C     C_R   0.666415 0.204718 0.660738 0.205534
C49   C     C_R   0.673148 0.159733 0.707674 -0.159824
C50   C     C_R   0.226908 0.379222 0.690700 0.130213
C51   C     C_R   0.354367 0.365293 0.630754 -0.156154
C52   C     C_R   0.492885 0.303543 0.617264 0.160952
H13   H     H_    0.978504 0.379115 0.798042 0.189983
H14   H     H_    0.792380 0.119246 0.700844 0.191257
O11   O     O_R   0.271890 0.085690 0.087580 -0.541266
O12   O     O_R   0.595690 0.070020 0.939870 -0.520754
O13   O     O_R   0.758900 0.914390 0.912370 -0.536220
C53   C     C_R   0.427174 0.084602 0.917807 0.751171
O14   O     O_R   0.602020 0.095100 0.088770 -0.538886
O15   O     O_R   0.765280 0.939660 0.062330 -0.546600
C54   C     C_R   0.432796 0.118890 0.116648 0.703887
O16   O     O_R   0.265520 0.060430 0.937620 -0.547213
O17   O     O_3   0.429560 0.949050 0.991100 -0.370242
V3    V     V_3+5 0.707160 0.009450 0.001650 1.478977
O18   O     O_R   0.094540 0.929890 0.060190 -0.540665
C55   C     C_R   0.925363 0.915027 0.081812 0.710275
O19   O     O_R   0.088200 0.904800 0.911290 -0.533188
C56   C     C_R   0.917972 0.882435 0.882655 0.767929
V4    V     V_3+5 0.206300 0.990390 0.998440 1.468021
O20   O     O_3   0.934030 0.050940 0.008900 -0.370918
I1    I     I_    0.561039 0.611788 0.779411 -0.380705
N1    N     N_3   0.028508 0.702145 0.861987 -0.626396
H15   H     H_    0.046460 0.639938 0.841505 0.286857
H16   H     H_    0.922569 0.713447 0.902602 0.229324
N2    N     N_3   0.339373 0.105556 0.274390 -0.677902
H17   H     H_    0.313450 0.118534 0.330562 0.244314
H18   H     H_    0.471434 0.075988 0.263263 0.217547
N3    N     N_3   0.753739 0.262541 0.198871 -0.654754
H19   H     H_    0.824690 0.310450 0.238550 0.223726
H20   H     H_    0.826625 0.210077 0.195810 0.226470
I2    I     I_    0.740225 0.020110 0.782559 -0.387689
N4    N     N_3   0.175528 0.220429 0.950282 -0.613752
H21   H     H_    0.271722 0.229893 0.994464 0.225629
H22   H     H_    0.074161 0.175793 0.949624 0.271367
I3    I     I_    0.860759 0.313109 0.909649 -0.361945
I4    I     I_    0.029082 0.477585 0.715992 -0.377007
N5    N     N_3   0.599564 0.280235 0.549824 -0.621627
H23   H     H_    0.504680 0.270857 0.505266 0.217296
H24   H     H_    0.700450 0.325340 0.551341 0.272300
I5    I     I_    0.910735 0.185254 0.589266 -0.384348
N6    N     N_3   0.566575 0.566096 0.299485 -0.680032
H25   H     H_    0.469465 0.582141 0.343200 0.246082
H26   H     H_    0.627748 0.510557 0.294088 0.224434
N7    N     N_3   0.141031 0.710695 0.440329 -0.581332
H27   H     H_    0.063234 0.720991 0.488990 0.247612
H28   H     H_    0.232646 0.661982 0.432037 0.249722
N8    N     N_3   0.337772 0.805190 0.386894 -0.591698
H29   H     H_    0.342413 0.866203 0.418987 0.257053
H30   H     H_    0.468885 0.791464 0.359020 0.232343
I6    I     I_    0.704436 0.811167 0.608586 -0.356280

loop_
_geom_bond_atom_site_label_1
_geom_bond_atom_site_label_2
_ccdc_geom_bond_type
C9    C14   A    
V4    O20   S    
C10   C17   A    
C34   H11   S    
C23   C24   S    
N5    H23   S    
C4    C19   S    
C1    O6    A    
C24   I1    S    
C22   C23   S    
C32   C33   S    
C31   C32   S    
C30   N2    S    
C38   C39   A    
C5    H1    S    
C31   C54   S    
O11   V4    S    
C45   C46   A    
O5    C3    A    
C47   C52   A    
C28   C56   S    
N4    H21   S    
C41   C46   A    
C48   I5    S    
C13   C18   A    
C29   C36   S    
C35   C36   S    
C6    C7    A    
N7    H27   S    
O13   C56   A    
O8    V2    S    
C37   C42   A    
C43   I3    S    
C7    C8    A    
C44   C45   A    
N6    H26   S    
N1    H16   S    
C1    C36   S    
C30   C31   S    
C49   H14   S    
C46   C47   A    
O1    V2    S    
C37   I2    S    
O7    V1    S    
C26   H7    S    
C22   C27   S    
O14   V3    S    
C38   C53   S    
O9    C4    A    
N3    H19   S    
O15   C55   A    
C25   N1    S    
C18   N6    S    
C21   C22   S    
V3    O20   S    
N8    H30   S    
C50   C51   A    
C43   C44   A    
C6    C55   S    
C40   C43   A    
C12   C13   A    
O12   C53   A    
O19   C56   A    
O4    C2    A    
C16   N8    S    
C2    C51   S    
C29   H9    S    
C13   C14   A    
C53   O16   A    
C42   C49   A    
C30   C35   S    
C22   I6    S    
C35   H12   S    
O2    C1    A    
C51   C52   A    
O5    V1    S    
C3    C23   S    
O16   V4    S    
O19   V4    S    
C19   C20   A    
C8    C11   A    
C32   N3    S    
C11   C12   A    
N1    H15   S    
C34   C35   S    
C5    C6    A    
C14   C15   A    
C45   C50   A    
N5    H24   S    
C12   H4    S    
C39   N4    S    
N3    H20   S    
N8    H29   S    
O3    C4    A    
O14   C54   A    
C41   C42   A    
O6    V2    S    
C11   H3    S    
O9    V2    S    
C25   C26   S    
C23   C26   S    
C24   C25   S    
O2    V1    S    
O11   C54   A    
C26   C27   S    
C33   H10   S    
C27   H8    S    
C44   H13   S    
C33   C34   S    
C16   C17   A    
N2    H18   S    
C15   C20   A    
O1    C2    A    
O15   V3    S    
C20   N7    S    
C48   C49   A    
C7    H2    S    
C50   I4    S    
O8    C3    A    
C31   C34   S    
C21   C24   S    
C5    C10   A    
N2    H17   S    
C40   C41   A    
O7    V2    S    
C47   C48   A    
O12   V3    S    
O3    V1    S    
V1    O10   S    
C21   H6    S    
C18   C19   A    
N4    H22   S    
C52   N5    S    
C29   C32   S    
V2    O10   S    
O17   V4    S    
O18   V4    S    
C37   C38   A    
C25   C28   S    
N7    H28   S    
C21   C28   S    
O13   V3    S    
C39   C40   A    
C27   C28   S    
O4    V1    S    
C8    C9    A    
O17   V3    S    
C29   C30   S    
C17   H5    S    
C15   C16   A    
O18   C55   A    
C9    C10   A    
N6    H25   S    
C33   C36   S    
