data_mof_unit_50046.cif
_audit_creation_date              2012-12-11T14:13:27-0500
_audit_creation_method            fapswitch 2.2
_symmetry_space_group_name_H-M    P1
_symmetry_Int_Tables_number       1
_space_group_crystal_system       triclinic
_cell_length_a                    11.774934
_cell_length_b                    18.507806
_cell_length_c                    10.072935
_cell_angle_alpha                 90.200683
_cell_angle_beta                  111.482945
_cell_angle_gamma                 89.764419
_cell_volume                      2042.64823488

loop_
_atom_site_label
_atom_site_type_symbol
_atom_type_description
_atom_site_fract_x
_atom_site_fract_y
_atom_site_fract_z
_atom_type_partial_charge
C1    C     C_R   0.072525 0.646840 0.139583 0.541174
C2    C     C_2   0.634485 0.062137 0.978927 0.236495
C3    C     C_2   0.586670 0.427834 0.069312 0.213609
C4    C     C_2   0.363854 0.562199 0.024589 0.245620
C5    C     C_2   0.527870 0.953294 0.000058 0.077920
C6    C     C_2   0.546430 0.031771 0.016355 0.085261
C7    C     C_2   0.469369 0.451375 0.007333 0.088416
C8    C     C_2   0.448093 0.529459 0.983126 0.086806
C9    C     C_2   0.019020 0.925082 0.116532 -0.102622
C10   C     C_2   0.993459 0.078820 0.888971 -0.118769
C11   C     C_2   0.981707 0.424393 0.885239 -0.111377
C12   C     C_R   0.924852 0.354196 0.859660 0.553797
C13   C     C_2   0.006429 0.579277 0.111162 -0.118515
C14   C     C_2   0.034163 0.966297 0.016097 -0.151942
C15   C     C_2   0.996858 0.040923 0.002665 -0.157484
C16   C     C_2   0.966478 0.466090 0.985457 -0.142086
C17   C     C_2   0.005191 0.540316 0.999252 -0.158528
C18   C     C_R   0.467805 0.645920 0.439572 0.533559
C19   C     C_R   0.531823 0.353023 0.557572 0.524156
C20   C     C_R   0.532608 0.145787 0.560161 0.532208
C21   C     C_R   0.467662 0.853329 0.441960 0.525590
C22   C     C_R   0.349857 0.640483 0.017484 0.555218
C23   C     C_R   0.927296 0.146622 0.860264 0.541577
C24   C     C_R   0.622697 0.355617 0.035059 0.517143
C25   C     C_R   0.649876 0.140157 0.983050 0.555709
C26   C     C_R   0.377025 0.855711 0.965696 0.518011
C27   C     C_R   0.508016 0.423003 0.480116 -0.005742
C28   C     C_R   0.492285 0.573427 0.506286 -0.013691
C29   C     C_R   0.491279 0.923749 0.518058 -0.005622
C30   C     C_R   0.507698 0.073682 0.489901 -0.015272
C31   C     C_R   0.291825 0.412209 0.421547 -0.109457
C32   C     C_R   0.711252 0.583279 0.565071 -0.141660
C33   C     C_R   0.708989 0.912196 0.572908 -0.126044
C34   C     C_R   0.075171 0.854371 0.140730 0.561609
C35   C     C_R   0.290762 0.086032 0.434775 -0.123664
C36   C     C_R   0.197140 0.431779 0.465204 0.255860
C37   C     C_R   0.820343 0.554989 0.562776 0.302873
C38   C     C_R   0.806734 0.932973 0.535422 0.304546
C39   C     C_R   0.188421 0.064511 0.461626 0.248470
C40   C     C_R   0.205536 0.497523 0.538356 0.325593
C41   C     C_R   0.822014 0.484737 0.513732 0.321994
C42   C     C_R   0.800357 0.998396 0.464718 0.299903
C43   C     C_R   0.189107 0.996618 0.523448 0.352443
C44   C     C_R   0.294654 0.548930 0.541894 -0.002964
C45   C     C_R   0.396056 0.455333 0.458965 -0.022671
C46   C     C_R   0.717253 0.440946 0.472513 0.015428
C47   C     C_R   0.705219 0.048829 0.453314 -0.036553
C48   C     C_R   0.284040 0.946424 0.538187 0.053905
C49   C     C_R   0.391996 0.528211 0.497472 -0.026933
C50   C     C_R   0.609578 0.467287 0.489917 0.008943
C51   C     C_R   0.607700 0.028012 0.497304 -0.009631
C52   C     C_R   0.389567 0.969054 0.509404 -0.008250
C53   C     C_3   0.295528 0.616933 0.624215 -0.289472
C54   C     C_3   0.719823 0.372633 0.389951 -0.309567
C55   C     C_3   0.697610 0.115969 0.367444 -0.352782
C56   C     C_R   0.604445 0.541363 0.521213 -0.034277
C57   C     C_3   0.276559 0.874926 0.607400 -0.262354
C58   C     C_3   0.465769 0.073647 0.079307 -0.377723
C59   C     C_3   0.638173 0.905884 0.078689 -0.340354
C60   C     C_3   0.522803 0.568320 0.909349 -0.386686
C61   C     C_3   0.360523 0.401888 0.937711 -0.361050
C62   C     C_R   0.603749 0.955372 0.535714 -0.021692
C63   C     C_R   0.395559 0.042456 0.475159 -0.041979
C64   C     C_2   0.411835 0.928368 0.934271 0.215713
Cr1   Cr    Cr6+3 0.187610 0.750000 0.979860 1.010064
Cr2   Cr    Cr6+3 0.812390 0.250000 0.020140 1.000867
Cr3   Cr    Cr6+3 0.245810 0.750000 0.341640 0.994440
Cr4   Cr    Cr6+3 0.754190 0.250000 0.658360 0.981896
Cr5   Cr    Cr6+3 0.485760 0.750000 0.219910 1.021364
Cr6   Cr    Cr6+3 0.514240 0.250000 0.780090 1.016942
H1    H     H_    0.292099 0.358895 0.376545 0.105277
H2    H     H_    0.980554 0.946931 0.191351 0.166954
H3    H     H_    0.974532 0.556833 0.190925 0.155890
H4    H     H_    0.021029 0.445680 0.811568 0.127663
H5    H     H_    0.111379 0.341180 0.397260 0.312720
H6    H     H_    0.909786 0.643693 0.636361 0.302331
H7    H     H_    0.894921 0.843133 0.604543 0.301920
H8    H     H_    0.104453 0.155846 0.393389 0.316026
H9    H     H_    0.134988 0.462515 0.669158 0.339143
H10   H     H_    0.937434 0.409360 0.531171 0.340328
H11   H     H_    0.884606 0.057861 0.368705 0.351467
H12   H     H_    0.709498 0.638413 0.600984 0.103292
H13   H     H_    0.070427 0.024482 0.605696 0.371417
H14   H     H_    0.381480 0.647714 0.655584 0.103831
H15   H     H_    0.216901 0.651973 0.563954 0.192345
H16   H     H_    0.286615 0.600668 0.724108 0.188581
H17   H     H_    0.772955 0.328884 0.460526 0.157714
H18   H     H_    0.626807 0.353542 0.324352 0.124781
H19   H     H_    0.771389 0.382754 0.320935 0.184910
H20   H     H_    0.611394 0.146386 0.340851 0.131244
H21   H     H_    0.775727 0.152328 0.422108 0.168179
H22   H     H_    0.700191 0.097793 0.265369 0.147700
H23   H     H_    0.709211 0.858799 0.617015 0.104010
H24   H     H_    0.219752 0.835704 0.528228 0.181060
H25   H     H_    0.368261 0.852498 0.669480 0.104129
H26   H     H_    0.226125 0.880401 0.678852 0.206028
H27   H     H_    0.458480 0.043317 0.170785 0.115478
H28   H     H_    0.499538 0.128122 0.117762 0.124881
H29   H     H_    0.373058 0.082143 0.998891 0.197153
H30   H     H_    0.725773 0.934834 0.103562 0.184910
H31   H     H_    0.637242 0.889636 0.184195 0.165419
H32   H     H_    0.640373 0.857874 0.013196 0.130175
H33   H     H_    0.517672 0.537721 0.812392 0.110829
H34   H     H_    0.292555 0.139667 0.392543 0.105143
H35   H     H_    0.492700 0.624129 0.877316 0.126627
H36   H     H_    0.619844 0.572918 0.979720 0.195660
H37   H     H_    0.272700 0.428401 0.925024 0.164489
H38   H     H_    0.353799 0.387163 0.828156 0.149126
H39   H     H_    0.367810 0.352795 0.003495 0.128485
H40   H     H_    0.741339 0.052817 0.871777 0.318582
H41   H     H_    0.242315 0.959953 0.855890 0.336686
H42   H     H_    0.264522 0.557257 0.141460 0.318389
H43   H     H_    0.755567 0.460584 0.146008 0.332170
H44   H     H_    0.961813 0.062887 0.080586 0.185053
H45   H     H_    0.076679 0.945321 0.944468 0.165796
H46   H     H_    0.042461 0.561223 0.922858 0.200464
H47   H     H_    0.922676 0.445924 0.056059 0.164271
H48   H     H_    0.023514 0.055292 0.808474 0.120952
O1    O     O_R   0.267710 0.668200 0.902110 -0.540323
O2    O     O_R   0.883280 0.330790 0.732340 -0.535852
O3    O     O_R   0.883280 0.169210 0.732340 -0.506149
O4    O     O_R   0.116720 0.830790 0.267660 -0.507247
O5    O     O_R   0.366710 0.675440 0.427590 -0.521815
O6    O     O_R   0.633290 0.324560 0.572410 -0.518232
O7    O     O_R   0.633290 0.175440 0.572410 -0.514106
O8    O     O_R   0.366710 0.824560 0.427590 -0.525512
O9    O     O_R   0.534870 0.669390 0.371760 -0.497367
O10   O     O_R   0.465130 0.330610 0.628240 -0.516200
O11   O     O_R   0.465130 0.169390 0.628240 -0.499768
O12   O     O_R   0.732290 0.331800 0.097890 -0.537133
O13   O     O_R   0.534870 0.830610 0.371760 -0.516987
O14   O     O_R   0.453080 0.674480 0.075160 -0.504651
O15   O     O_R   0.546920 0.325520 0.924840 -0.515379
O16   O     O_R   0.546920 0.174480 0.924840 -0.507402
O17   O     O_R   0.453080 0.825520 0.075160 -0.519693
O18   O     O_3   0.306390 0.750000 0.180470 -0.276253
O19   O     O_3   0.693610 0.250000 0.819530 -0.269562
O20   O     O_3   0.103089 0.384629 0.450984 -0.703539
O21   O     O_3   0.925927 0.595445 0.603757 -0.620123
O22   O     O_3   0.904081 0.887135 0.553474 -0.619461
O23   O     O_R   0.732290 0.168200 0.097890 -0.551533
O24   O     O_3   0.090292 0.110539 0.437246 -0.730579
O25   O     O_3   0.138479 0.509218 0.622974 -0.615266
O26   O     O_3   0.926493 0.460400 0.499612 -0.603888
O27   O     O_3   0.881131 0.007019 0.395308 -0.645824
O28   O     O_3   0.101027 0.979227 0.577694 -0.625521
O29   O     O_3   0.695515 0.020344 0.911961 -0.740089
O30   O     O_3   0.322374 0.976819 0.857179 -0.736801
O31   O     O_3   0.307764 0.523139 0.100259 -0.738012
O32   O     O_3   0.675098 0.477255 0.144497 -0.726408
O33   O     O_R   0.267710 0.831800 0.902110 -0.537324
O34   O     O_R   0.099480 0.674460 0.038850 -0.522891
O35   O     O_R   0.900520 0.325540 0.961150 -0.494854
O36   O     O_R   0.900520 0.174460 0.961150 -0.522642
O37   O     O_R   0.099480 0.825540 0.038850 -0.501055
O38   O     O_R   0.116720 0.669210 0.267660 -0.501938

loop_
_geom_bond_atom_site_label_1
_geom_bond_atom_site_label_2
_ccdc_geom_bond_type
C24   O15   A    
C44   C49   A    
C30   C51   A    
C6    C58   S    
C58   H28   S    
C9    H2    S    
C20   O11   A    
C4    C8    D    
C61   H39   S    
Cr4   O6    S    
C28   C56   A    
C48   C57   S    
C23   O3    A    
Cr2   O23   S    
C20   C30   S    
C34   O37   A    
C4    O31   S    
C51   C62   A    
C53   H14   S    
C26   O33   A    
C38   C42   A    
C55   H20   S    
C3    C7    D    
C10   C15   D    
H8    O24   S    
C54   H17   S    
C14   H45   S    
C19   O10   A    
C1    O34   A    
C11   C16   D    
C61   H38   S    
C26   C64   S    
C7    C61   S    
C36   C40   A    
C55   H21   S    
C26   O17   A    
C12   O2    A    
C44   C53   S    
H9    O25   S    
C16   C17   S    
H10   O26   S    
C57   H26   S    
Cr6   O15   S    
C41   C46   A    
H7    O22   S    
C53   H16   S    
C60   H33   S    
C19   C27   S    
C43   C48   A    
C12   O35   A    
C31   C36   A    
C27   C50   A    
C18   O5    A    
C27   C45   A    
C31   H1    S    
C34   O4    A    
C30   C63   A    
C64   O30   S    
C59   H30   S    
Cr4   O19   S    
C2    C6    D    
C58   H27   S    
H41   O30   S    
C22   O1    A    
C19   O6    A    
C5    C59   S    
C59   H31   S    
C7    C8    S    
C18   C28   S    
C54   H19   S    
C35   H34   S    
Cr3   O8    S    
Cr2   O36   S    
C33   C62   A    
C39   C43   A    
C2    O29   S    
C21   C29   S    
C11   H4    S    
Cr6   O11   S    
C50   C56   A    
C5    C64   D    
Cr3   O5    S    
Cr3   O38   S    
Cr1   O33   S    
C1    O38   A    
C35   C39   A    
C9    C14   D    
C55   H22   S    
C10   H48   S    
C18   O9    A    
H13   O28   S    
C4    C22   S    
C28   C49   A    
C39   O24   S    
C45   C49   A    
Cr5   O13   S    
C46   C54   S    
Cr1   O1    S    
C15   H44   S    
C32   C37   A    
C25   O16   A    
C41   O26   S    
C13   H3    S    
Cr5   O18   S    
H11   O27   S    
C57   H24   S    
C57   H25   S    
C9    C34   S    
C23   O36   A    
C1    C13   S    
C31   C45   A    
H40   O29   S    
Cr3   O4    S    
C60   H36   S    
C47   C55   S    
H6    O21   S    
Cr6   O10   S    
C29   C62   A    
C3    O32   S    
C22   O14   A    
C14   C15   S    
C59   H32   S    
H43   O32   S    
C25   O23   A    
C58   H29   S    
C3    C24   S    
C52   C63   A    
C33   H23   S    
Cr4   O3    S    
Cr2   O35   S    
C47   C51   A    
C11   C12   S    
C10   C23   S    
C32   H12   S    
C46   C50   A    
C33   C38   A    
C13   C17   D    
Cr1   O34   S    
Cr3   O18   S    
C20   O7    A    
Cr1   O37   S    
C43   O28   S    
C16   H47   S    
Cr4   O2    S    
C54   H18   S    
C5    C6    S    
Cr2   O19   S    
Cr5   O14   S    
C21   O13   A    
C35   C63   A    
C2    C25   S    
C42   C47   A    
C37   C41   A    
C61   H37   S    
Cr1   O18   S    
H5    O20   S    
C24   O12   A    
C40   C44   A    
Cr5   O9    S    
Cr6   O19   S    
Cr5   O17   S    
C37   O21   S    
C40   O25   S    
Cr6   O16   S    
C38   O22   S    
H42   O31   S    
C53   H15   S    
C21   O8    A    
C48   C52   A    
C42   O27   S    
C36   O20   S    
Cr4   O7    S    
C32   C56   A    
C8    C60   S    
C60   H35   S    
C17   H46   S    
Cr2   O12   S    
C29   C52   A    
