data_mof_unit_37744.cif
_audit_creation_date              2013-03-05T15:45:29-0500
_audit_creation_method            fapswitch 2.2
_symmetry_space_group_name_H-M    P1
_symmetry_Int_Tables_number       1
_space_group_crystal_system       triclinic
_cell_length_a                    20.666465
_cell_length_b                    7.119342
_cell_length_c                    20.424512
_cell_angle_alpha                 90.96049
_cell_angle_beta                  101.55188
_cell_angle_gamma                 90.701903
_cell_volume                      2943.43266798

loop_
_atom_site_label
_atom_site_type_symbol
_atom_site_description
_atom_site_fract_x
_atom_site_fract_y
_atom_site_fract_z
_atom_type_partial_charge
O1    O     O_R   0.423690 0.494470 0.435930 -0.593076
O2    O     O_R   0.576310 0.994470 0.564070 -0.575937
O3    O     O_R   0.556070 0.822310 0.435760 -0.560217
O4    O     O_R   0.443930 0.322310 0.564240 -0.574069
C1    C     C_R   0.575648 0.655289 0.420899 0.977180
C2    C     C_R   0.424593 0.155850 0.579488 0.970163
O5    O     O_R   0.422940 0.824080 0.428040 -0.576689
O6    O     O_R   0.577060 0.324080 0.571960 -0.582920
O7    O     O_R   0.442240 0.995960 0.556300 -0.586940
O8    O     O_R   0.557760 0.495960 0.443700 -0.596906
C3    C     C_R   0.399083 0.652501 0.410525 1.024146
C4    C     C_R   0.600744 0.157472 0.590164 1.022261
O9    O     O_3   0.506490 0.661310 0.542090 -0.252733
O10   O     O_3   0.493510 0.161310 0.457910 -0.265402
V1    V     V_3+5 0.498800 0.935560 0.492190 1.289550
V2    V     V_3+5 0.501200 0.435560 0.507810 1.272423
C5    C     C_R   0.838116 0.078331 0.857174 -0.529270
C6    C     C_R   0.163407 0.605586 0.140268 -0.525769
C7    C     C_R   0.660812 0.156255 0.644587 -0.344561
C8    C     C_R   0.339525 0.628147 0.356442 -0.355978
C9    C     C_R   0.771458 0.282284 0.689278 0.692641
C10   C     C_R   0.238331 0.447110 0.313373 0.684832
C11   C     C_R   0.714092 0.273828 0.639440 -0.328325
C12   C     C_R   0.292527 0.491683 0.364332 -0.302883
C13   C     C_R   0.664102 0.047673 0.702482 0.398793
C14   C     C_R   0.332433 0.722600 0.295411 0.367980
C15   C     C_R   0.721553 0.057634 0.755151 -0.318950
C16   C     C_R   0.277296 0.679580 0.242430 -0.300513
C17   C     C_R   0.777137 0.168612 0.746496 -0.267590
C18   C     C_R   0.228345 0.545673 0.252544 -0.232751
C19   C     C_R   0.836915 0.164915 0.795538 0.504203
C20   C     C_R   0.171018 0.511794 0.201503 0.486567
C21   C     C_R   0.780547 0.990977 0.869000 0.383974
C22   C     C_R   0.211794 0.738309 0.130784 0.386876
C23   C     C_R   0.724656 0.964829 0.816955 0.488216
C24   C     C_R   0.270535 0.763081 0.178971 0.441272
H1    H     H_    0.711440 0.360244 0.595812 0.172928
H2    H     H_    0.298139 0.416491 0.410806 0.171681
C25   C     C_3   0.273908 0.267995 0.830478 0.595434
C26   C     C_3   0.726085 0.750258 0.170871 0.593442
C27   C     C_3   0.242711 0.937906 0.787202 -0.366603
C28   C     C_3   0.759297 0.428622 0.214774 -0.372130
C29   C     C_3   0.285432 0.947280 0.732605 -0.373472
C30   C     C_3   0.716896 0.439743 0.269755 -0.365746
H3    H     H_    0.202800 0.830897 0.771871 0.258479
H4    H     H_    0.799849 0.327790 0.230065 0.257415
H5    H     H_    0.272962 0.888988 0.834745 0.290210
H6    H     H_    0.729066 0.371102 0.167516 0.288330
H7    H     H_    0.332079 0.870492 0.748129 0.289706
H8    H     H_    0.670749 0.355441 0.254941 0.287096
H9    H     H_    0.259294 0.871799 0.686742 0.237487
H10   H     H_    0.743815 0.373309 0.315853 0.236700
C31   C     C_1   0.380383 0.149900 0.626364 -0.153223
C32   C     C_1   0.620505 0.647189 0.374782 -0.158021
C33   C     C_3   0.212060 0.132263 0.797322 -0.173697
C34   C     C_3   0.788766 0.625146 0.203942 -0.173153
C35   C     C_3   0.327763 0.269684 0.781385 0.370577
C36   C     C_3   0.672554 0.751873 0.220202 0.385310
C37   C     C_3   0.297670 0.153881 0.714125 -0.241551
C38   C     C_3   0.703622 0.647132 0.287593 -0.247128
C39   C     C_3   0.227830 0.225116 0.679177 0.069769
C40   C     C_3   0.773196 0.729824 0.321991 0.067401
C41   C     C_3   0.175642 0.186513 0.723848 0.120394
C42   C     C_3   0.825339 0.691369 0.277144 0.128903
C43   C     C_1   0.343343 0.150116 0.665698 0.244447
C44   C     C_1   0.658007 0.644944 0.335971 0.240002
C45   C     C_1   0.162780 0.105216 0.841147 0.193330
C46   C     C_1   0.837788 0.600535 0.159633 0.188972
C47   C     C_1   0.122603 0.089507 0.876973 -0.220817
C48   C     C_1   0.877605 0.588190 0.123240 -0.237070
H11   H     H_    0.148598 0.056094 0.702062 0.098363
H12   H     H_    0.852962 0.566203 0.299223 0.096964
H13   H     H_    0.211726 0.137793 0.632697 0.115114
H14   H     H_    0.789881 0.650072 0.368817 0.115579
O11   O     O_R   0.942280 0.741210 0.056360 -0.565648
O12   O     O_R   0.057720 0.241210 0.943640 -0.577630
O13   O     O_R   0.077070 0.409690 0.071960 -0.592241
O14   O     O_R   0.922930 0.909690 0.928040 -0.592791
C49   C     C_R   0.101981 0.581461 0.088159 1.079643
C50   C     C_R   0.899202 0.076692 0.910132 1.101253
O15   O     O_R   0.943940 0.411580 0.064250 -0.589148
O16   O     O_R   0.056060 0.911580 0.935750 -0.572531
O17   O     O_R   0.923670 0.239840 0.935920 -0.583452
O18   O     O_R   0.076330 0.739840 0.064080 -0.581100
C51   C     C_R   0.924064 0.579889 0.078645 0.937803
C52   C     C_R   0.075707 0.079871 0.921044 0.936090
O19   O     O_3   0.993540 0.572620 0.957940 -0.268913
O20   O     O_3   0.006460 0.072620 0.042060 -0.284854
V3    V     V_3+5 0.001200 0.298330 0.007800 1.212713
V4    V     V_3+5 0.998800 0.798330 0.992200 1.231380
O21   O     O_3   0.894339 0.247481 0.783875 -0.581842
C53   C     C_3   0.927850 0.112073 0.752561 -0.017836
H15   H     H_    0.971640 0.180133 0.739007 0.212374
H16   H     H_    0.896516 0.055102 0.705443 0.120033
H17   H     H_    0.945556 0.995638 0.786947 0.065901
O22   O     O_3   0.121614 0.388732 0.211418 -0.602156
C54   C     C_3   0.074051 0.491019 0.237533 0.026429
H18   H     H_    0.096249 0.563875 0.285580 0.135906
H19   H     H_    0.035774 0.391187 0.247663 0.171415
H20   H     H_    0.048839 0.594425 0.201219 0.060832
N1    N     N_R   0.122529 0.326856 0.716306 0.297895
O23   O     O_R   0.096757 0.380731 0.656221 -0.312380
O24   O     O_R   0.086106 0.344922 0.761003 -0.364657
N2    N     N_R   0.877956 0.837720 0.283854 0.300621
O25   O     O_R   0.902362 0.905577 0.343409 -0.311995
O26   O     O_R   0.916023 0.847344 0.240409 -0.365231
N3    N     N_R   0.229304 0.419807 0.657415 0.295780
O27   O     O_R   0.219743 0.558188 0.696362 -0.366839
O28   O     O_R   0.233225 0.454294 0.595945 -0.353963
N4    N     N_R   0.770823 0.926889 0.342780 0.295651
O29   O     O_R   0.779130 0.060729 0.302797 -0.369172
O30   O     O_R   0.767732 0.969213 0.404301 -0.352253
N5    N     N_R   0.253275 0.462094 0.843474 0.215980
O31   O     O_R   0.291283 0.566402 0.888794 -0.350571
O32   O     O_R   0.192340 0.512715 0.825488 -0.380303
N6    N     N_R   0.745937 0.944718 0.157292 0.210663
O33   O     O_R   0.706634 0.041862 0.113062 -0.377719
O34   O     O_R   0.806952 0.002211 0.173857 -0.398761
N7    N     N_R   0.346597 0.465875 0.767919 0.241604
O35   O     O_R   0.353719 0.514736 0.708624 -0.363069
O36   O     O_R   0.378492 0.568299 0.817675 -0.263634
N8    N     N_R   0.652647 0.947497 0.233140 0.245385
O37   O     O_R   0.646078 0.002957 0.292463 -0.360324
O38   O     O_R   0.619459 0.040077 0.183325 -0.259052
O39   O     O_3   0.778181 0.935289 0.932960 -0.640153
C55   C     C_3   0.758315 0.090354 0.967958 -0.135286
H21   H     H_    0.703535 0.095455 0.958693 0.200904
H22   H     H_    0.778677 0.228266 0.955552 0.084799
H23   H     H_    0.777219 0.072765 0.022085 0.197369
O40   O     O_3   0.203452 0.836306 0.071658 -0.610497
C56   C     C_3   0.191153 0.026754 0.085026 -0.055685
H24   H     H_    0.236579 0.101417 0.111583 0.146055
H25   H     H_    0.151115 0.042009 0.113962 0.146194
H26   H     H_    0.174866 0.098072 0.036911 0.097756
O41   O     O_3   0.822161 0.402023 0.680682 -0.575154
C57   C     C_3   0.811081 0.581217 0.706555 -0.104013
H27   H     H_    0.812286 0.576849 0.761239 0.112483
H28   H     H_    0.763593 0.640407 0.679954 0.110290
H29   H     H_    0.851329 0.678061 0.699109 0.166453
O42   O     O_3   0.194066 0.310273 0.324885 -0.601753
C58   C     C_3   0.218788 0.132540 0.311972 -0.056713
H30   H     H_    0.264113 0.100937 0.349423 0.129040
H31   H     H_    0.228536 0.121476 0.260335 0.133491
H32   H     H_    0.181025 0.023753 0.316183 0.154243
O43   O     O_3   0.670218 0.868252 0.830006 -0.556746
C59   C     C_3   0.683694 0.674154 0.832724 0.009407
H33   H     H_    0.721209 0.639917 0.877795 0.102589
H34   H     H_    0.699720 0.622446 0.786841 0.084615
H35   H     H_    0.637605 0.596551 0.835948 0.195896
O44   O     O_3   0.320739 0.872962 0.163299 -0.600438
C60   C     C_3   0.357909 0.760935 0.127243 0.071851
H36   H     H_    0.328003 0.714740 0.077966 0.122678
H37   H     H_    0.378580 0.636919 0.156356 0.132649
H38   H     H_    0.400133 0.846394 0.117591 0.198742
N9    N     N_R   0.608151 0.932684 0.707859 0.260313
O45   O     O_R   0.555388 0.010300 0.720930 -0.329755
O46   O     O_R   0.605555 0.757919 0.687759 -0.384481
N10   N     N_R   0.381832 0.859098 0.287580 0.262764
O47   O     O_R   0.368604 0.037257 0.287766 -0.376798
O48   O     O_R   0.441942 0.806822 0.287594 -0.353521
N11   N     N_R   0.390833 0.178247 0.812858 0.273987
O49   O     O_R   0.446450 0.239142 0.799644 -0.272527
O50   O     O_R   0.392240 0.022831 0.845822 -0.283936
N12   N     N_R   0.609909 0.649653 0.189350 0.268296
O51   O     O_R   0.553965 0.706915 0.202020 -0.298075
O52   O     O_R   0.609230 0.489778 0.157253 -0.295773
O53   O     O_3   0.307476 0.193051 0.892797 -0.584674
C61   C     C_3   0.275044 0.205307 0.947623 0.007320
H39   H     H_    0.257382 0.063031 0.957923 0.131819
H40   H     H_    0.233288 0.304165 0.941709 0.110261
H41   H     H_    0.311612 0.252749 0.992510 0.167505
O54   O     O_3   0.692307 0.664926 0.108984 -0.592524
C62   C     C_3   0.724198 0.672666 0.053832 0.054393
H42   H     H_    0.741205 0.530094 0.043294 0.086639
H43   H     H_    0.766422 0.772642 0.059835 0.117893
H44   H     H_    0.687619 0.714894 0.009239 0.183507

loop_
_geom_bond_atom_site_label_1
_geom_bond_atom_site_label_2
_geom_bond_distance
_ccdc_geom_bond_type
C18   C20   1.427755 A    
N1    O23   1.302243 A    
C13   N9    1.431767 S    
N3    O28   1.301435 A    
O1    C3    1.312088 A    
C26   O54   1.436859 S    
C41   N1    1.480273 S    
C56   H26   1.106919 S    
O2    C4    1.320163 A    
C2    O7    1.309327 A    
N2    O26   1.300496 A    
N11   O49   1.303024 A    
O41   C57   1.411460 S    
C26   N6    1.485400 S    
C62   H42   1.109871 S    
O14   V4    2.011631 S    
O5    C3    1.327835 A    
O13   V3    1.978907 S    
N12   O52   1.302448 A    
C55   H21   1.110973 S    
C5    C21   1.400939 A    
N12   O51   1.302977 A    
C30   C38   1.555605 S    
C59   H33   1.110953 S    
C58   H31   1.114366 S    
O43   C59   1.412784 S    
C49   O18   1.312663 A    
O14   C50   1.320938 A    
C35   C37   1.600306 S    
N9    O46   1.300726 A    
C36   C38   1.598438 S    
C25   C35   1.640537 S    
C10   O42   1.383179 S    
C15   C17   1.427864 A    
C38   C40   1.571115 S    
C28   H4    1.110249 S    
C60   H38   1.109227 S    
C39   C41   1.570501 S    
N4    O29   1.297120 A    
C27   C33   1.556576 S    
C40   C42   1.571410 S    
O11   V4    1.966286 S    
N11   O50   1.302433 A    
O19   V3    2.210226 S    
O11   C51   1.320416 A    
C61   H41   1.109764 S    
C25   C33   1.620881 S    
C8    C12   1.399310 A    
C6    C49   1.490357 S    
C26   C34   1.620388 S    
C33   C41   1.594323 S    
C12   H2    1.084200 S    
C60   H36   1.112613 S    
C34   C42   1.594978 S    
C31   C43   1.215598 T    
C29   C37   1.554861 S    
O12   V3    1.963116 S    
C35   N7    1.490129 S    
C28   C34   1.555919 S    
C30   H10   1.109624 S    
C61   H40   1.109330 S    
C38   C44   1.496146 S    
N1    O24   1.300069 A    
N10   O48   1.301127 A    
C27   C29   1.556530 S    
C28   C30   1.558200 S    
C57   H29   1.109273 S    
C7    C13   1.414275 A    
C53   H16   1.113954 S    
N2    O25   1.302290 A    
C54   H19   1.109250 S    
C54   H18   1.113243 S    
C59   H34   1.113175 S    
N7    O36   1.301557 A    
O17   V3    1.979156 S    
C3    C8    1.486275 S    
C37   C39   1.570796 S    
C36   N8    1.491307 S    
C1    C32   1.448833 S    
C26   C36   1.638765 S    
O42   C58   1.410782 S    
C57   H28   1.113640 S    
C58   H32   1.109325 S    
O53   C61   1.417588 S    
C29   H7    1.106818 S    
C55   H23   1.106049 S    
C25   N5    1.486364 S    
C34   C46   1.497441 S    
C9    C17   1.419002 A    
C5    C50   1.489182 S    
C45   C47   1.217033 T    
O4    V2    1.983280 S    
C7    C11   1.396724 A    
C59   H35   1.109182 S    
C40   N4    1.463243 S    
O6    C4    1.319420 A    
O22   C54   1.412630 S    
O3    C1    1.310965 A    
C21   O39   1.381519 S    
C27   H5    1.108414 S    
O13   C49   1.331456 A    
O1    V2    1.998102 S    
C28   H6    1.108437 S    
O2    V1    1.979447 S    
C6    C22   1.411001 A    
C16   C24   1.417094 A    
C36   N12   1.495861 S    
C62   H43   1.105495 S    
O4    C2    1.308331 A    
C61   H39   1.110095 S    
C20   O22   1.384877 S    
C41   H11   1.116377 S    
C19   O21   1.382564 S    
C9    C11   1.399361 A    
O39   C55   1.414362 S    
C5    C19   1.406873 A    
C10   C12   1.397063 A    
O19   V4    1.735270 S    
C6    C20   1.409471 A    
C53   H17   1.112787 S    
N3    O27   1.297641 A    
N8    O38   1.301571 A    
C56   H24   1.110073 S    
O12   C52   1.316026 A    
O21   C53   1.411062 S    
C54   H20   1.111973 S    
O3    V1    1.979354 S    
O54   C62   1.415925 S    
C50   O17   1.319334 A    
N5    O31   1.302582 A    
C62   H44   1.109237 S    
C30   H8    1.107076 S    
C42   N2    1.481420 S    
C23   O43   1.384495 S    
C55   H22   1.116334 S    
C10   C18   1.417268 A    
C39   H13   1.116726 S    
O10   V1    1.759717 S    
O20   V4    2.176374 S    
C57   H27   1.113131 S    
C56   H25   1.114308 S    
C33   C45   1.497183 S    
N7    O35   1.301404 A    
C32   C44   1.214610 T    
C13   C15   1.433813 A    
C14   C16   1.431672 A    
O16   V4    1.983424 S    
C15   C23   1.425006 A    
C16   C18   1.428859 A    
O40   C56   1.414685 S    
O7    V1    1.967802 S    
O15   V3    1.979492 S    
C1    O8    1.310192 A    
C17   C19   1.426986 A    
C11   H1    1.084057 S    
C58   H30   1.112262 S    
C37   C43   1.497874 S    
O16   C52   1.318927 A    
C24   O44   1.382921 S    
N10   O47   1.300878 A    
C8    C14   1.408851 A    
C29   H9    1.109676 S    
C4    C7    1.491528 S    
O5    V1    1.978997 S    
C53   H15   1.106576 S    
C21   C23   1.412488 A    
N6    O34   1.297658 A    
N6    O33   1.301919 A    
C14   N10   1.434729 S    
C22   C24   1.408495 A    
C60   H37   1.113869 S    
C25   O53   1.436740 S    
C39   N3    1.464483 S    
N4    O30   1.301419 A    
O18   V4    1.997682 S    
C35   N11   1.495043 S    
O20   V3    1.759294 S    
C22   O40   1.386588 S    
O6    V2    2.011747 S    
O9    V2    1.735668 S    
N9    O45   1.300804 A    
C46   C48   1.217342 T    
C27   H3    1.109928 S    
O44   C60   1.410812 S    
C40   H14   1.116662 S    
O8    V2    1.971131 S    
C2    C31   1.450527 S    
N8    O37   1.301375 A    
C48   C51   1.450802 S    
C9    O41   1.382867 S    
O15   C51   1.318934 A    
C47   C52   1.450550 S    
C42   H12   1.116315 S    
N5    O32   1.296518 A    
