data_mof_unit_19285.cif
_audit_creation_date              2012-10-26T21:32:57-0400
_audit_creation_method            fapswitch 2.2
_symmetry_space_group_name_H-M    P1
_symmetry_Int_Tables_number       1
_space_group_crystal_system       triclinic
_cell_length_a                    28.236244
_cell_length_b                    18.456756
_cell_length_c                    17.076391
_cell_angle_alpha                 89.823222
_cell_angle_beta                  60.741083
_cell_angle_gamma                 89.714043
_cell_volume                      7763.87346117

loop_
_atom_site_label
_atom_site_type_symbol
_atom_type_description
_atom_site_fract_x
_atom_site_fract_y
_atom_site_fract_z
_atom_type_partial_charge
C1    C     C_R   0.701859 0.268787 0.675850 0.896391
C2    C     C_R   0.976434 0.622030 0.422854 -0.216387
C3    C     C_R   0.073847 0.900141 0.934148 0.907071
C4    C     C_R   0.574110 0.599519 0.933831 0.908791
C5    C     C_R   0.425890 0.400477 0.066171 0.909180
C6    C     C_R   0.426142 0.599844 0.065861 0.910319
C7    C     C_R   0.573851 0.400153 0.934146 0.910003
C8    C     C_R   0.550001 0.007454 0.499764 0.014833
C9    C     C_R   0.454482 0.007663 0.484992 0.016331
C10   C     C_R   0.046981 0.497696 0.509620 0.020785
C11   C     C_R   0.953032 0.502305 0.490328 0.020775
C12   C     C_R   0.538294 0.067481 0.459456 0.048718
C13   C     C_R   0.921121 0.389389 0.572217 -0.213772
C14   C     C_R   0.464781 0.949328 0.529116 0.048296
C15   C     C_R   0.489979 0.067969 0.452988 0.047814
C16   C     C_R   0.513108 0.948978 0.536171 0.047281
C17   C     C_R   0.037953 0.557612 0.466044 0.048969
C18   C     C_R   0.962059 0.442391 0.533906 0.049186
C19   C     C_R   0.989860 0.561042 0.458774 0.045481
C20   C     C_R   0.010157 0.438954 0.541157 0.045779
C21   C     C_R   0.614618 0.944660 0.535746 0.069961
C22   C     C_R   0.393817 0.066640 0.438861 0.075779
C23   C     C_R   0.373827 0.944904 0.498654 0.064334
C24   C     C_R   0.078882 0.610628 0.427767 -0.213910
C25   C     C_R   0.634259 0.065795 0.473754 0.084146
C26   C     C_R   0.106634 0.434633 0.555555 0.075558
C27   C     C_R   0.893375 0.565368 0.444402 0.075471
C28   C     C_R   0.871508 0.443605 0.503473 0.053513
C29   C     C_R   0.128496 0.556401 0.496505 0.053298
C30   C     C_R   0.669089 0.939974 0.521346 -0.182893
C31   C     C_R   0.344556 0.066085 0.436218 -0.226062
C32   C     C_R   0.333952 0.939805 0.469835 -0.187883
C33   C     C_R   0.680904 0.064892 0.484037 -0.191551
C34   C     C_R   0.155366 0.434266 0.560919 -0.210035
C35   C     C_R   0.526497 0.891799 0.577503 -0.209192
C36   C     C_R   0.844637 0.565736 0.439058 -0.210188
C37   C     C_R   0.832961 0.439547 0.472175 -0.202934
C38   C     C_R   0.167040 0.560456 0.527812 -0.202605
C39   C     C_R   0.703508 0.999940 0.487138 -0.229409
C40   C     C_R   0.322641 0.000508 0.432132 -0.213613
C41   C     C_R   0.177067 0.499537 0.566676 -0.099937
C42   C     C_R   0.822930 0.500465 0.433313 -0.099904
C43   C     C_R   0.599492 0.005819 0.502956 0.079185
C44   C     C_R   0.407905 0.005989 0.473140 0.077762
C45   C     C_R   0.093522 0.496518 0.521552 0.076266
C46   C     C_R   0.475829 0.126748 0.414932 -0.214105
C47   C     C_R   0.906486 0.503485 0.478409 0.076404
C48   C     C_R   0.070931 0.375759 0.583431 -0.156774
C49   C     C_R   0.929087 0.624233 0.416491 -0.156643
C50   C     C_R   0.876701 0.390390 0.557984 -0.164482
C51   C     C_R   0.123300 0.609625 0.442005 -0.164944
C52   C     C_R   0.575889 0.889920 0.577531 -0.180723
C53   C     C_R   0.428733 0.126082 0.408562 -0.167709
C54   C     C_R   0.381131 0.891999 0.551334 -0.173965
C55   C     C_R   0.623029 0.123603 0.432131 -0.163430
C56   C     C_2   0.764205 0.995199 0.439539 1.028093
C57   C     C_R   0.425636 0.893765 0.565562 -0.215531
C58   C     C_2   0.292852 0.996446 0.380307 0.998659
C59   C     C_2   0.205705 0.502875 0.620109 0.960519
C60   C     C_2   0.794286 0.497123 0.379889 0.960711
C61   C     C_R   0.576414 0.124367 0.424614 -0.216576
C62   C     C_R   0.721023 0.266051 0.953414 0.112552
C63   C     C_R   0.278897 0.733860 0.046685 0.109088
C64   C     C_R   0.279381 0.264766 0.046333 0.113103
C65   C     C_R   0.298161 0.731260 0.324139 0.884430
C66   C     C_R   0.720601 0.735232 0.953697 0.111413
C67   C     C_R   0.220958 0.765901 0.953452 0.110993
C68   C     C_R   0.778870 0.233857 0.046746 0.112892
C69   C     C_R   0.779334 0.764846 0.046393 0.112701
C70   C     C_R   0.220583 0.235311 0.953693 0.111363
C71   C     C_R   0.744502 0.197381 0.946160 -0.180765
C72   C     C_R   0.255384 0.802504 0.053926 -0.174757
C73   C     C_R   0.222223 0.264263 0.092111 -0.171203
C74   C     C_R   0.777759 0.735679 0.907979 -0.174476
C75   C     C_R   0.244467 0.697253 0.946216 -0.176443
C76   C     C_R   0.298168 0.268743 0.324240 0.875885
C77   C     C_R   0.755385 0.302526 0.054011 -0.178151
C78   C     C_R   0.722176 0.764393 0.092114 -0.172109
C79   C     C_R   0.277741 0.235818 0.907915 -0.174074
C80   C     C_R   0.772877 0.181436 0.992357 -0.176002
C81   C     C_R   0.226963 0.818372 0.007782 -0.177275
C82   C     C_R   0.193296 0.249741 0.046514 -0.172443
C83   C     C_R   0.806655 0.750279 0.953605 -0.175827
C84   C     C_R   0.272891 0.681386 0.992359 -0.177655
C85   C     C_R   0.727004 0.318468 0.007820 -0.178006
C86   C     C_R   0.693280 0.749793 0.046488 -0.178321
C87   C     C_R   0.701843 0.731237 0.675751 0.886506
C88   C     C_R   0.306668 0.250338 0.953511 -0.173335
C89   C     C_R   0.643374 0.326376 0.945994 -0.204046
C90   C     C_R   0.356590 0.673594 0.054047 -0.203072
C91   C     C_R   0.356452 0.326651 0.054052 -0.203238
C92   C     C_R   0.643547 0.673329 0.945958 -0.202609
C93   C     C_R   0.143313 0.826247 0.946030 -0.201444
C94   C     C_R   0.856513 0.173481 0.054139 -0.201497
C95   C     C_R   0.856376 0.826787 0.054127 -0.201062
C96   C     C_R   0.143526 0.173391 0.945966 -0.200350
C97   C     C_R   0.616316 0.346866 0.898458 -0.067085
C98   C     C_R   0.201825 0.768712 0.675869 0.887749
C99   C     C_R   0.383681 0.653148 0.101546 -0.067775
C100  C     C_R   0.383487 0.347170 0.101683 -0.065778
C101  C     C_R   0.616527 0.652795 0.898309 -0.065706
C102  C     C_R   0.116272 0.846785 0.898483 -0.066797
C103  C     C_R   0.883584 0.152991 0.101653 -0.069046
C104  C     C_R   0.883378 0.847359 0.101791 -0.067322
C105  C     C_R   0.116505 0.152844 0.898322 -0.065267
C106  C     C_R   0.633042 0.321894 0.813325 -0.257347
C107  C     C_R   0.366990 0.678182 0.186646 -0.259975
C108  C     C_R   0.366824 0.322065 0.186823 -0.263595
C109  C     C_R   0.798181 0.231303 0.324130 0.871459
C110  C     C_R   0.633215 0.677858 0.813148 -0.262032
C111  C     C_R   0.132983 0.821786 0.813360 -0.254085
C112  C     C_R   0.866862 0.177942 0.186788 -0.230311
C113  C     C_R   0.866645 0.822401 0.187001 -0.227612
C114  C     C_R   0.133174 0.177935 0.813175 -0.258535
C115  C     C_R   0.679598 0.281392 0.770907 -0.053541
C116  C     C_R   0.320437 0.718692 0.229071 -0.046614
C117  C     C_R   0.320551 0.281414 0.229130 -0.046781
C118  C     C_R   0.679489 0.718502 0.770844 -0.052907
C119  C     C_R   0.179513 0.781223 0.770962 -0.045387
C120  C     C_R   0.798119 0.768844 0.324275 0.887180
C121  C     C_R   0.820377 0.218577 0.229142 -0.037688
C122  C     C_R   0.820428 0.781657 0.229241 -0.043618
C123  C     C_R   0.179436 0.218609 0.770877 -0.044935
C124  C     C_R   0.707979 0.260215 0.816801 -0.205319
C125  C     C_R   0.292042 0.739856 0.183195 -0.188867
C126  C     C_R   0.292547 0.259876 0.183067 -0.180673
C127  C     C_R   0.707499 0.740021 0.816905 -0.196385
C128  C     C_R   0.207854 0.759961 0.816893 -0.197031
C129  C     C_R   0.791990 0.239771 0.183273 -0.199114
C130  C     C_R   0.792443 0.760076 0.183168 -0.188608
C131  C     C_R   0.201827 0.231268 0.675762 0.882093
C132  C     C_R   0.207423 0.240181 0.816955 -0.187418
C133  C     C_R   0.689993 0.283052 0.905352 0.074979
C134  C     C_R   0.309981 0.716941 0.094685 0.071027
C135  C     C_R   0.310364 0.282485 0.094403 0.069093
C136  C     C_R   0.689651 0.717461 0.905594 0.072493
C137  C     C_R   0.189897 0.782849 0.905420 0.073285
C138  C     C_R   0.809919 0.216854 0.094775 0.074386
C139  C     C_R   0.810279 0.782644 0.094492 0.072421
C140  C     C_R   0.189604 0.217577 0.905621 0.070795
C141  C     C_R   0.703437 0.130222 0.499507 0.892001
C142  C     C_R   0.023593 0.377950 0.577041 -0.216357
C143  C     C_R   0.305012 0.872652 0.477066 0.884142
C144  C     C_R   0.309581 0.130448 0.460662 0.896557
C145  C     C_R   0.693701 0.872187 0.527038 0.868046
C146  C     C_R   0.195202 0.627461 0.522650 0.892093
C147  C     C_R   0.804799 0.372539 0.477344 0.894486
C148  C     C_R   0.809570 0.630170 0.461689 0.881571
C149  C     C_R   0.190432 0.369832 0.538301 0.882807
C150  C     C_R   0.074109 0.099525 0.933830 0.906293
C151  C     C_R   0.925850 0.900539 0.066210 0.918114
C152  C     C_R   0.926097 0.099782 0.065906 0.918767
H1    H     H_    0.078049 0.328599 0.614137 0.163868
H2    H     H_    0.001185 0.669956 0.400600 0.141020
H3    H     H_    0.921739 0.346710 0.614902 0.140053
H4    H     H_    0.078254 0.653328 0.385116 0.140731
H5    H     H_    0.500120 0.846454 0.609298 0.139290
H6    H     H_    0.499833 0.174998 0.389833 0.138512
H7    H     H_    0.427973 0.850369 0.605805 0.139550
H8    H     H_    0.572226 0.170389 0.389693 0.138704
H9    H     H_    0.710410 0.372443 0.013714 0.134801
H10   H     H_    0.289503 0.627425 0.986485 0.134818
H11   H     H_    0.350594 0.249303 0.916106 0.133389
H12   H     H_    0.921970 0.671388 0.385772 0.164433
H13   H     H_    0.649353 0.750873 0.083841 0.132743
H14   H     H_    0.210359 0.872337 0.013651 0.136857
H15   H     H_    0.789465 0.127458 0.986469 0.135505
H16   H     H_    0.850582 0.749201 0.916253 0.134190
H17   H     H_    0.149370 0.250773 0.083919 0.134673
H18   H     H_    0.740106 0.155462 0.905973 0.133621
H19   H     H_    0.259792 0.844465 0.094054 0.145676
H20   H     H_    0.199665 0.276578 0.163081 0.135150
H21   H     H_    0.800338 0.723263 0.837037 0.135497
H22   H     H_    0.240062 0.655295 0.906080 0.136427
H23   H     H_    0.846024 0.349675 0.592417 0.171736
H24   H     H_    0.759784 0.344449 0.094192 0.136387
H25   H     H_    0.699598 0.776810 0.163056 0.136119
H26   H     H_    0.300300 0.223502 0.836946 0.135232
H27   H     H_    0.628849 0.345571 0.013857 0.147953
H28   H     H_    0.371079 0.654340 0.986217 0.148573
H29   H     H_    0.369663 0.347944 0.987389 0.149593
H30   H     H_    0.630309 0.652081 0.012650 0.149409
H31   H     H_    0.128807 0.845476 0.013875 0.149062
H32   H     H_    0.871021 0.154270 0.986288 0.148204
H33   H     H_    0.869632 0.847997 0.987413 0.149537
H34   H     H_    0.153971 0.650349 0.407588 0.171775
H35   H     H_    0.130313 0.152106 0.012633 0.150358
H36   H     H_    0.611844 0.338394 0.777602 0.179004
H37   H     H_    0.388205 0.661707 0.222352 0.179065
H38   H     H_    0.387823 0.338600 0.222666 0.177359
H39   H     H_    0.612219 0.661318 0.777301 0.177420
H40   H     H_    0.111808 0.838337 0.777616 0.178962
H41   H     H_    0.888039 0.161391 0.222529 0.183514
H42   H     H_    0.887590 0.839036 0.222897 0.182332
H43   H     H_    0.112188 0.161374 0.777320 0.177310
H44   H     H_    0.745330 0.229316 0.782453 0.149848
H45   H     H_    0.582851 0.845174 0.611666 0.165644
H46   H     H_    0.254702 0.770775 0.217545 0.154731
H47   H     H_    0.256341 0.227048 0.216731 0.157176
H48   H     H_    0.743718 0.772824 0.783237 0.150952
H49   H     H_    0.245174 0.728996 0.782568 0.150859
H50   H     H_    0.754676 0.270749 0.217607 0.150573
H51   H     H_    0.756255 0.727211 0.216812 0.152752
H52   H     H_    0.243620 0.273029 0.783298 0.152825
H53   H     H_    0.768960 0.000339 0.553621 0.311728
H54   H     H_    0.362036 0.990934 0.261649 0.295837
H55   H     H_    0.198813 0.505643 0.743236 0.335192
H56   H     H_    0.420870 0.171705 0.376468 0.159744
H57   H     H_    0.801176 0.494334 0.256757 0.335085
H58   H     H_    0.352018 0.849410 0.584780 0.174899
H59   H     H_    0.651628 0.167376 0.400840 0.163551
H60   H     H_    0.998864 0.329989 0.599218 0.140336
O1    O     O_R   0.746490 0.236330 0.638080 -0.645733
O2    O     O_R   0.325830 0.813840 0.483730 -0.642899
O3    O     O_R   0.325830 0.186160 0.483730 -0.633914
O4    O     O_R   0.674170 0.813840 0.516270 -0.630630
O5    O     O_R   0.174170 0.686160 0.516270 -0.639248
O6    O     O_R   0.825830 0.313840 0.483730 -0.637421
O7    O     O_R   0.825830 0.686160 0.483730 -0.635258
O8    O     O_R   0.174170 0.313840 0.516270 -0.636231
O9    O     O_R   0.739960 0.127620 0.525000 -0.618774
O10   O     O_R   0.260040 0.872380 0.475000 -0.585521
O11   O     O_R   0.260040 0.127620 0.475000 -0.582271
O12   O     O_R   0.253510 0.763670 0.361920 -0.638820
O13   O     O_R   0.739960 0.872380 0.525000 -0.616221
O14   O     O_R   0.239960 0.627620 0.525000 -0.588795
O15   O     O_R   0.760040 0.372380 0.475000 -0.588779
O16   O     O_R   0.760040 0.627620 0.475000 -0.583944
O17   O     O_R   0.239960 0.372380 0.525000 -0.583708
O18   O     O_R   0.680700 0.294870 0.629350 -0.620858
O19   O     O_R   0.319300 0.705130 0.370650 -0.627052
O20   O     O_R   0.319300 0.294870 0.370650 -0.635542
O21   O     O_R   0.680700 0.705130 0.629350 -0.628028
O22   O     O_R   0.180700 0.794870 0.629350 -0.625243
O23   O     O_R   0.253510 0.236330 0.361920 -0.629933
O24   O     O_R   0.819300 0.205130 0.370650 -0.621922
O25   O     O_R   0.819300 0.794870 0.370650 -0.619796
O26   O     O_R   0.180700 0.205130 0.629350 -0.633376
O27   O     O_R   0.062020 0.072840 0.007170 -0.628963
O28   O     O_R   0.937980 0.927160 0.992830 -0.630767
O29   O     O_R   0.937980 0.072840 0.992830 -0.631185
O30   O     O_R   0.062020 0.927160 0.007170 -0.629777
O31   O     O_R   0.562020 0.572840 0.007170 -0.628400
O32   O     O_R   0.437980 0.427160 0.992830 -0.628263
O33   O     O_R   0.437980 0.572840 0.992830 -0.629004
O34   O     O_R   0.746490 0.763670 0.638080 -0.634579
O35   O     O_R   0.562020 0.427160 0.007170 -0.629100
O36   O     O_R   0.947860 0.073950 0.109290 -0.612404
O37   O     O_R   0.052140 0.926050 0.890710 -0.622378
O38   O     O_R   0.052140 0.073950 0.890710 -0.622765
O39   O     O_R   0.947860 0.926050 0.109290 -0.612197
O40   O     O_R   0.447860 0.573950 0.109290 -0.621564
O41   O     O_R   0.552140 0.426050 0.890710 -0.621380
O42   O     O_R   0.552140 0.573950 0.890710 -0.621729
O43   O     O_R   0.447860 0.426050 0.109290 -0.622034
O44   O     O_2   0.788947 0.991112 0.357770 -0.601557
O45   O     O_R   0.246490 0.736330 0.638080 -0.643053
O46   O     O_R   0.793376 0.996884 0.486255 -0.752779
O47   O     O_2   0.243293 0.998339 0.419134 -0.546584
O48   O     O_R   0.321259 0.991930 0.286742 -0.791328
O49   O     O_2   0.255327 0.502672 0.582847 -0.598867
O50   O     O_R   0.175219 0.504028 0.713697 -0.814917
O51   O     O_2   0.744663 0.497325 0.417160 -0.598981
O52   O     O_R   0.824772 0.495963 0.286293 -0.815137
O53   O     O_R   0.753510 0.263670 0.361920 -0.655963
O54   O     O_R   0.753510 0.736330 0.361920 -0.637254
O55   O     O_R   0.246490 0.263670 0.638080 -0.632984
O56   O     O_R   0.674170 0.186160 0.516270 -0.631518
Zn1   Zn    Zn3+2 0.792340 0.208750 0.507670 0.981891
Zn2   Zn    Zn3+2 0.494040 0.500000 0.919480 0.942321
Zn3   Zn    Zn3+2 0.005960 1.000000 0.080520 0.964187
Zn4   Zn    Zn3+2 0.994040 1.000000 0.919480 0.944204
Zn5   Zn    Zn3+2 0.207660 0.791250 0.492330 1.001926
Zn6   Zn    Zn3+2 0.207660 0.208750 0.492330 0.999312
Zn7   Zn    Zn3+2 0.792340 0.791250 0.507670 0.991629
Zn8   Zn    Zn3+2 0.292340 0.708750 0.507670 0.990109
Zn9   Zn    Zn3+2 0.707660 0.291250 0.492330 0.987524
Zn10  Zn    Zn3+2 0.707660 0.708750 0.492330 0.995660
Zn11  Zn    Zn3+2 0.292340 0.291250 0.507670 0.991439
Zn12  Zn    Zn3+2 0.505960 0.500000 0.080520 0.941382

loop_
_geom_bond_atom_site_label_1
_geom_bond_atom_site_label_2
_ccdc_geom_bond_type
C126  H47   S    
C68   C80   A    
C58   O47   D    
C96   C105  A    
C28   C47   A    
C70   C140  S    
C81   H14   S    
C123  C132  A    
C78   H25   S    
C85   H9    S    
C113  H42   S    
C60   O52   S    
C59   O50   S    
C36   C42   A    
C96   H35   S    
C8    C43   A    
O38   Zn4   S    
C74   C83   A    
C128  C137  A    
C109  C121  S    
C127  H48   S    
C25   C43   A    
C143  O10   A    
C30   C39   A    
C69   C78   A    
C67   C75   A    
O9    Zn1   S    
C98   C119  S    
C11   C18   A    
C92   C136  A    
O28   Zn4   S    
O54   Zn10  S    
O5    Zn5   S    
C151  O28   A    
C86   H13   S    
C11   C19   A    
C126  C135  A    
C33   C39   A    
O22   Zn5   S    
C94   H32   S    
C124  C133  A    
H57   O52   S    
O32   Zn2   S    
C104  C151  S    
C122  C130  A    
O34   Zn7   S    
C68   C138  S    
C141  O9    A    
C16   C35   A    
O45   Zn8   S    
C90   C134  A    
C75   C84   A    
C64   C88   A    
C131  O55   A    
C40   C58   S    
C131  O26   A    
O17   Zn11  S    
C66   C74   A    
C95   H33   S    
C7    O35   A    
C110  H39   S    
C31   C144  S    
C53   H56   S    
C31   C40   A    
C111  C119  A    
O35   Zn12  S    
H55   O50   S    
C89   C97   A    
C38   C146  S    
C144  O11   A    
C6    O33   A    
C26   C45   A    
C21   C43   A    
C146  O5    A    
C11   C47   A    
C1    O18   A    
C36   C148  S    
C13   H3    S    
C129  C138  A    
C10   C20   A    
C32   C143  S    
O2    Zn8   S    
C29   C38   A    
C76   O20   A    
C64   C73   A    
C5    C100  S    
C69   C83   A    
O43   Zn12  S    
C142  H60   S    
C91   C100  A    
C7    C97   S    
C117  C126  A    
C4    O31   A    
C72   C81   A    
C26   C48   A    
C120  O25   A    
C128  H49   S    
C90   C99   A    
C119  C128  A    
C78   C86   A    
C24   C51   A    
C89   H27   S    
C57   H7    S    
C64   C135  S    
C77   C85   A    
C111  H40   S    
C8    C16   A    
O3    Zn11  S    
C3    C102  S    
C7    O41   A    
C75   H22   S    
O13   Zn7   S    
C60   O51   D    
C108  H38   S    
C102  C111  A    
O25   Zn7   S    
C34   C41   A    
O14   Zn8   S    
C49   H12   S    
C67   C137  S    
C130  C139  A    
C152  O36   A    
C79   C88   A    
C34   C149  S    
C26   C34   A    
C150  O38   A    
C22   C53   A    
H53   O46   S    
C112  H41   S    
C62   C85   A    
C90   H28   S    
C100  C108  A    
C17   C24   A    
C89   C133  A    
C22   C31   A    
C113  C122  A    
O18   Zn9   S    
O8    Zn6   S    
O6    Zn1   S    
C141  O56   A    
C20   C142  A    
C105  C114  A    
C120  O54   A    
C127  C136  A    
C41   C59   S    
C87   C118  S    
C109  O53   A    
C114  H43   S    
C61   H8    S    
O39   Zn3   S    
C28   C50   A    
C151  O39   A    
C146  O14   A    
O16   Zn10  S    
C101  C110  A    
C145  O13   A    
O56   Zn9   S    
O42   Zn2   S    
C23   C44   A    
C104  C113  A    
C58   O48   S    
C50   H23   S    
C3    O30   A    
C63   C134  S    
O31   Zn12  S    
O20   Zn11  S    
C9    C14   A    
C35   H5    S    
C66   C86   A    
C95   C104  A    
O12   Zn5   S    
C2    C49   A    
C145  O4    A    
C39   C56   S    
C98   O22   A    
C12   C15   A    
C54   H58   S    
O41   Zn2   S    
C8    C12   A    
C4    C101  S    
C107  H37   S    
C37   C42   A    
O7    Zn7   S    
C21   C30   A    
C79   H26   S    
C48   C142  A    
C69   C139  S    
C65   O12   A    
C37   C147  S    
C73   H20   S    
C110  C118  A    
O15   Zn9   S    
C132  H52   S    
C92   C101  A    
C38   C41   A    
C143  O2    A    
C66   C136  S    
C114  C123  A    
C13   C18   A    
C98   O45   A    
C48   H1    S    
C125  H46   S    
C67   C81   A    
C77   H24   S    
C116  C125  A    
C91   H29   S    
C1    O1    A    
C94   C138  A    
C65   C116  S    
C14   C16   A    
C46   H6    S    
C30   C145  S    
C105  C150  S    
C118  C127  A    
C129  H50   S    
O1    Zn1   S    
C42   C60   S    
C73   C82   A    
C84   H10   S    
C72   H19   S    
C120  C122  S    
C23   C54   A    
C29   C51   A    
C27   C47   A    
C68   C77   A    
O21   Zn10  S    
C14   C57   A    
H54   O48   S    
C9    C44   A    
C147  O15   A    
C115  C124  A    
C80   H15   S    
C74   H21   S    
C123  C131  S    
C2    C19   A    
O4    Zn10  S    
C108  C117  A    
C59   O49   D    
O36   Zn3   S    
C56   O46   S    
C3    O37   A    
C121  C129  A    
C94   C103  A    
C93   C102  A    
C96   C140  A    
C144  O3    A    
C71   C80   A    
C33   C141  S    
C124  H44   S    
C27   C36   A    
C132  C140  A    
C88   H11   S    
C99   C107  A    
C83   H16   S    
C63   C84   A    
C95   C139  A    
C76   C117  S    
C87   O21   A    
O29   Zn4   S    
O27   Zn3   S    
C106  C115  A    
C149  O17   A    
C23   C32   A    
C5    O43   A    
O10   Zn5   S    
C56   O44   D    
O33   Zn2   S    
O40   Zn12  S    
C148  O16   A    
C106  H36   S    
C112  C121  A    
C125  C134  A    
C103  C152  S    
C25   C55   A    
C6    C99   S    
C65   O19   A    
O19   Zn8   S    
C12   C61   A    
C93   H31   S    
O53   Zn9   S    
C70   C79   A    
O11   Zn6   S    
C28   C37   A    
C55   C61   A    
C46   C53   A    
O55   Zn11  S    
O24   Zn1   S    
C17   C19   A    
O37   Zn4   S    
C62   C71   A    
C76   O23   A    
C18   C20   A    
C87   O34   A    
C32   C40   A    
C5    O32   A    
C9    C15   A    
C4    O42   A    
C70   C82   A    
C148  O7    A    
C71   H18   S    
C107  C116  A    
C82   H17   S    
C93   C137  A    
C55   H59   S    
C13   C50   A    
C109  O24   A    
C24   H4    S    
C152  O29   A    
O30   Zn3   S    
C91   C135  A    
C63   C72   A    
C2    H2    S    
C150  O27   A    
C10   C45   A    
C29   C45   A    
C35   C52   A    
C51   H34   S    
O23   Zn6   S    
C147  O6    A    
C22   C44   A    
C103  C112  A    
C92   H30   S    
C52   H45   S    
C10   C17   A    
C15   C46   A    
C1    C115  S    
O26   Zn6   S    
C62   C133  S    
C6    O40   A    
C149  O8    A    
C21   C52   A    
C130  H51   S    
C27   C49   A    
C25   C33   A    
C54   C57   A    
C97   C106  A    
