data_mof_unit_12427.cif
_audit_creation_date              2012-12-10T17:09:56-0500
_audit_creation_method            fapswitch 2.2
_symmetry_space_group_name_H-M    P1
_symmetry_Int_Tables_number       1
_space_group_crystal_system       triclinic
_cell_length_a                    10.762313
_cell_length_b                    13.001236
_cell_length_c                    11.696921
_cell_angle_alpha                 99.737351
_cell_angle_beta                  93.351458
_cell_angle_gamma                 90.551773
_cell_volume                      1610.01805096

loop_
_atom_site_label
_atom_site_type_symbol
_atom_type_description
_atom_site_fract_x
_atom_site_fract_y
_atom_site_fract_z
_atom_type_partial_charge
C1    C     C_R   0.498186 0.299179 0.478771 0.767735
C2    C     C_R   0.066221 0.408282 0.531958 0.092180
C3    C     C_R   0.129009 0.494260 0.501247 -0.135271
C4    C     C_R   0.064501 0.577893 0.468013 -0.303632
C5    C     C_R   0.934292 0.578898 0.464457 0.489685
C6    C     C_R   0.871212 0.494528 0.497497 -0.188104
C7    C     C_R   0.502573 0.814248 0.534060 -0.118530
C8    C     C_R   0.498225 0.185870 0.466880 -0.064198
C9    C     C_R   0.501885 0.015589 0.346357 -0.181524
C10   C     C_R   0.499823 0.123495 0.356759 -0.179298
C11   C     C_R   0.498022 0.139720 0.566651 -0.261613
C12   C     C_R   0.262649 0.498488 0.500542 0.812703
C13   C     C_R   0.500486 0.031567 0.557410 0.068856
C14   C     C_R   0.502297 0.969225 0.445921 0.110823
C15   C     C_R   0.503736 0.861278 0.435211 -0.260529
C16   C     C_R   0.500937 0.875803 0.644642 -0.275817
C17   C     C_R   0.502028 0.984521 0.657316 0.486170
C18   C     C_R   0.381434 0.402107 0.022919 0.359980
C19   C     C_R   0.392385 0.412706 0.145162 -0.064002
C20   C     C_R   0.552700 0.541319 0.156769 0.299127
C21   C     C_R   0.543961 0.534838 0.033484 -0.047033
C22   C     C_R   0.456783 0.464722 0.966135 -0.062237
C23   C     C_R   0.501764 0.700837 0.521324 0.867557
C24   C     C_R   0.448164 0.458712 0.843478 0.067111
C25   C     C_R   0.607488 0.587368 0.854394 0.100219
C26   C     C_R   0.619561 0.596348 0.975704 -0.305911
C27   C     C_R   0.737377 0.498816 0.499192 0.875733
C28   C     C_R   0.130785 0.321847 0.562660 -0.206803
C29   C     C_R   0.066346 0.236913 0.590668 -0.119396
C30   C     C_R   0.936543 0.235554 0.588102 0.222235
C31   C     C_R   0.871247 0.320740 0.557371 -0.183245
C32   C     C_R   0.935162 0.408100 0.529658 -0.012741
Cu1   Cu    Cu3+1 0.509250 0.507730 0.615930 0.942401
Cu2   Cu    Cu3+1 0.490750 0.492270 0.384070 0.966453
H1    H     H_    0.117402 0.643100 0.447903 0.143361
H2    H     H_    0.500049 0.157976 0.278702 0.151430
H3    H     H_    0.496634 0.188170 0.651596 0.190424
H4    H     H_    0.381853 0.405390 0.790131 0.158379
H5    H     H_    0.666086 0.635065 0.811394 0.127473
H6    H     H_    0.688059 0.651439 0.022902 0.129753
H7    H     H_    0.332988 0.365842 0.188441 0.158463
H8    H     H_    0.231254 0.318556 0.564373 0.139799
H9    H     H_    0.117739 0.171373 0.613636 0.148004
H10   H     H_    0.770663 0.317414 0.554251 0.129495
H11   H     H_    0.504777 0.814022 0.349547 0.162429
H12   H     H_    0.497677 0.839894 0.721531 0.172747
H13   H     H_    0.503229 0.968457 0.260639 0.130063
N1    N     N_R   0.523180 0.519350 0.790130 -0.193543
N2    N     N_R   0.476820 0.480650 0.209890 -0.203247
O1    O     O_R   0.506570 0.354460 0.582000 -0.607087
O2    O     O_R   0.490940 0.341410 0.386200 -0.592542
O3    O     O_R   0.327470 0.506530 0.597920 -0.583788
O4    O     O_R   0.311840 0.493480 0.402120 -0.583071
O5    O     O_R   0.509060 0.658590 0.613800 -0.596860
O6    O     O_R   0.493430 0.645540 0.418000 -0.556962
O7    O     O_R   0.688160 0.506520 0.597880 -0.594992
O8    O     O_R   0.672530 0.493470 0.402080 -0.538585
O9    O     O_3   0.494657 0.044342 0.766299 -0.608095
C33   C     C_3   0.612130 0.046897 0.826861 -0.377984
H14   H     H_    0.685863 0.077806 0.778194 0.167622
H15   H     H_    0.637158 0.968538 0.846151 0.174215
H16   H     H_    0.607991 0.100276 0.911181 0.186247
O10   O     O_3   0.292222 0.334661 0.960528 -0.590751
C34   C     C_3   0.343930 0.234724 0.936312 -0.293950
H17   H     H_    0.367747 0.203413 0.017563 0.154811
H18   H     H_    0.427397 0.235638 0.884571 0.181862
H19   H     H_    0.273848 0.180813 0.883506 0.210026
N3    N     N_3   0.641153 0.610881 0.227428 -0.491183
H20   H     H_    0.730215 0.590574 0.201489 0.206057
H21   H     H_    0.623547 0.686969 0.213954 0.180320
N4    N     N_3   0.872333 0.146235 0.615056 -0.595512
H22   H     H_    0.893605 0.143498 0.702835 0.209806
H23   H     H_    0.776030 0.155082 0.605509 0.216268
O11   O     O_3   0.864726 0.663873 0.440770 -0.575090
C35   C     C_3   0.918852 0.717639 0.360304 -0.317312
H24   H     H_    0.954531 0.663364 0.285824 0.151459
H25   H     H_    0.993158 0.772656 0.404474 0.172698
H26   H     H_    0.846145 0.765183 0.324306 0.188259

loop_
_geom_bond_atom_site_label_1
_geom_bond_atom_site_label_2
_ccdc_geom_bond_type
C6    C32   A    
C21   C26   A    
C1    C8    S    
C35   H24   S    
C30   N4    S    
Cu1   O3    S    
Cu2   O2    S    
C20   N2    A    
C28   C29   A    
C5    C6    A    
C18   O10   S    
C2    C32   A    
C18   C19   A    
C5    O11   S    
C11   H3    S    
C3    C12   S    
C6    C27   S    
C16   C17   A    
Cu2   N2    S    
Cu2   O8    S    
C24   H4    S    
C1    O1    A    
C12   O4    A    
C17   O9    S    
Cu1   O7    S    
C7    C15   A    
C4    H1    S    
Cu2   O6    S    
C13   C14   A    
C29   H9    S    
C12   O3    A    
C33   H15   S    
C31   H10   S    
C24   N1    A    
C34   H19   S    
C27   O8    A    
C16   H12   S    
N4    H23   S    
C27   O7    A    
N3    H20   S    
C25   C26   A    
C34   H18   S    
C9    C14   A    
C29   C30   A    
C35   H25   S    
C19   N2    A    
C31   C32   A    
Cu1   Cu2   S    
C1    O2    A    
C25   N1    A    
N3    H21   S    
C7    C16   A    
C9    H13   S    
C22   C24   A    
O9    C33   S    
C15   H11   S    
C3    C4    A    
O11   C35   S    
C23   O5    A    
C9    C10   A    
Cu1   O5    S    
C33   H16   S    
C18   C22   A    
C20   N3    S    
C4    C5    A    
C2    C28   A    
C23   O6    A    
C13   C17   A    
C34   H17   S    
C2    C3    A    
Cu1   O1    S    
N4    H22   S    
C25   H5    S    
C11   C13   A    
C26   H6    S    
C30   C31   A    
C8    C11   A    
C7    C23   S    
C28   H8    S    
C35   H26   S    
O10   C34   S    
C33   H14   S    
C20   C21   A    
Cu2   O4    S    
C8    C10   A    
Cu1   N1    S    
C14   C15   A    
C10   H2    S    
C21   C22   A    
C19   H7    S    
