data_mof_unit_62726.cif
_audit_creation_date              2012-12-10T17:59:46-0500
_audit_creation_method            fapswitch 2.2
_symmetry_space_group_name_H-M    P1
_symmetry_Int_Tables_number       1
_space_group_crystal_system       triclinic
_cell_length_a                    18.62658
_cell_length_b                    18.59431
_cell_length_c                    18.767261
_cell_angle_alpha                 109.342596
_cell_angle_beta                  109.957624
_cell_angle_gamma                 109.0947
_cell_volume                      5004.64169074

loop_
_atom_site_label
_atom_site_type_symbol
_atom_type_description
_atom_site_fract_x
_atom_site_fract_y
_atom_site_fract_z
_atom_type_partial_charge
C1    C     C_R   0.620161 0.620432 0.500054 0.860342
C2    C     C_3   0.192086 0.416955 0.188319 -0.157599
C3    C     C_3   0.215335 0.455967 0.284964 -0.154187
C4    C     C_3   0.312644 0.500367 0.312061 0.023514
C5    C     C_R   0.756045 0.760519 0.579640 -0.199616
C6    C     C_R   0.820802 0.823745 0.579657 -0.157317
C7    C     C_R   0.813378 0.814056 0.500010 -0.020255
C8    C     C_R   0.742317 0.741581 0.420386 -0.202232
C9    C     C_R   0.678975 0.677041 0.420453 -0.182728
C10   C     C_R   0.685964 0.686993 0.500065 -0.010116
C11   C     C_R   0.679647 0.500330 0.759188 -0.185602
C12   C     C_R   0.379441 0.500226 0.379206 0.861857
C13   C     C_R   0.743342 0.498874 0.822865 -0.186082
C14   C     C_R   0.815847 0.499666 0.815811 -0.009893
C15   C     C_R   0.824549 0.500448 0.744976 -0.186486
C16   C     C_R   0.759484 0.499136 0.679928 -0.186292
C17   C     C_R   0.687707 0.499809 0.687706 -0.009924
C18   C     C_R   0.241758 0.321897 0.499505 -0.189149
C19   C     C_R   0.177279 0.257399 0.498481 -0.190114
C20   C     C_R   0.186515 0.186271 0.500063 -0.004627
C21   C     C_R   0.258865 0.178255 0.501289 -0.184821
C22   C     C_R   0.322017 0.241418 0.499634 -0.186866
C23   C     C_R   0.379699 0.379620 0.499803 0.859237
C24   C     C_R   0.313468 0.313252 0.499461 -0.006868
C25   C     C_R   0.003159 0.620384 0.123115 0.859642
C26   C     C_R   0.124775 0.499967 0.124430 0.865370
C27   C     C_R   0.004384 0.379226 0.883881 0.893554
C28   C     C_R   0.882614 0.499875 0.882521 0.861094
C29   C     C_R   0.000985 0.879737 0.380605 0.856778
C30   C     C_R   0.879703 0.879840 0.499946 0.888791
C31   C     C_R   0.999113 0.119852 0.618943 0.937539
C32   C     C_R   0.120303 0.120149 0.499999 0.851567
C33   C     C_R   0.002683 0.758530 0.180543 -0.186105
C34   C     C_R   0.621144 0.499949 0.621143 0.860342
C35   C     C_R   0.000618 0.821675 0.243247 -0.185225
C36   C     C_R   0.001763 0.813775 0.315062 -0.008377
C37   C     C_R   0.003789 0.742790 0.324221 -0.186749
C38   C     C_R   0.003127 0.678283 0.260165 -0.189103
C39   C     C_R   0.003144 0.686774 0.188947 -0.007645
C40   C     C_R   0.068455 0.335105 0.794323 -0.173733
C41   C     C_R   0.066705 0.271105 0.729021 -0.279068
C42   C     C_R   0.998283 0.184970 0.684314 -0.092953
C43   C     C_R   0.930435 0.160980 0.702950 0.464452
C44   C     C_R   0.934001 0.225223 0.770755 -0.292900
C45   C     C_3   0.312749 0.583653 0.315136 -0.162405
C46   C     C_R   0.002392 0.312223 0.815594 -0.087822
C47   C     C_3   0.214079 0.539198 0.286730 -0.155467
C48   C     C_3   0.192124 0.500219 0.191428 0.023527
C49   C     C_3   0.289566 0.544688 0.218637 -0.172501
C50   C     C_3   0.290595 0.461354 0.216643 -0.170590
H1    H     H_    0.180890 0.570945 0.313259 0.125784
H2    H     H_    0.624177 0.620212 0.358849 0.141844
H3    H     H_    0.623661 0.500455 0.764774 0.143942
H4    H     H_    0.737027 0.498644 0.878106 0.143982
H5    H     H_    0.880713 0.500688 0.739563 0.142789
H6    H     H_    0.765665 0.499083 0.624549 0.143525
H7    H     H_    0.235262 0.377591 0.499015 0.139424
H8    H     H_    0.121179 0.263478 0.497858 0.140896
H9    H     H_    0.265489 0.122706 0.502076 0.143858
H10   H     H_    0.378005 0.235248 0.500011 0.143361
H11   H     H_    0.002335 0.764629 0.124978 0.144078
H12   H     H_    0.363862 0.651637 0.368719 0.139387
H13   H     H_    0.999500 0.877091 0.236640 0.144841
H14   H     H_    0.004366 0.736768 0.379885 0.143034
H15   H     H_    0.003889 0.622679 0.266588 0.139224
H16   H     H_    0.121879 0.401986 0.828734 0.165811
H17   H     H_    0.118506 0.288448 0.713309 0.149059
H18   H     H_    0.883917 0.207133 0.788405 0.164419
H19   H     H_    0.318363 0.580885 0.189920 0.147619
H20   H     H_    0.323517 0.429627 0.189592 0.147496
H21   H     H_    0.141006 0.348980 0.134690 0.139838
H22   H     H_    0.187119 0.419806 0.314012 0.125647
H23   H     H_    0.761281 0.767934 0.641259 0.148176
H24   H     H_    0.875702 0.880567 0.641206 0.162727
H25   H     H_    0.736948 0.734426 0.358789 0.143992
O1    O     O_R   0.592040 0.539900 0.448690 -0.624912
O2    O     O_R   0.054890 0.643310 0.094620 -0.621083
O3    O     O_R   0.044450 0.448260 0.096050 -0.625727
O4    O     O_R   0.147910 0.551670 0.096030 -0.627646
O5    O     O_R   0.952840 0.356630 0.912840 -0.626666
O6    O     O_R   0.056290 0.460040 0.912820 -0.631649
O7    O     O_R   0.859820 0.448260 0.911420 -0.622919
O8    O     O_R   0.963280 0.551670 0.911400 -0.623076
O9    O     O_R   0.052810 0.908290 0.461080 -0.624906
O10   O     O_R   0.948580 0.908330 0.356880 -0.623916
O11   O     O_R   0.960490 0.908280 0.552000 -0.622271
O12   O     O_R   0.591220 0.643330 0.551330 -0.622932
O13   O     O_R   0.856260 0.908310 0.447800 -0.627032
O14   O     O_R   0.051420 0.091500 0.642940 -0.617147
O15   O     O_R   0.947190 0.091540 0.538750 -0.626741
O16   O     O_R   0.143740 0.091510 0.552020 -0.624611
O17   O     O_R   0.039510 0.091550 0.447830 -0.626231
O18   O     O_R   0.408100 0.448290 0.356370 -0.627735
O19   O     O_R   0.407270 0.551710 0.459000 -0.626089
O20   O     O_R   0.408780 0.356670 0.448670 -0.620935
O21   O     O_R   0.407960 0.460100 0.551310 -0.624385
O22   O     O_R   0.592730 0.448290 0.541000 -0.623169
O23   O     O_R   0.591900 0.551710 0.643630 -0.621941
O24   O     O_R   0.951430 0.539890 0.094630 -0.624044
Zn1   Zn    Zn3+2 0.500550 0.430940 0.431470 0.947788
Zn2   Zn    Zn3+2 0.499450 0.569060 0.568530 0.948531
Zn3   Zn    Zn3+2 0.934780 0.430920 0.003740 0.946931
Zn4   Zn    Zn3+2 0.072940 0.569020 0.003710 0.944919
Zn5   Zn    Zn3+2 0.069600 0.999890 0.569480 0.960055
Zn6   Zn    Zn3+2 0.930400 0.999940 0.430340 0.948866
O25   O     O_3   0.866871 0.073512 0.660718 -0.626554
C51   C     C_3   0.783725 0.062150 0.610118 0.085736
H26   H     H_    0.785845 0.092462 0.568029 0.141402
H27   H     H_    0.760094 0.091017 0.652911 0.139474
C52   C     C_3   0.717844 0.964466 0.550718 -0.794238
H28   H     H_    0.714771 0.931694 0.590341 0.261066
H29   H     H_    0.651536 0.954546 0.512447 0.198874
H30   H     H_    0.737669 0.934215 0.504656 0.263970

loop_
_geom_bond_atom_site_label_1
_geom_bond_atom_site_label_2
_ccdc_geom_bond_type
C1    O12   A    
C31   C42   S    
O3    Zn3   S    
C41   C42   A    
C19   C20   A    
O16   Zn5   S    
O11   Zn5   S    
C37   H14   S    
C7    C8    A    
C41   H17   S    
C40   C46   A    
C29   C36   S    
C33   C39   A    
O8    Zn4   S    
C18   C24   A    
C36   C37   A    
C21   H9    S    
C22   H10   S    
C5    C6    A    
C32   O16   A    
O25   C51   S    
C15   C16   A    
C45   H12   S    
C34   O22   A    
C23   O21   A    
C18   C19   A    
C52   H28   S    
C2    C50   S    
C33   C35   A    
O12   Zn2   S    
C25   O24   A    
C11   C17   A    
C35   C36   A    
O19   Zn2   S    
C8    C9    A    
C31   O14   A    
C23   C24   S    
C4    C12   S    
C9    C10   A    
C29   O10   A    
C11   H3    S    
C26   C48   S    
O4    Zn4   S    
C7    C30   S    
C49   H19   S    
C13   C14   A    
C28   O8    A    
C51   H27   S    
C12   O19   A    
C9    H2    S    
C20   C32   S    
O10   Zn6   S    
C44   C46   A    
C6    H24   S    
C4    C45   S    
C45   C47   S    
C19   H8    S    
C38   C39   A    
C28   O7    A    
C27   O6    A    
O21   Zn2   S    
C29   O9    A    
C27   O5    A    
O20   Zn1   S    
C16   C17   A    
C47   H1    S    
C2    C48   S    
C8    H25   S    
O5    Zn3   S    
C43   O25   S    
C15   H5    S    
C43   C44   A    
C16   H6    S    
C37   C38   A    
C18   H7    S    
C47   C48   S    
C52   H30   S    
C38   H15   S    
C45   C49   S    
C51   H26   S    
C31   O15   A    
O7    Zn3   S    
C26   O3    A    
O18   Zn1   S    
C27   C46   S    
C40   C41   A    
O14   Zn5   S    
O9    Zn5   S    
C51   C52   S    
C25   O2    A    
C12   O18   A    
C44   H18   S    
C30   O11   A    
C42   C43   A    
C30   O13   A    
C2    H21   S    
O22   Zn1   S    
C13   H4    S    
O6    Zn4   S    
C48   C49   S    
C1    O1    A    
C1    C10   S    
O15   Zn6   S    
C35   H13   S    
C6    C7    A    
O1    Zn1   S    
O23   Zn2   S    
C26   O4    A    
C3    H22   S    
C50   H20   S    
C5    C10   A    
C25   C39   S    
O13   Zn6   S    
C11   C13   A    
C32   O17   A    
C3    C47   S    
C34   O23   A    
C23   O20   A    
C2    C3    S    
C22   C24   A    
C5    H23   S    
C52   H29   S    
O2    Zn4   S    
O17   Zn6   S    
O24   Zn3   S    
C20   C21   A    
C33   H11   S    
C49   C50   S    
C17   C34   S    
C4    C50   S    
C14   C15   A    
C40   H16   S    
C14   C28   S    
C21   C22   A    
C3    C4    S    
