data_mof_unit_18030.cif
_audit_creation_date              2012-12-10T20:03:09-0500
_audit_creation_method            fapswitch 2.2
_symmetry_space_group_name_H-M    P1
_symmetry_Int_Tables_number       1
_space_group_crystal_system       triclinic
_cell_length_a                    8.562443
_cell_length_b                    18.909481
_cell_length_c                    18.428168
_cell_angle_alpha                 89.096053
_cell_angle_beta                  98.640925
_cell_angle_gamma                 90.13897
_cell_volume                      2949.49513548

loop_
_atom_site_label
_atom_site_type_symbol
_atom_type_description
_atom_site_fract_x
_atom_site_fract_y
_atom_site_fract_z
_atom_type_partial_charge
C1    C     C_R   0.497934 0.364985 0.500472 0.920874
C2    C     C_R   0.498885 0.634771 0.499386 0.933666
C3    C     C_R   0.329854 0.966233 0.566453 0.284798
C4    C     C_R   0.287115 0.032178 0.427527 0.284129
C5    C     C_R   0.339476 0.039527 0.560131 -0.276146
C6    C     C_R   0.301928 0.958935 0.433955 -0.275317
C7    C     C_R   0.328570 0.073015 0.490873 0.114390
C8    C     C_R   0.333736 0.925549 0.503306 0.113666
C9    C     C_R   0.624809 0.528455 0.733760 0.000303
C10   C     C_R   0.389839 0.460932 0.267754 -0.006237
C11   C     C_R   0.628593 0.530002 0.810335 0.041537
C12   C     C_R   0.383895 0.459944 0.190926 0.062991
C13   C     C_R   0.500589 0.501135 0.841444 -0.012284
C14   C     C_R   0.497813 0.498654 0.158194 -0.027781
C15   C     C_R   0.372269 0.471083 0.794877 0.386624
C16   C     C_R   0.613325 0.537370 0.204064 0.369645
C17   C     C_R   0.374634 0.472713 0.717869 -0.165832
C18   C     C_R   0.609143 0.538378 0.280412 -0.131208
C19   C     C_R   0.526567 0.437604 0.963909 -0.155232
C20   C     C_R   0.472089 0.562476 0.035463 -0.128633
C21   C     C_R   0.526425 0.436936 0.040156 -0.207674
C22   C     C_R   0.473311 0.563226 0.959255 -0.190692
C23   C     C_R   0.200796 0.500376 0.480840 0.969084
C24   C     C_R   0.799190 0.499913 0.519108 0.971019
C25   C     C_R   0.497853 0.499246 0.076775 0.184068
C26   C     C_R   0.500569 0.500778 0.922715 0.203827
C27   C     C_2   0.035785 0.501033 0.470325 -0.395052
C28   C     C_2   0.964138 0.499809 0.529415 -0.390670
C29   C     C_R   0.340343 0.735632 0.451248 -0.271969
C30   C     C_R   0.365545 0.262483 0.544646 -0.268573
C31   C     C_R   0.292864 0.804558 0.456893 -0.285749
C32   C     C_R   0.314257 0.193584 0.537600 -0.291495
C33   C     C_R   0.379571 0.850120 0.506968 -0.015156
C34   C     C_R   0.370759 0.148765 0.487710 -0.012209
C35   C     C_R   0.516357 0.825529 0.554321 0.431548
C36   C     C_R   0.478635 0.174291 0.441565 0.428696
C37   C     C_R   0.565074 0.754266 0.547179 0.315357
C38   C     C_R   0.531802 0.245639 0.449874 0.317617
C39   C     C_R   0.472729 0.710191 0.497075 -0.171289
C40   C     C_R   0.470039 0.289198 0.499960 -0.176369
H1    H     H_    0.973855 0.502219 0.414235 0.171763
H2    H     H_    0.026245 0.498893 0.585377 0.174037
H3    H     H_    0.276486 0.452964 0.679981 0.148932
H4    H     H_    0.693430 0.569861 0.315810 0.145034
H5    H     H_    0.548264 0.388860 0.936999 0.129124
H6    H     H_    0.450165 0.611251 0.062262 0.148327
H7    H     H_    0.549744 0.387763 0.070734 0.136992
H8    H     H_    0.452240 0.612505 0.928637 0.133893
H9    H     H_    0.268247 0.700836 0.413787 0.175207
H10   H     H_    0.316447 0.296167 0.582602 0.177997
H11   H     H_    0.186576 0.822397 0.422034 0.168701
H12   H     H_    0.229181 0.175076 0.571566 0.167512
H13   H     H_    0.358626 0.070138 0.609898 0.156804
H14   H     H_    0.291324 0.928287 0.384261 0.158185
H15   H     H_    0.721753 0.550335 0.709166 0.147309
H16   H     H_    0.304218 0.431428 0.293670 0.142484
N1    N     N_R   0.500020 0.499980 0.689440 -0.121916
N2    N     N_R   0.499980 0.500020 0.310560 -0.124035
O1    O     O_R   0.500010 0.398180 0.560840 -0.634023
O2    O     O_R   0.499990 0.601820 0.439160 -0.629581
O3    O     O_R   0.499930 0.398180 0.439210 -0.572092
O4    O     O_R   0.500070 0.601820 0.560790 -0.578009
O5    O     O_R   0.271780 0.500000 0.546590 -0.620001
O6    O     O_R   0.728220 0.500000 0.453410 -0.622322
O7    O     O_R   0.271710 0.499990 0.424960 -0.645045
O8    O     O_R   0.728290 0.500010 0.575040 -0.639536
Zn1   Zn    Zn3+2 0.500050 0.500000 0.581210 0.925694
Zn2   Zn    Zn3+2 0.499950 0.500000 0.418790 0.926221
O9    O     O_3   0.243678 0.447165 0.826990 -0.642549
C41   C     C_3   0.157167 0.391790 0.788706 0.078209
H17   H     H_    0.127855 0.352677 0.830218 0.159063
H18   H     H_    0.225596 0.361396 0.752784 0.114849
C42   C     C_3   0.001396 0.420544 0.746816 -0.344595
H19   H     H_    0.923843 0.436647 0.786902 0.233190
H20   H     H_    0.023613 0.468146 0.713880 0.212444
C43   C     C_3   0.915975 0.365190 0.696022 -0.968361
H21   H     H_    0.987552 0.351527 0.652676 0.253270
H22   H     H_    0.800545 0.386555 0.669289 0.291199
H23   H     H_    0.894144 0.316668 0.727744 0.259960
O10   O     O_3   0.720863 0.578373 0.172799 -0.646887
C44   C     C_3   0.878674 0.559343 0.200833 0.085486
H24   H     H_    0.935384 0.540680 0.154176 0.169966
H25   H     H_    0.891038 0.515451 0.242622 0.107641
C45   C     C_3   0.967318 0.624633 0.233278 -0.358879
H26   H     H_    0.956471 0.667925 0.191307 0.237472
H27   H     H_    0.913963 0.642900 0.281063 0.209726
C46   C     C_3   0.141912 0.608829 0.258061 -0.935461
H28   H     H_    0.155447 0.566359 0.300743 0.279359
H29   H     H_    0.202545 0.657083 0.281546 0.260794
H30   H     H_    0.198638 0.592145 0.210709 0.267806
O11   O     O_3   0.600781 0.875184 0.600471 -0.657329
C47   C     C_3   0.684883 0.849311 0.667976 0.155626
H31   H     H_    0.730330 0.896340 0.699864 0.128829
H32   H     H_    0.794142 0.821584 0.659509 0.175442
C48   C     C_3   0.583603 0.807262 0.716589 -0.354310
H33   H     H_    0.509747 0.844338 0.742857 0.195837
H34   H     H_    0.502741 0.769444 0.684471 0.238628
C49   C     C_3   0.687828 0.765767 0.777035 -0.919224
H35   H     H_    0.758743 0.725835 0.752721 0.283389
H36   H     H_    0.612627 0.737744 0.812396 0.259680
H37   H     H_    0.768500 0.802107 0.811571 0.247445
O12   O     O_3   0.535770 0.125307 0.395667 -0.657479
C50   C     C_3   0.576810 0.151816 0.328449 0.156130
H38   H     H_    0.602459 0.105100 0.296403 0.130096
H39   H     H_    0.691257 0.180013 0.337316 0.174854
C51   C     C_3   0.444376 0.193633 0.279714 -0.353076
H40   H     H_    0.353290 0.156445 0.253554 0.196963
H41   H     H_    0.384656 0.231583 0.311674 0.235972
C52   C     C_3   0.509872 0.234892 0.219116 -0.933265
H42   H     H_    0.596060 0.275243 0.243273 0.282652
H43   H     H_    0.411850 0.262314 0.183374 0.260172
H44   H     H_    0.568774 0.198496 0.185003 0.247294
O13   O     O_3   0.690220 0.724653 0.593868 -0.654430
C53   C     C_3   0.823922 0.720301 0.557692 0.059366
H45   H     H_    0.864633 0.774324 0.544343 0.146937
H46   H     H_    0.798195 0.689579 0.506174 0.126608
C54   C     C_3   0.955364 0.682548 0.609223 -0.340517
H47   H     H_    0.977446 0.710502 0.662402 0.214335
H48   H     H_    0.917174 0.627700 0.620160 0.226094
C55   C     C_3   0.108742 0.680120 0.576765 -0.932773
H49   H     H_    0.089019 0.655208 0.521974 0.264613
H50   H     H_    0.198137 0.648639 0.613547 0.277243
H51   H     H_    0.155088 0.734539 0.571654 0.266716
O14   O     O_3   0.629015 0.275616 0.404351 -0.647602
C56   C     C_3   0.785347 0.279560 0.441513 0.078021
H52   H     H_    0.834975 0.225367 0.452434 0.143229
H53   H     H_    0.791742 0.307796 0.494513 0.121844
C57   C     C_3   0.883833 0.320539 0.392288 -0.324239
H54   H     H_    0.869272 0.296313 0.337099 0.211611
H55   H     H_    0.840812 0.376019 0.385670 0.239321
C58   C     C_3   0.058582 0.320429 0.424041 -0.968879
H56   H     H_    0.076326 0.341738 0.480505 0.267008
H57   H     H_    0.124901 0.353930 0.389115 0.263471
H58   H     H_    0.105559 0.265723 0.425063 0.272879
C59   C     C_3   0.311592 0.934590 0.640076 -0.901605
H59   H     H_    0.296606 0.876352 0.638118 0.232490
H60   H     H_    0.415381 0.948578 0.680920 0.250364
H61   H     H_    0.204324 0.956805 0.658366 0.222002
C60   C     C_3   0.223263 0.063573 0.353595 -0.901015
H62   H     H_    0.207877 0.121688 0.355549 0.231763
H63   H     H_    0.105182 0.040543 0.334301 0.222553
H64   H     H_    0.302865 0.050316 0.313528 0.250958
C61   C     C_3   0.769675 0.561348 0.857688 -0.908468
H65   H     H_    0.732775 0.607861 0.886930 0.250659
H66   H     H_    0.823724 0.521218 0.898429 0.255123
H67   H     H_    0.861210 0.579072 0.824594 0.238024
C62   C     C_3   0.252090 0.420530 0.145212 -0.925205
H68   H     H_    0.185972 0.457080 0.103916 0.251721
H69   H     H_    0.300453 0.376237 0.116779 0.246645
H70   H     H_    0.167260 0.398011 0.179430 0.229176

loop_
_geom_bond_atom_site_label_1
_geom_bond_atom_site_label_2
_ccdc_geom_bond_type
C61   H67   S    
C22   H8    S    
C46   H28   S    
C59   H61   S    
C11   C13   A    
C42   H19   S    
C62   H68   S    
C43   H23   S    
C58   H58   S    
C57   H54   S    
C53   H45   S    
C48   C49   S    
C59   H59   S    
C29   H9    S    
O4    Zn1   S    
O6    Zn2   S    
C12   C62   S    
C5    H13   S    
C10   N2    A    
C43   H22   S    
C1    O1    A    
C33   C35   A    
C60   H64   S    
C2    O2    A    
C37   O13   S    
C20   C25   A    
C61   H65   S    
C36   O12   S    
C28   H2    S    
C19   C26   A    
C32   H12   S    
C1    C40   S    
O1    Zn1   S    
C2    C39   S    
C18   N2    A    
C48   H33   S    
C56   C57   S    
C45   C46   S    
C41   H17   S    
C9    H15   S    
C23   C27   S    
C10   H16   S    
C34   C36   A    
C55   H51   S    
C24   O8    A    
C23   O5    A    
O8    Zn1   S    
C30   H10   S    
C24   O6    A    
C38   C40   A    
C59   H60   S    
C42   H20   S    
O9    C41   S    
N1    Zn1   S    
C4    C7    A    
C44   H25   S    
C55   H50   S    
C44   H24   S    
C15   O9    S    
O5    Zn1   S    
C31   C33   A    
C62   H70   S    
C45   H26   S    
C9    N1    A    
C4    C6    A    
C3    C8    A    
C54   C55   S    
C31   H11   S    
O11   C47   S    
C5    C7    A    
C6    C8    A    
C58   H57   S    
C47   C48   S    
C19   H5    S    
C1    O3    A    
C16   O10   S    
C32   C34   A    
C17   H3    S    
C19   C21   A    
C18   H4    S    
C27   H1    S    
O7    Zn2   S    
C29   C39   A    
C41   C42   S    
C47   H32   S    
C30   C40   A    
C50   H39   S    
C16   C18   A    
C51   H40   S    
C43   H21   S    
C9    C11   A    
C10   C12   A    
N2    Zn2   S    
C12   C14   A    
C6    H14   S    
C49   H36   S    
C13   C15   A    
C56   H52   S    
C42   C43   S    
C14   C16   A    
C13   C26   S    
C52   H44   S    
C58   H56   S    
C57   C58   S    
C50   H38   S    
C44   C45   S    
C55   H49   S    
C35   C37   A    
O13   C53   S    
C61   H66   S    
C21   C25   A    
C62   H69   S    
C24   C28   S    
C20   C22   A    
O10   C44   S    
C3    C5    A    
C57   H55   S    
C53   H46   S    
C60   H62   S    
C48   H34   S    
C15   C17   A    
C49   H37   S    
C23   O7    A    
C54   H48   S    
C29   C31   A    
C54   H47   S    
C4    C60   S    
C30   C32   A    
C60   H63   S    
O3    Zn2   S    
C51   H41   S    
C52   H43   S    
C36   C38   A    
C47   H31   S    
C7    C34   S    
C50   C51   S    
C3    C59   S    
C8    C33   S    
C14   C25   S    
O12   C50   S    
C20   H6    S    
C53   C54   S    
O2    Zn2   S    
C37   C39   A    
C49   H35   S    
C22   C26   A    
C46   H30   S    
C27   C28   D    
C56   H53   S    
C46   H29   S    
C45   H27   S    
C41   H18   S    
C52   H42   S    
C11   C61   S    
C38   O14   S    
C2    O4    A    
C17   N1    A    
O14   C56   S    
C21   H7    S    
C51   C52   S    
C35   O11   S    
