data_mof_unit_28966.cif
_audit_creation_date              2012-12-10T16:57:46-0500
_audit_creation_method            fapswitch 2.2
_symmetry_space_group_name_H-M    P1
_symmetry_Int_Tables_number       1
_space_group_crystal_system       triclinic
_cell_length_a                    7.790443
_cell_length_b                    8.5037
_cell_length_c                    18.993664
_cell_angle_alpha                 91.827832
_cell_angle_beta                  84.713421
_cell_angle_gamma                 93.375485
_cell_volume                      1250.31482601

loop_
_atom_site_label
_atom_site_type_symbol
_atom_type_description
_atom_site_fract_x
_atom_site_fract_y
_atom_site_fract_z
_atom_type_partial_charge
C1    C     C_R   0.545933 0.794453 0.507070 0.974861
C2    C     C_R   0.455800 0.206733 0.510918 0.842313
C3    C     C_2   0.574331 0.957548 0.526803 -0.200402
C4    C     C_2   0.436625 0.048501 0.536044 -0.291945
C5    C     C_R   0.499724 0.496066 0.635077 0.862323
C6    C     C_R   0.498930 0.494974 0.365674 0.882208
C7    C     C_R   0.356948 0.497349 0.760489 0.047995
C8    C     C_R   0.549857 0.323209 0.259094 0.043921
C9    C     C_R   0.364120 0.461309 0.831430 0.093711
C10   C     C_R   0.545722 0.298495 0.186233 0.093058
C11   C     C_R   0.509579 0.391599 0.852779 0.020527
C12   C     C_R   0.487093 0.416131 0.145693 0.014648
C13   C     C_R   0.649688 0.357177 0.803475 -0.022217
C14   C     C_R   0.424386 0.556716 0.177844 -0.025352
C15   C     C_R   0.643232 0.397356 0.733408 -0.309856
C16   C     C_R   0.428638 0.579299 0.250610 -0.321196
C17   C     C_R   0.499107 0.467024 0.710945 -0.075501
C18   C     C_R   0.494047 0.465953 0.290587 -0.066544
C19   C     C_R   0.504173 0.395159 0.069670 0.395721
C20   C     C_R   0.520509 0.376957 0.927963 0.412109
H1    H     H_    0.751060 0.369957 0.695636 0.154599
H2    H     H_    0.382786 0.686584 0.276409 0.147158
N1    N     N_R   0.398708 0.288722 0.967066 -0.121551
N2    N     N_R   0.627851 0.481055 0.030670 -0.129230
N3    N     N_R   0.391312 0.296942 0.037189 -0.127917
N4    N     N_R   0.635566 0.472419 0.960634 -0.128179
N5    N     N_2   0.950330 0.457950 0.481240 -0.011131
N6    N     N_2   0.049670 0.542050 0.518760 -0.002475
O1    O     O_R   0.389250 0.738570 0.504600 -0.594113
O2    O     O_R   0.610750 0.261430 0.495400 -0.628777
O3    O     O_R   0.678400 0.711620 0.492580 -0.566431
O4    O     O_R   0.321600 0.288380 0.507420 -0.616727
O5    O     O_R   0.355380 0.513500 0.607880 -0.627430
O6    O     O_R   0.644620 0.486500 0.392120 -0.624847
O7    O     O_R   0.644530 0.486550 0.595850 -0.624316
O8    O     O_R   0.355470 0.513450 0.404150 -0.593730
Zn1   Zn    Zn3+2 0.306930 0.517990 0.508030 0.986113
Zn2   Zn    Zn3+2 0.693070 0.482010 0.491970 0.973719
N7    N     N_3   0.205367 0.566999 0.741220 -0.473026
H3    H     H_    0.140447 0.487409 0.708506 0.190319
H4    H     H_    0.241386 0.671707 0.715102 0.254919
N8    N     N_3   0.607868 0.201080 0.300150 -0.470573
H5    H     H_    0.720493 0.242468 0.322202 0.210320
H6    H     H_    0.512427 0.173290 0.340927 0.185661
N9    N     N_3   0.225701 0.500818 0.883071 -0.402534
H7    H     H_    0.211420 0.622214 0.882161 0.231136
H8    H     H_    0.111704 0.442626 0.868786 0.221934
N10   N     N_3   0.605108 0.155624 0.152534 -0.430762
H9    H     H_    0.530943 0.060587 0.175170 0.198789
H10   H     H_    0.733422 0.145205 0.162872 0.215602
C21   C     C_2   0.804026 0.277471 0.821769 0.393853
H11   H     H_    0.916470 0.272747 0.783619 0.058175
O9    O     O_2   0.806941 0.212715 0.878053 -0.543621
C22   C     C_2   0.352906 0.682881 0.138549 0.430430
H12   H     H_    0.325959 0.794736 0.165241 0.058653
O10   O     O_2   0.319221 0.663709 0.077259 -0.543060
C23   C     C_2   0.755670 0.019869 0.534138 0.400835
H13   H     H_    0.780733 0.112505 0.573180 0.078791
O11   O     O_2   0.876649 0.971635 0.495660 -0.608389
C24   C     C_2   0.268918 0.997034 0.574683 0.429197
H14   H     H_    0.151801 0.052892 0.565402 0.107236
O12   O     O_2   0.262712 0.899342 0.620715 -0.607668
N11   N     N_3   0.033404 0.363580 0.429663 -0.314980
H15   H     H_    0.997795 0.398418 0.381064 0.179237
H16   H     H_    0.981244 0.248828 0.437080 0.204279
N12   N     N_3   0.965568 0.636882 0.569784 -0.301800
H17   H     H_    0.004834 0.607094 0.618424 0.173887
H18   H     H_    0.012450 0.752167 0.560293 0.238044

loop_
_geom_bond_atom_site_label_1
_geom_bond_atom_site_label_2
_ccdc_geom_bond_type
C1    C3    S    
O8    Zn1   S    
N12   H18   S    
N11   H16   S    
C9    N9    S    
C14   C16   A    
C8    C18   A    
C11   C13   A    
C22   H12   S    
C2    C4    S    
O3    Zn2   S    
C15   H1    S    
C2    O2    A    
N5    N6    D    
C4    C24   S    
C1    O1    A    
N12   H17   S    
N7    H4    S    
C16   C18   A    
O6    Zn2   S    
N9    H7    S    
N10   H10   S    
C9    C11   A    
N2    N4    A    
C23   H13   S    
N8    H6    S    
N6    Zn1   S    
C24   H14   S    
C19   N3    A    
C15   C17   A    
C5    O7    A    
C12   C19   S    
C2    O4    A    
N10   H9    S    
C14   C22   S    
C6    O8    A    
C19   N2    A    
C10   C12   A    
N1    N3    A    
C13   C15   A    
C10   N10   S    
C6    C18   S    
C22   O10   D    
C11   C20   S    
C23   O11   D    
C5    C17   S    
N8    H5    S    
N5    Zn2   S    
C8    N8    S    
C21   H11   S    
C3    C23   S    
C1    O3    A    
O7    Zn2   S    
O2    Zn2   S    
C24   O12   D    
N9    H8    S    
O1    Zn1   S    
N7    H3    S    
C7    C9    A    
C7    N7    S    
N6    N12   S    
N5    N11   S    
C16   H2    S    
O4    Zn1   S    
C21   O9    D    
C13   C21   S    
C20   N1    A    
C8    C10   A    
O5    Zn1   S    
C3    C4    D    
C6    O6    A    
C12   C14   A    
N11   H15   S    
C20   N4    A    
C7    C17   A    
C5    O5    A    
