data_mof_unit_32643.cif
_audit_creation_date              2013-03-05T15:54:26-0500
_audit_creation_method            fapswitch 2.2
_symmetry_space_group_name_H-M    P1
_symmetry_Int_Tables_number       1
_space_group_crystal_system       triclinic
_cell_length_a                    15.767468
_cell_length_b                    10.671565
_cell_length_c                    9.910491
_cell_angle_alpha                 89.919074
_cell_angle_beta                  90.110174
_cell_angle_gamma                 91.860301
_cell_volume                      1666.69099421

loop_
_atom_site_label
_atom_site_type_symbol
_atom_site_description
_atom_site_fract_x
_atom_site_fract_y
_atom_site_fract_z
_atom_type_partial_charge
O1    O     O_R   0.500000 0.316780 0.614690 -0.673233
O2    O     O_R   0.499990 0.316750 0.385360 -0.611897
C1    C     C_R   0.505323 0.258892 0.500374 0.878914
O3    O     O_R   0.376780 0.500000 0.614650 -0.596739
O4    O     O_R   0.376770 0.499980 0.385310 -0.642096
C2    C     C_R   0.338199 0.498759 0.499877 0.904219
Zn1   Zn    Zn3+2 0.500010 0.500020 0.653130 1.033115
Zn2   Zn    Zn3+2 0.499990 0.499980 0.346870 0.996638
O5    O     O_R   0.500010 0.683250 0.614640 -0.582550
O6    O     O_R   0.500000 0.683220 0.385310 -0.581193
O7    O     O_R   0.623230 0.500020 0.614690 -0.574363
O8    O     O_R   0.623220 0.500000 0.385350 -0.596761
C3    C     C_R   0.485785 0.737129 0.499773 0.945109
C4    C     C_R   0.661810 0.500709 0.500115 0.903956
C5    C     C_3   0.969646 0.396531 0.532620 0.065568
C6    C     C_3   0.026183 0.425698 0.410422 0.024156
C7    C     C_1   0.249773 0.500633 0.499799 -0.047433
C8    C     C_1   0.750392 0.503832 0.500183 -0.077724
C9    C     C_3   0.028279 0.477430 0.625949 -0.258565
C10   C     C_3   0.084558 0.507687 0.500705 -0.042989
C11   C     C_3   0.974990 0.592340 0.588855 0.212639
C12   C     C_3   0.916071 0.510405 0.498769 -0.096078
C13   C     C_3   0.031837 0.622361 0.466691 0.180431
C14   C     C_3   0.973567 0.540041 0.376618 0.160778
C15   C     C_1   0.174892 0.503567 0.500180 0.131837
C16   C     C_1   0.825443 0.507093 0.499698 0.149141
H1    H     H_    0.050704 0.451509 0.728191 0.212443
C17   C     C_R   0.524162 0.103631 0.750973 -0.100805
H2    H     H_    0.566373 0.185039 0.759335 0.171156
C18   C     C_R   0.499939 0.044081 0.870469 -0.194465
H3    H     H_    0.519778 0.083714 0.966063 0.143667
C19   C     C_R   0.447279 0.937202 0.866590 -0.126302
H4    H     H_    0.423378 0.897634 0.960065 0.160585
C20   C     C_R   0.425904 0.881477 0.742635 0.404617
C21   C     C_R   0.460393 0.934277 0.621637 -0.030373
C22   C     C_R   0.496761 0.055494 0.624636 0.032576
C23   C     C_R   0.505037 0.122359 0.500930 -0.117280
C24   C     C_R   0.494551 0.059092 0.376429 0.050952
C25   C     C_R   0.470026 0.933117 0.375959 0.070697
C26   C     C_R   0.464361 0.868483 0.498814 -0.104952
C27   C     C_R   0.386026 0.339748 0.139499 -0.179856
H5    H     H_    0.383456 0.332538 0.246480 0.222035
C28   C     C_R   0.330802 0.258851 0.069627 -0.289859
H6    H     H_    0.288616 0.196536 0.126362 0.209764
C29   C     C_R   0.331283 0.255958 0.929132 0.307113
C30   C     C_R   0.387240 0.337623 0.859836 -0.185159
H7    H     H_    0.386159 0.331852 0.753028 0.228666
C31   C     C_R   0.443694 0.421115 0.927731 0.062590
C32   C     C_R   0.443504 0.421553 0.072010 0.145331
N1    N     N_R   0.499210 0.498800 0.142780 -0.118964
C33   C     C_R   0.555592 0.573528 0.072556 0.056214
C34   C     C_R   0.555869 0.573196 0.928448 0.298743
N2    N     N_R   0.499180 0.498720 0.857170 -0.162221
N3    N     N_3   0.054841 0.332801 0.314685 -0.385129
H8    H     H_    0.001193 0.296834 0.264115 0.236728
H9    H     H_    0.092331 0.380146 0.242904 0.223206
N4    N     N_R   0.363785 0.779672 0.739636 0.216912
O9    O     O_R   0.311631 0.767940 0.638191 -0.354040
O10   O     O_R   0.351657 0.708678 0.845198 -0.372546
N5    N     N_3   0.449430 0.870423 0.251258 -0.399375
H10   H     H_    0.397670 0.913702 0.207218 0.206600
H11   H     H_    0.501215 0.878367 0.185966 0.176350
N6    N     N_3   0.615333 0.650841 0.146013 -0.358227
H12   H     H_    0.676385 0.622933 0.121891 0.250167
H13   H     H_    0.609591 0.743523 0.114129 0.198887
N7    N     N_R   0.276184 0.168959 0.856788 0.218169
O11   O     O_R   0.225064 0.092029 0.921626 -0.319922
O12   O     O_R   0.277728 0.164026 0.725575 -0.385267
N8    N     N_R   0.618092 0.647971 0.857865 0.221838
O13   O     O_R   0.695279 0.609284 0.849569 -0.332302
O14   O     O_R   0.603773 0.764952 0.832679 -0.393458
N9    N     N_3   0.934804 0.272276 0.565669 -0.391398
H14   H     H_    0.985971 0.215441 0.586466 0.251017
H15   H     H_    0.900818 0.280220 0.655504 0.211040
N10   N     N_R   0.946438 0.574076 0.241146 0.244818
O15   O     O_R   0.002773 0.597504 0.148060 -0.305027
O16   O     O_R   0.866262 0.581965 0.212631 -0.350051
N11   N     N_R   0.064095 0.747594 0.431222 0.265366
O17   O     O_R   0.011298 0.835722 0.405734 -0.290287
O18   O     O_R   0.145303 0.772071 0.424663 -0.300808
N12   N     N_R   0.948806 0.685815 0.685969 0.256010
O19   O     O_R   0.005788 0.748096 0.755989 -0.259021
O20   O     O_R   0.868931 0.707855 0.703088 -0.294784
N13   N     N_3   0.513736 0.120727 0.250700 -0.426183
H16   H     H_    0.460914 0.112378 0.187368 0.179655
H17   H     H_    0.564728 0.076829 0.205567 0.189273

loop_
_geom_bond_atom_site_label_1
_geom_bond_atom_site_label_2
_geom_bond_distance
_ccdc_geom_bond_type
N7    O12   1.301833 A    
N6    H13   1.044554 S    
C27   H5    1.063668 S    
C4    C8    1.396038 S    
C21   C22   1.398186 A    
C8    C16   1.182754 T    
N10   O15   1.300255 A    
N12   O19   1.300245 A    
C29   C30   1.400111 A    
C5    C9    1.550055 S    
C5    N9    1.455845 S    
O4    C2    1.288916 A    
C22   C23   1.421734 A    
C9    C11   1.552186 S    
N13   H17   1.045185 S    
C18   H3    1.079665 S    
O7    C4    1.289099 A    
N11   O18   1.300208 A    
N4    O10   1.301603 A    
C10   C15   1.426456 S    
C5    C6    1.530767 S    
N5    H11   1.044014 S    
C20   C21   1.425434 A    
N8    O14   1.299583 A    
O5    C3    1.297065 A    
C3    C26   1.452520 S    
C34   N8    1.427889 S    
C30   H7    1.060466 S    
C5    C12   1.538592 S    
C9    C10   1.554626 S    
C20   N4    1.439248 S    
C13   C14   1.536031 S    
C9    H1    1.110155 S    
C6    C10   1.536247 S    
N7    O11   1.301589 A    
C6    C14   1.533924 S    
C11   C12   1.539781 S    
C27   C28   1.390519 A    
O3    Zn1   1.979371 S    
C27   C32   1.407172 A    
N12   O20   1.300157 A    
C30   C31   1.409553 A    
C31   N2    1.376212 A    
N3    H9    1.044970 S    
C33   C34   1.428201 A    
C33   N6    1.430593 S    
N13   H16   1.043488 S    
N9    H15   1.044989 S    
C25   C26   1.400072 A    
N11   O17   1.300248 A    
N5    H10   1.045180 S    
O1    C1    1.295340 A    
C19   C20   1.401351 A    
Zn1   O7    1.980583 S    
C28   H6    1.082816 S    
C23   C24   1.414181 A    
C28   C29   1.392801 A    
C10   C13   1.538188 S    
Zn2   O8    1.979371 S    
N1    C33   1.365800 A    
N10   O16   1.300216 A    
C17   C22   1.415464 A    
O3    C2    1.288751 A    
C31   C32   1.429896 A    
C11   N12   1.456988 S    
C11   C13   1.535020 S    
C12   C14   1.540103 S    
Zn1   N2    2.022230 S    
Zn2   N1    2.022699 S    
C34   N2    1.372098 A    
Zn1   O5    1.991681 S    
C2    C7    1.395056 S    
N3    H8    1.044924 S    
C17   H2    1.080287 S    
C24   N13   1.436294 S    
O1    Zn1   1.992744 S    
O2    Zn2   1.991682 S    
O8    C4    1.288790 A    
N9    H14   1.044990 S    
O6    C3    1.295845 A    
O4    Zn2   1.980582 S    
C14   N10   1.457373 S    
C7    C15   1.182131 T    
C19   H4    1.080931 S    
C17   C18   1.391415 A    
C21   C26   1.408589 A    
C18   C19   1.389363 A    
N4    O9    1.301217 A    
C24   C25   1.386762 A    
C25   N5    1.437734 S    
O2    C1    1.299450 A    
C13   N11   1.457246 S    
N8    O13   1.300582 A    
C6    N3    1.456231 S    
N6    H12   1.045091 S    
C1    C23   1.456880 S    
Zn2   O6    1.992743 S    
C32   N1    1.376668 A    
C12   C16   1.428320 S    
C29   N7    1.441484 S    
