data_mof_unit_38741.cif
_audit_creation_date              2012-12-10T18:06:43-0500
_audit_creation_method            fapswitch 2.2
_symmetry_space_group_name_H-M    P1
_symmetry_Int_Tables_number       1
_space_group_crystal_system       triclinic
_cell_length_a                    12.609426
_cell_length_b                    13.170976
_cell_length_c                    15.357231
_cell_angle_alpha                 83.569715
_cell_angle_beta                  98.85919
_cell_angle_gamma                 96.858137
_cell_volume                      2490.62970201

loop_
_atom_site_label
_atom_site_type_symbol
_atom_type_description
_atom_site_fract_x
_atom_site_fract_y
_atom_site_fract_z
_atom_type_partial_charge
C1    C     C_R   0.445665 0.308169 0.515242 0.877781
C2    C     C_R   0.409064 0.441049 0.103031 0.118247
C3    C     C_R   0.306544 0.472683 0.066985 0.159374
C4    C     C_R   0.472438 0.402399 0.048488 -0.026103
C5    C     C_R   0.447260 0.425041 0.956051 0.038321
C6    C     C_R   0.343222 0.453370 0.920853 -0.168589
C7    C     C_R   0.272098 0.472681 0.976325 -0.202647
C8    C     C_R   0.560914 0.344606 0.081708 0.351880
C9    C     C_R   0.633994 0.329641 0.026128 -0.221752
C10   C     C_R   0.620691 0.370439 0.937843 0.026410
C11   C     C_R   0.527154 0.418598 0.902279 0.084999
C12   C     C_R   0.434428 0.510235 0.335916 0.874565
C13   C     C_R   0.698916 0.362032 0.884239 -0.195366
C14   C     C_R   0.685777 0.401213 0.795337 0.382784
C15   C     C_R   0.518533 0.463729 0.815188 -0.265196
C16   C     C_R   0.731597 0.941142 0.531561 -0.204045
C17   C     C_R   0.593671 0.801838 0.495125 -0.159500
C18   C     C_R   0.304490 0.161734 0.524824 -0.234610
C19   C     C_R   0.272751 0.056847 0.529366 0.452686
C20   C     C_R   0.349978 0.988223 0.535589 -0.221428
C21   C     C_R   0.461223 0.024104 0.541416 0.047821
C22   C     C_R   0.493224 0.128278 0.553332 0.069613
C23   C     C_R   0.556838 0.692290 0.490200 0.911703
C24   C     C_R   0.541781 0.961393 0.532712 0.117149
C25   C     C_R   0.652369 0.999291 0.548367 0.077428
C26   C     C_R   0.681983 0.096064 0.578094 -0.178985
C27   C     C_R   0.603071 0.159581 0.581828 -0.144556
C28   C     C_R   0.514825 0.864340 0.503416 -0.241692
C29   C     C_R   0.702852 0.843540 0.502853 0.386794
C30   C     C_R   0.414573 0.198257 0.534009 -0.171555
C31   C     C_R   0.137436 0.635900 0.627127 -0.289320
C32   C     C_R   0.756583 0.381076 0.394507 0.043512
C33   C     C_R   0.851439 0.353949 0.372738 -0.207068
C34   C     C_R   0.563676 0.483191 0.664719 0.895569
C35   C     C_R   0.949704 0.397119 0.414102 -0.183582
C36   C     C_R   0.952661 0.467547 0.477839 0.036442
C37   C     C_R   0.853641 0.491230 0.498326 0.235438
C38   C     C_R   0.049012 0.516324 0.521123 -0.000786
C39   C     C_R   0.043937 0.585191 0.585100 0.098143
C40   C     C_R   0.945470 0.604330 0.605690 -0.142315
C41   C     C_R   0.851516 0.558695 0.561855 -0.047172
C42   C     C_R   0.150820 0.501025 0.502831 -0.112628
C43   C     C_R   0.235512 0.618584 0.605733 0.514325
C44   C     C_R   0.389411 0.500346 0.243239 -0.077633
C45   C     C_R   0.593763 0.452541 0.759873 -0.156451
C46   C     C_R   0.242781 0.509134 0.121443 -0.182996
C47   C     C_R   0.283521 0.521484 0.209734 -0.181260
C48   C     C_R   0.451396 0.461894 0.189298 -0.177725
H1    H     H_    0.193224 0.494900 0.947581 0.159196
H2    H     H_    0.769879 0.323606 0.911234 0.178565
H3    H     H_    0.766173 0.124205 0.595186 0.177500
H4    H     H_    0.815724 0.972294 0.539317 0.202650
H5    H     H_    0.431571 0.835627 0.485854 0.188565
H6    H     H_    0.242961 0.214451 0.512555 0.188976
H7    H     H_    0.320849 0.907734 0.537207 0.191669
H8    H     H_    0.629251 0.233637 0.606301 0.201299
H9    H     H_    0.452938 0.509138 0.789457 0.208945
H10   H     H_    0.940811 0.657043 0.654075 0.170247
H11   H     H_    0.134351 0.688862 0.675697 0.189535
H12   H     H_    0.163068 0.449989 0.456082 0.143012
H13   H     H_    0.679586 0.347958 0.362994 0.188493
H14   H     H_    0.021180 0.373753 0.395036 0.147530
H15   H     H_    0.848845 0.299933 0.324065 0.186588
H16   H     H_    0.778115 0.580249 0.577056 0.216742
H17   H     H_    0.701738 0.286322 0.052242 0.186214
H18   H     H_    0.162967 0.530772 0.095178 0.149685
H19   H     H_    0.233335 0.549868 0.250923 0.168537
H20   H     H_    0.535099 0.453182 0.213661 0.197981
H21   H     H_    0.314321 0.458765 0.850704 0.161403
N1    N     N_R   0.239390 0.551900 0.544730 -0.135186
N2    N     N_R   0.759950 0.448600 0.455730 -0.138979
O1    O     O_R   0.374950 0.371210 0.521360 -0.619854
O2    O     O_R   0.542050 0.338030 0.492790 -0.615799
O3    O     O_R   0.368720 0.526070 0.390200 -0.620696
O4    O     O_R   0.535820 0.492890 0.361630 -0.610324
O5    O     O_R   0.457950 0.661970 0.507210 -0.570464
O6    O     O_R   0.625050 0.628790 0.478640 -0.592161
O7    O     O_R   0.464180 0.507110 0.638370 -0.573840
O8    O     O_R   0.631280 0.473930 0.609800 -0.605174
Zn1   Zn    Zn3+2 0.388420 0.522150 0.519080 0.989116
Zn2   Zn    Zn3+2 0.611580 0.477850 0.480920 0.984827
Cl1   Cl    Cl    0.805386 0.782019 0.471763 -0.593151
Cl2   Cl    Cl    0.135227 0.011474 0.520990 -0.574935
Cl3   Cl    Cl    0.352431 0.683997 0.659463 -0.623440
Cl4   Cl    Cl    0.786253 0.380843 0.732976 -0.653557
Cl5   Cl    Cl    0.573563 0.272924 0.186462 -0.655739

loop_
_geom_bond_atom_site_label_1
_geom_bond_atom_site_label_2
_ccdc_geom_bond_type
C6    H21   S    
C12   O3    A    
C17   C29   A    
C19   C20   A    
C23   O5    A    
C4    C8    A    
C26   C27   A    
C17   C23   S    
C31   C43   A    
C36   C37   A    
C32   H13   S    
C46   H18   S    
C3    C7    A    
C5    C6    A    
O7    Zn1   S    
C31   H11   S    
C42   N1    A    
C18   C19   A    
C47   H19   S    
C11   C15   A    
C35   C36   A    
C8    C9    A    
C18   C30   A    
C14   C45   A    
C9    C10   A    
C44   C47   A    
O3    Zn1   S    
C21   C22   A    
C43   Cl3   S    
C15   H9    S    
C20   H7    S    
C19   Cl2   S    
O2    Zn2   S    
C32   N2    A    
C1    O1    A    
C40   H10   S    
N1    Zn1   S    
C24   C28   A    
C24   C25   A    
C7    H1    S    
C16   H4    S    
C42   H12   S    
C39   C40   A    
O8    Zn2   S    
C27   H8    S    
O4    Zn2   S    
C2    C48   A    
C25   C26   A    
C48   H20   S    
C2    C4    A    
C34   O8    A    
O6    Zn2   S    
C33   H15   S    
C34   C45   S    
C23   O6    A    
C40   C41   A    
C43   N1    A    
C22   C27   A    
C37   N2    A    
C12   O4    A    
C15   C45   A    
C16   C25   A    
C46   C47   A    
C22   C30   A    
C17   C28   A    
O5    Zn1   S    
C14   Cl4   S    
C4    C5    A    
C10   C13   A    
C28   H5    S    
C5    C11   A    
C6    C7    A    
C3    C46   A    
C1    O2    A    
C32   C33   A    
C36   C38   A    
C2    C3    A    
C16   C29   A    
C29   Cl1   S    
O1    Zn1   S    
C26   H3    S    
C34   O7    A    
C38   C39   A    
C1    C30   S    
C33   C35   A    
C31   C39   A    
C35   H14   S    
C8    Cl5   S    
C37   C41   A    
C9    H17   S    
C10   C11   A    
C18   H6    S    
C13   H2    S    
C38   C42   A    
C20   C21   A    
C12   C44   S    
C21   C24   A    
C41   H16   S    
C13   C14   A    
C44   C48   A    
N2    Zn2   S    
