data_mof_unit_20302.cif
_audit_creation_date              2012-12-11T14:06:46-0500
_audit_creation_method            fapswitch 2.2
_symmetry_space_group_name_H-M    P1
_symmetry_Int_Tables_number       1
_space_group_crystal_system       triclinic
_cell_length_a                    6.925358
_cell_length_b                    17.329342
_cell_length_c                    24.064285
_cell_angle_alpha                 104.38245
_cell_angle_beta                  90.363895
_cell_angle_gamma                 90.038402
_cell_volume                      2797.42456119

loop_
_atom_site_label
_atom_site_type_symbol
_atom_type_description
_atom_site_fract_x
_atom_site_fract_y
_atom_site_fract_z
_atom_type_partial_charge
O1    O     O_R   0.494290 0.391990 0.999150 -0.541873
O2    O     O_R   0.827170 0.534410 0.082350 -0.542559
O3    O     O_R   0.994360 0.608010 0.000850 -0.521562
C1    C     C_R   0.658458 0.548272 0.105995 0.708593
O4    O     O_R   0.824210 0.388010 0.004470 -0.544752
O5    O     O_R   0.991370 0.460560 0.922410 -0.514645
C2    C     C_R   0.654450 0.354919 0.001553 0.759295
O6    O     O_R   0.497270 0.539440 0.077590 -0.545218
O7    O     O_3   0.659770 0.523970 0.973170 -0.334269
V1    V     V_3+5 0.935840 0.495550 0.004980 1.491292
O8    O     O_R   0.320910 0.465590 0.917650 -0.543017
C3    C     C_R   0.151410 0.449757 0.893710 0.741408
O9    O     O_R   0.323870 0.611990 0.995530 -0.532975
C4    C     C_R   0.153648 0.645022 0.998707 0.769586
V2    V     V_3+5 0.435470 0.504450 0.995020 1.488032
O10   O     O_3   0.161670 0.476030 0.026830 -0.384058
C5    C     C_2   0.138986 0.732297 0.006489 -0.036183
C6    C     C_2   0.975558 0.767632 0.992128 0.052122
C7    C     C_R   0.111357 0.253713 0.622805 0.590804
N1    N     N_R   0.145776 0.333254 0.646120 -0.549653
C8    C     C_R   0.189961 0.382712 0.611321 0.596164
C9    C     C_R   0.195245 0.352987 0.551113 -0.061030
C10   C     C_R   0.141492 0.273448 0.526757 -0.007421
C11   C     C_R   0.098864 0.223361 0.562902 -0.075717
C12   C     C_R   0.253766 0.400757 0.514935 -0.196004
C13   C     C_R   0.259760 0.370498 0.455292 0.306955
C14   C     C_R   0.196044 0.291450 0.430125 -0.073105
C15   C     C_R   0.134701 0.243439 0.466297 -0.098114
C16   C     C_R   0.079417 0.163588 0.442046 -0.105921
C17   C     C_R   0.029320 0.114655 0.479143 0.328572
C18   C     C_R   0.043648 0.144292 0.538610 -0.151418
C19   C     C_R   0.194019 0.257389 0.370193 0.651362
N2    N     N_R   0.089610 0.189021 0.347262 -0.538375
C20   C     C_R   0.076458 0.136251 0.381489 0.733181
O11   O     O_2   0.091175 0.203778 0.657413 -0.516881
O12   O     O_2   0.227829 0.460414 0.634695 -0.513382
H1    H     H_    0.297729 0.461931 0.532938 0.186029
O13   O     O_2   0.313933 0.286594 0.336843 -0.483978
O14   O     O_2   0.076602 0.057395 0.357052 -0.443493
H2    H     H_    0.004976 0.105590 0.565908 0.207897
C21   C     C_R   0.888397 0.100944 0.267683 0.366214
C22   C     C_R   0.875593 0.061150 0.209154 0.083904
C23   C     C_R   0.974160 0.091623 0.167997 -0.257696
C24   C     C_R   0.059913 0.167675 0.186006 0.228303
C25   C     C_R   0.065433 0.208041 0.244622 0.190162
C26   C     C_R   0.019265 0.165816 0.286868 0.109898
C27   C     C_R   0.306512 0.397505 0.737671 -0.102813
H3    H     H_    0.437047 0.401865 0.714281 0.176452
C28   C     C_R   0.306502 0.426034 0.797226 -0.248005
H4    H     H_    0.437677 0.452907 0.818063 0.187273
C29   C     C_R   0.141307 0.420122 0.829624 -0.128915
C30   C     C_R   0.970420 0.386482 0.800168 0.207781
C31   C     C_R   0.968222 0.361943 0.739203 0.204952
C32   C     C_R   0.139869 0.364406 0.707961 0.293842
C33   C     C_R   0.335852 0.793991 0.615271 0.609719
N3    N     N_R   0.493442 0.792644 0.650261 -0.536040
C34   C     C_R   0.626472 0.733871 0.628357 0.720336
C35   C     C_R   0.651833 0.706255 0.568631 -0.018109
C36   C     C_R   0.517931 0.728124 0.531205 -0.044420
C37   C     C_R   0.353986 0.772204 0.554605 -0.117186
C38   C     C_R   0.806475 0.656521 0.546078 -0.150724
C39   C     C_R   0.833617 0.630117 0.486772 0.197125
C40   C     C_R   0.701346 0.652414 0.448267 -0.008342
C41   C     C_R   0.541100 0.700858 0.470897 -0.105326
C42   C     C_R   0.402881 0.721059 0.433442 -0.049704
C43   C     C_R   0.240446 0.767501 0.457002 0.171028
C44   C     C_R   0.215209 0.792397 0.517086 0.242418
C45   C     C_R   0.722760 0.627664 0.387880 0.645790
N4    N     N_R   0.590493 0.649416 0.352170 -0.577676
C46   C     C_R   0.432428 0.694195 0.373370 0.674206
O15   O     O_2   0.159807 0.808233 0.638725 -0.491797
O16   O     O_2   0.719101 0.695396 0.662765 -0.495211
H5    H     H_    0.910477 0.639057 0.574502 0.179063
O17   O     O_2   0.874447 0.582496 0.364719 -0.461611
O18   O     O_2   0.305058 0.712524 0.336038 -0.479541
C47   C     C_R   0.723468 0.669071 0.260780 0.245135
C48   C     C_R   0.741140 0.644098 0.200662 0.169808
C49   C     C_R   0.647677 0.573555 0.169637 -0.213931
C50   C     C_R   0.539750 0.528110 0.200170 0.120262
C51   C     C_R   0.525669 0.553223 0.259986 -0.033350
H6    H     H_    0.442539 0.518191 0.282909 0.194329
C52   C     C_R   0.615387 0.623397 0.290656 0.186756
C53   C     C_R   0.655663 0.840109 0.749042 0.214802
C54   C     C_R   0.631708 0.871614 0.808189 -0.277474
H7    H     H_    0.747474 0.863749 0.836803 0.158534
C55   C     C_R   0.469180 0.916553 0.830343 -0.162581
C56   C     C_R   0.339158 0.937159 0.790857 0.150209
C57   C     C_R   0.366129 0.906920 0.731163 0.208879
C58   C     C_R   0.502007 0.843912 0.710025 0.243742
C59   C     C_2   0.642784 0.269842 0.002054 -0.328518
H8    H     H_    0.777376 0.239123 0.005496 0.166526
C60   C     C_2   0.472728 0.230207 0.998061 -0.305632
H9    H     H_    0.338121 0.260953 0.994700 0.157956
O19   O     O_R   0.618210 0.960470 0.922400 -0.540741
O20   O     O_R   0.291310 0.111960 0.995450 -0.535908
O21   O     O_R   0.124210 0.039530 0.077580 -0.517330
C61   C     C_R   0.461067 0.145076 0.998419 0.804186
O22   O     O_R   0.288310 0.965490 0.917650 -0.552386
O23   O     O_R   0.121180 0.892010 0.999220 -0.522161
C62   C     C_R   0.456788 0.949731 0.893841 0.726511
O24   O     O_R   0.621230 0.107990 0.000760 -0.538951
O25   O     O_3   0.455770 0.976060 0.026840 -0.357907
V3    V     V_3+5 0.179680 0.004440 0.995020 1.483829
O26   O     O_R   0.791670 0.888040 0.004570 -0.537181
C63   C     C_R   0.961509 0.854780 0.000454 0.766732
O27   O     O_R   0.794680 0.034510 0.082370 -0.546373
C64   C     C_R   0.963746 0.051517 0.105768 0.792251
V4    V     V_3+5 0.680070 0.995560 0.005010 1.481596
O28   O     O_3   0.953840 0.023940 0.973160 -0.383226
N5    N     N_3   0.295506 0.780563 0.035667 -0.642778
H10   H     H_    0.319007 0.766258 0.074895 0.222402
H11   H     H_    0.419596 0.765762 0.011005 0.280293
N6    N     N_3   0.058598 0.293602 0.257248 -0.567531
H12   H     H_    0.000664 0.318605 0.297693 0.275018
H13   H     H_    0.195446 0.316594 0.252637 0.320024
N7    N     N_3   0.802583 0.375553 0.832503 -0.631823
H14   H     H_    0.837664 0.332863 0.854905 0.207568
H15   H     H_    0.686563 0.351579 0.805970 0.256992
N8    N     N_3   0.789276 0.338163 0.709460 -0.693665
H16   H     H_    0.771854 0.369374 0.677744 0.240858
H17   H     H_    0.792012 0.277307 0.690007 0.274451
N9    N     N_3   0.995785 0.580066 0.466408 -0.551453
H18   H     H_    0.121417 0.610370 0.483788 0.235252
H19   H     H_    0.984167 0.529096 0.482031 0.252005
N10   N     N_3   0.101460 0.790545 0.419790 -0.565290
H20   H     H_    0.964615 0.771421 0.428677 0.244403
H21   H     H_    0.101847 0.852555 0.427761 0.313766
Br1   Br    Br    0.998115 0.861044 0.545512 -0.484040
N11   N     N_3   0.815126 0.741619 0.290980 -0.546274
H22   H     H_    0.709714 0.779602 0.313746 0.260400
H23   H     H_    0.912168 0.727968 0.320475 0.285856
Br2   Br    Br    0.765607 0.708011 0.948284 -0.561242
N12   N     N_3   0.850105 0.692718 0.171788 -0.589339
H24   H     H_    0.761540 0.708073 0.140867 0.217548
H25   H     H_    0.966581 0.659536 0.151144 0.233488
N13   N     N_3   0.445758 0.455190 0.171585 -0.605101
H26   H     H_    0.547416 0.417511 0.146645 0.241880
H27   H     H_    0.338101 0.467860 0.144583 0.254514
N14   N     N_3   0.847615 0.818934 0.729253 -0.545493
H28   H     H_    0.901725 0.777793 0.750673 0.267077
H29   H     H_    0.933681 0.869983 0.741257 0.239088
N15   N     N_3   0.190101 0.995056 0.809690 -0.632880
H30   H     H_    0.251377 0.046588 0.835986 0.230837
H31   H     H_    0.088979 0.971639 0.833131 0.231043
N16   N     N_3   0.288753 0.954344 0.694916 -0.581942
H32   H     H_    0.359216 0.943915 0.655523 0.259682
H33   H     H_    0.140102 0.945109 0.689391 0.304403
Br3   Br    Br    0.344808 0.443770 0.411940 -0.478317
Br4   Br    Br    0.918419 0.010028 0.453413 -0.380640
Br5   Br    Br    0.686237 0.079396 0.316992 -0.365800
N17   N     N_3   0.759780 0.990372 0.192561 -0.564509
H34   H     H_    0.643742 0.001211 0.167617 0.254151
H35   H     H_    0.843979 0.944466 0.168014 0.229386
Br6   Br    Br    0.142362 0.223902 0.130302 -0.533700

loop_
_geom_bond_atom_site_label_1
_geom_bond_atom_site_label_2
_ccdc_geom_bond_type
O23   V3    S    
C33   N3    A    
N14   H29   S    
C21   C22   A    
C6    Br2   S    
C7    N1    A    
C39   N9    S    
C1    O6    A    
C5    N5    S    
C53   N14   S    
N16   H32   S    
C34   C35   A    
C27   C28   A    
C8    O12   S    
C48   C49   A    
N7    H14   S    
C50   N13   S    
O19   V4    S    
C13   C14   A    
C16   C17   A    
C15   C16   A    
C54   C55   A    
N11   H22   S    
N4    C46   A    
O5    C3    A    
C17   C18   A    
O27   C64   A    
C45   O17   S    
V2    O10   S    
V4    O28   S    
N5    H10   S    
N4    C52   S    
O9    C4    A    
C12   H1    S    
C18   H2    S    
O8    V2    S    
C27   H3    S    
C37   C44   A    
C45   N4    A    
C28   C29   A    
C9    C12   A    
C21   C26   A    
O25   V4    S    
O1    V2    S    
C19   O13   S    
C55   C62   S    
O7    V1    S    
C35   C38   A    
N8    H17   S    
C43   C44   A    
C36   C37   A    
C34   O16   S    
C33   C37   A    
N2    C26   S    
C4    C5    S    
C38   C39   A    
C48   N12   S    
C53   C58   A    
O26   C63   A    
N16   H33   S    
O20   V3    S    
C60   C61   S    
N2    C20   A    
C30   N7    S    
O23   C63   A    
N15   H30   S    
C20   O14   S    
C47   C48   A    
N1    C32   S    
C47   C52   A    
O4    C2    A    
C55   C56   A    
N13   H26   S    
C17   Br4   S    
C21   Br5   S    
C38   H5    S    
C35   C36   A    
C31   C32   A    
C2    C59   S    
C16   C20   A    
C29   C30   A    
C42   C46   A    
O2    C1    A    
C23   C24   A    
C1    C49   S    
C39   C40   A    
C25   N6    S    
C47   N11   S    
C59   C60   D    
C53   C54   A    
O19   C62   A    
N17   H34   S    
C61   O24   A    
N1    C8    A    
C31   N8    S    
C5    C6    D    
C36   C41   A    
C57   N16   S    
C23   C64   S    
C10   C15   A    
C54   H7    S    
N8    H16   S    
C13   Br3   S    
C22   N17   S    
O3    C4    A    
C27   C32   A    
N13   H27   S    
N3    C58   S    
O21   C64   A    
C42   C43   A    
O6    V2    S    
O22   C62   A    
O9    V2    S    
N12   H24   S    
N15   H31   S    
C50   C51   A    
N3    C34   A    
N9    H19   S    
O2    V1    S    
O26   V4    S    
C3    C29   S    
C30   C31   A    
N10   H21   S    
N6    H12   S    
C40   C45   A    
C14   C19   A    
O1    C2    A    
C24   C25   A    
C51   H6    S    
O5    V1    S    
N14   H28   S    
O20   C61   A    
C43   N10   S    
V3    O28   S    
C24   Br6   S    
C41   C42   A    
C7    C11   A    
C12   C13   A    
C11   C18   A    
O4    V1    S    
O3    V1    S    
C7    O11   S    
C44   Br1   S    
C19   N2    A    
C49   C50   A    
C59   H8    S    
N10   H20   S    
O27   V4    S    
O24   V4    S    
C60   H9    S    
C51   C52   A    
N7    H15   S    
N17   H35   S    
C56   N15   S    
O7    V2    S    
O25   V3    S    
N5    H11   S    
C6    C63   S    
C10   C11   A    
C40   C41   A    
C25   C26   A    
C57   C58   A    
C46   O18   S    
C56   C57   A    
C28   H4    S    
C22   C23   A    
O21   V3    S    
C14   C15   A    
N12   H25   S    
C9    C10   A    
V1    O10   S    
N6    H13   S    
N9    H18   S    
C8    C9    A    
C33   O15   S    
O22   V3    S    
O8    C3    A    
N11   H23   S    
