data_mof_unit_57631.cif
_audit_creation_date              2013-03-05T16:35:53-0500
_audit_creation_method            fapswitch 2.2
_symmetry_space_group_name_H-M    P1
_symmetry_Int_Tables_number       1
_space_group_crystal_system       triclinic
_cell_length_a                    23.52794
_cell_length_b                    9.08808
_cell_length_c                    7.780591
_cell_angle_alpha                 89.96451
_cell_angle_beta                  90.0
_cell_angle_gamma                 90.000011
_cell_volume                      1663.67522214

loop_
_atom_site_label
_atom_site_type_symbol
_atom_site_description
_atom_site_fract_x
_atom_site_fract_y
_atom_site_fract_z
_atom_type_partial_charge
O1    O     O_R   0.500000 0.288390 0.642760 -0.574523
O2    O     O_R   0.500000 0.711610 0.357240 -0.574523
O3    O     O_R   0.500000 0.711610 0.642760 -0.574893
O4    O     O_R   0.500000 0.288390 0.357240 -0.574893
H1    H     H_    0.948326 0.134911 0.414889 0.188906
H2    H     H_    0.051629 0.865097 0.585050 0.188947
H3    H     H_    0.948326 0.865089 0.585110 0.188906
H4    H     H_    0.051629 0.134903 0.414950 0.188947
C1    C     C_R   0.500000 0.220008 0.500032 0.852630
C2    C     C_R   0.500000 0.779992 0.499968 0.852630
O5    O     O_R   0.417880 0.500000 0.642820 -0.585081
O6    O     O_R   0.582120 0.500000 0.357180 -0.585099
O7    O     O_R   0.582120 0.500000 0.642820 -0.585099
O8    O     O_R   0.417880 0.500000 0.357180 -0.585081
C3    C     C_R   0.208793 0.500000 0.500000 0.358888
C4    C     C_R   0.791203 0.500000 0.500000 0.360490
C5    C     C_R   0.390585 0.500000 0.500000 0.796582
C6    C     C_R   0.609418 0.500000 0.500000 0.796585
Cu1   Cu    Cu3+1 0.500000 0.500000 0.669080 1.007473
Cu2   Cu    Cu3+1 0.500000 0.500000 0.330920 1.007473
H5    H     H_    0.215681 0.518782 0.775668 0.137933
H6    H     H_    0.784350 0.510304 0.776434 0.136965
H7    H     H_    0.215681 0.481219 0.224332 0.137933
H8    H     H_    0.784350 0.489696 0.223566 0.136965
C7    C     C_R   0.297818 0.510385 0.655489 -0.206447
C8    C     C_R   0.702198 0.505668 0.655928 -0.205836
C9    C     C_R   0.297818 0.489615 0.344511 -0.206447
C10   C     C_R   0.702198 0.494332 0.344072 -0.205836
C11   C     C_R   0.327998 0.500000 0.500000 -0.038669
C12   C     C_R   0.672011 0.500000 0.500000 -0.038676
C13   C     C_R   0.880454 0.628886 0.530541 0.536055
C14   C     C_R   0.119503 0.371092 0.469579 0.535863
C15   C     C_R   0.880454 0.371114 0.469459 0.536055
C16   C     C_R   0.119503 0.628908 0.530421 0.535863
N1    N     N_R   0.852074 0.500000 0.500000 -0.474413
N2    N     N_R   0.147901 0.500000 0.500000 -0.474119
C17   C     C_R   0.940070 0.368337 0.469008 -0.013601
C18   C     C_R   0.059887 0.631664 0.530949 -0.013457
C19   C     C_R   0.940070 0.631663 0.530992 -0.013601
C20   C     C_R   0.059887 0.368337 0.469051 -0.013457
C21   C     C_R   0.969990 0.500000 0.500000 -0.017314
C22   C     C_R   0.029968 0.500000 0.500000 -0.017332
C23   C     C_R   0.970328 0.237590 0.438722 -0.164971
C24   C     C_R   0.029628 0.762414 0.561242 -0.164912
C25   C     C_R   0.970328 0.762410 0.561278 -0.164971
C26   C     C_R   0.029628 0.237587 0.438758 -0.164912
C27   C     C_1   0.500000 0.065378 0.500045 -0.166524
C28   C     C_1   0.500000 0.934622 0.499955 -0.166525
C29   C     C_R   0.238551 0.510701 0.655259 -0.098375
C30   C     C_R   0.761465 0.505943 0.655708 -0.098932
C31   C     C_R   0.238551 0.489300 0.344741 -0.098375
C32   C     C_R   0.761466 0.494057 0.344292 -0.098932
N3    N     N_1   0.500000 0.500000 0.076820 -0.049446
N4    N     N_1   0.500000 0.500000 0.923180 -0.049446
O9    O     O_2   0.851021 0.753894 0.559444 -0.514797
O10   O     O_2   0.148918 0.246002 0.440974 -0.515158
O11   O     O_2   0.851021 0.246106 0.440556 -0.514797
O12   O     O_2   0.148918 0.753999 0.559026 -0.515158
H9    H     H_    0.319940 0.518622 0.777163 0.160726
H10   H     H_    0.680084 0.510075 0.777969 0.160543
H11   H     H_    0.319940 0.481378 0.222837 0.160726
H12   H     H_    0.680084 0.489925 0.222031 0.160543

loop_
_geom_bond_atom_site_label_1
_geom_bond_atom_site_label_2
_geom_bond_distance
_ccdc_geom_bond_type
H8    C32   1.083440 S    
C7    C11   1.406015 A    
C18   C24   1.405252 A    
C6    C12   1.472698 S    
C3    C31   1.399676 A    
C9    C11   1.406014 A    
C5    C11   1.472543 S    
C21   C22   1.411156 A    
H7    C31   1.082919 S    
Cu1   Cu2   2.631085 S    
H6    C30   1.083442 S    
C19   C25   1.405213 A    
O3    Cu1   1.933875 S    
O6    Cu2   1.942888 S    
C10   C12   1.406781 A    
C9    H11   1.082970 S    
H1    C23   1.083213 S    
Cu2   N3    1.977047 S    
C19   C21   1.409191 A    
O3    C2    1.272673 A    
H2    C24   1.083213 S    
N3    N4    1.195411 T    
C3    C29   1.399676 A    
C20   C26   1.405253 A    
C10   C32   1.394448 A    
O8    C5    1.283440 A    
O5    Cu1   1.942890 S    
O7    C6    1.283480 A    
C17   C21   1.409192 A    
H3    C25   1.083212 S    
Cu1   N4    1.977047 S    
H5    C29   1.082920 S    
C15   N1    1.369183 A    
C9    C31   1.394437 A    
C18   C22   1.409133 A    
C16   N2    1.369393 A    
C8    C30   1.394445 A    
C4    N1    1.432176 S    
C2    C28   1.405292 S    
C4    C30   1.400094 A    
C23   C26   1.395188 A    
C13   N1    1.369183 A    
C17   C23   1.405212 A    
O1    Cu1   1.934128 S    
C1    C27   1.405292 S    
O7    Cu1   1.942888 S    
O2    Cu2   1.934127 S    
O4    Cu2   1.933876 S    
C14   N2    1.369393 A    
C3    N2    1.432668 S    
C14   C20   1.402878 A    
O1    C1    1.272906 A    
C24   C25   1.395188 A    
O8    Cu2   1.942890 S    
C4    C32   1.400094 A    
O6    C6    1.283481 A    
C16   O12   1.349515 S    
O5    C5    1.283439 A    
C15   O11   1.349497 S    
C7    H9    1.082970 S    
H4    C26   1.083213 S    
C13   O9    1.349496 S    
O4    C1    1.272673 A    
C16   C18   1.402878 A    
C8    H10   1.083514 S    
C14   O10   1.349515 S    
O2    C2    1.272906 A    
C15   C17   1.402866 A    
C27   C28   1.188317 T    
C13   C19   1.402866 A    
C20   C22   1.409132 A    
C8    C12   1.406781 A    
C7    C29   1.394437 A    
C10   H12   1.083513 S    
