data_mof_unit_7347.cif
_audit_creation_date              2012-12-10T17:48:48-0500
_audit_creation_method            fapswitch 2.2
_symmetry_space_group_name_H-M    P1
_symmetry_Int_Tables_number       1
_space_group_crystal_system       triclinic
_cell_length_a                    15.734069
_cell_length_b                    10.697112
_cell_length_c                    9.953137
_cell_angle_alpha                 88.718559
_cell_angle_beta                  89.388319
_cell_angle_gamma                 93.042489
_cell_volume                      1672.30579217

loop_
_atom_site_label
_atom_site_type_symbol
_atom_type_description
_atom_site_fract_x
_atom_site_fract_y
_atom_site_fract_z
_atom_type_partial_charge
C1    C     C_R   0.509004 0.261006 0.502689 0.882863
C2    C     C_R   0.461998 0.041636 0.869201 -0.166056
C3    C     C_R   0.417994 0.927583 0.850105 -0.149415
C4    C     C_R   0.338505 0.500085 0.500672 0.875468
C5    C     C_R   0.419758 0.873206 0.724249 -0.122177
C6    C     C_R   0.465244 0.933577 0.615059 0.062373
C7    C     C_R   0.496369 0.057271 0.628729 0.089022
C8    C     C_R   0.520887 0.127226 0.510375 -0.224339
C9    C     C_R   0.536131 0.067056 0.389448 -0.049328
C10   C     C_R   0.506742 0.943378 0.375554 0.115184
C11   C     C_R   0.480650 0.873406 0.493029 -0.217350
C12   C     C_3   0.946118 0.464334 0.640095 -0.436370
C13   C     C_R   0.358809 0.376005 0.136048 0.181929
C14   C     C_R   0.283008 0.370999 0.062568 -0.203031
C15   C     C_R   0.289705 0.350967 0.925446 -0.005828
C16   C     C_R   0.491413 0.739270 0.497938 0.883478
C17   C     C_R   0.368161 0.374088 0.861698 -0.176909
C18   C     C_R   0.434333 0.438444 0.928714 0.070784
C19   C     C_R   0.432267 0.439371 0.072819 0.076768
C20   C     C_R   0.564693 0.554365 0.070743 -0.125890
C21   C     C_R   0.563981 0.559301 0.928300 0.200481
C22   C     C_R   0.661491 0.501270 0.499211 0.908574
C23   C     C_3   0.917051 0.503522 0.497987 0.312415
C24   C     C_3   0.044265 0.459270 0.642341 -0.126618
C25   C     C_3   0.046285 0.410456 0.392472 -0.155610
C26   C     C_3   0.947685 0.409055 0.394701 -0.421408
C27   C     C_1   0.750381 0.503266 0.497433 -0.185459
C28   C     C_3   0.082419 0.500975 0.501678 0.244764
C29   C     C_1   0.080338 0.534882 0.752728 0.172027
C30   C     C_1   0.582730 0.132423 0.279559 0.191862
C31   C     C_3   0.489237 0.896981 0.234181 -0.352982
C32   C     C_3   0.569011 0.857056 0.161590 -0.825819
C33   C     C_3   0.369054 0.259958 0.224971 -0.324178
C34   C     C_3   0.956653 0.635646 0.461897 -0.397666
C35   C     C_3   0.311883 0.142967 0.194869 -0.969057
C36   C     C_1   0.220662 0.288318 0.855802 0.169213
C37   C     C_3   0.635410 0.637666 0.860796 -0.362598
C38   C     C_3   0.719050 0.571104 0.864672 -0.852371
C39   C     C_1   0.075651 0.281989 0.409227 0.146895
C40   C     C_3   0.054682 0.634623 0.465187 -0.418846
C41   C     C_1   0.825705 0.504356 0.496703 -0.102136
C42   C     C_1   0.174346 0.501525 0.501949 -0.092882
C43   C     C_1   0.249654 0.500997 0.501820 -0.164173
C44   C     C_R   0.501862 0.105369 0.760411 -0.138265
H1    H     H_    0.916716 0.370361 0.668741 0.165890
H2    H     H_    0.223290 0.343873 0.113164 0.158971
H3    H     H_    0.376911 0.339771 0.762393 0.207098
H4    H     H_    0.069531 0.445672 0.291790 0.137858
H5    H     H_    0.918877 0.313947 0.420481 0.178325
H6    H     H_    0.924938 0.434453 0.292601 0.166254
H7    H     H_    0.079704 0.703150 0.539445 0.192005
H8    H     H_    0.081433 0.665640 0.365159 0.175872
H9    H     H_    0.934355 0.704929 0.534432 0.177577
H10   H     H_    0.605192 0.793157 0.225740 0.267659
H11   H     H_    0.549343 0.809669 0.068251 0.234463
H12   H     H_    0.922899 0.531197 0.714801 0.176503
H13   H     H_    0.611771 0.938661 0.131727 0.251870
H14   H     H_    0.438728 0.820540 0.234417 0.218234
H15   H     H_    0.461543 0.972707 0.173722 0.181196
H16   H     H_    0.331284 0.063117 0.258631 0.255994
H17   H     H_    0.318324 0.117340 0.087834 0.271793
H18   H     H_    0.244253 0.157686 0.219563 0.280076
H19   H     H_    0.433978 0.228762 0.207173 0.229799
H20   H     H_    0.356213 0.281381 0.331179 0.239705
H21   H     H_    0.710666 0.474968 0.825432 0.278828
H22   H     H_    0.767965 0.624848 0.802472 0.243418
H23   H     H_    0.936200 0.665691 0.359966 0.175643
H24   H     H_    0.742361 0.564672 0.969395 0.242366
H25   H     H_    0.619943 0.665938 0.757624 0.261292
H26   H     H_    0.644938 0.727630 0.913561 0.170405
H27   H     H_    0.539384 0.189570 0.782894 0.171169
H28   H     H_    0.464694 0.082020 0.967787 0.144762
H29   H     H_    0.384628 0.879547 0.933527 0.140189
H30   H     H_    0.384788 0.784264 0.712694 0.157675
H31   H     H_    0.617272 0.598371 0.124239 0.152676
H32   H     H_    0.059805 0.360967 0.663798 0.160898
N1    N     N_R   0.499210 0.498800 0.142780 -0.125523
N2    N     N_R   0.499180 0.498720 0.857170 -0.133038
N3    N     N_1   0.108689 0.593905 0.839104 -0.213273
N4    N     N_1   0.619768 0.185034 0.192450 -0.222086
N5    N     N_1   0.165655 0.236189 0.800353 -0.223105
N6    N     N_1   0.098740 0.181565 0.422388 -0.207153
O1    O     O_R   0.500000 0.316780 0.614690 -0.645884
O2    O     O_R   0.499990 0.316750 0.385360 -0.632574
O3    O     O_R   0.377150 0.500020 0.614720 -0.629371
O4    O     O_R   0.377140 0.499990 0.385380 -0.626912
O5    O     O_R   0.500010 0.683250 0.614640 -0.639851
O6    O     O_R   0.500000 0.683220 0.385310 -0.606207
O7    O     O_R   0.622860 0.500010 0.614620 -0.620904
O8    O     O_R   0.622850 0.499980 0.385280 -0.610216
Zn1   Zn    Zn3+2 0.500010 0.500020 0.653130 0.917317
Zn2   Zn    Zn3+2 0.499990 0.499980 0.346870 0.934974

loop_
_geom_bond_atom_site_label_1
_geom_bond_atom_site_label_2
_ccdc_geom_bond_type
N1    Zn2   S    
O5    Zn1   S    
C1    C8    S    
O3    Zn1   S    
C7    C8    A    
C14   H2    S    
C1    O2    A    
C12   C23   S    
C20   N1    A    
C34   C40   S    
C31   H14   S    
C37   H25   S    
C26   H6    S    
C5    C6    A    
C4    O4    A    
C28   C40   S    
C44   H27   S    
C18   C19   A    
C23   C26   S    
C31   H15   S    
C5    H30   S    
C19   N1    A    
C24   C29   S    
C10   C31   S    
O6    Zn2   S    
C2    C44   A    
C8    C9    A    
C21   N2    A    
C16   O5    A    
O7    Zn1   S    
C9    C10   A    
C32   H11   S    
C18   N2    A    
C30   N4    T    
C37   H26   S    
C32   H13   S    
C2    H28   S    
C32   H10   S    
C13   C19   A    
C24   C28   S    
C26   H5    S    
C6    C11   A    
C24   H32   S    
C4    O3    A    
C25   C26   S    
C40   H8    S    
C20   H31   S    
C35   H16   S    
C25   C28   S    
C13   C33   S    
C37   C38   S    
C11   C16   S    
C27   C41   T    
O8    Zn2   S    
C31   C32   S    
C29   N3    T    
C38   H21   S    
C36   N5    T    
C33   H19   S    
C23   C34   S    
C17   C18   A    
C22   O8    A    
C35   H17   S    
C7    C44   A    
C25   H4    S    
C12   H12   S    
C9    C30   S    
C38   H24   S    
C22   C27   S    
C42   C43   T    
C15   C36   S    
C15   C17   A    
C38   H22   S    
C17   H3    S    
C39   N6    T    
C12   H1    S    
C3    C5    A    
C34   H23   S    
C6    C7    A    
C4    C43   S    
N2    Zn1   S    
C1    O1    A    
C40   H7    S    
O1    Zn1   S    
C12   C24   S    
C23   C41   S    
C2    C3    A    
O4    Zn2   S    
C25   C39   S    
C33   H20   S    
C28   C42   S    
C33   C35   S    
C22   O7    A    
C35   H18   S    
C3    H29   S    
C10   C11   A    
C21   C37   S    
C20   C21   A    
C34   H9    S    
C16   O6    A    
C14   C15   A    
O2    Zn2   S    
C13   C14   A    
