data_mof_unit_60394.cif
_audit_creation_date              2012-12-10T16:58:59-0500
_audit_creation_method            fapswitch 2.2
_symmetry_space_group_name_H-M    P1
_symmetry_Int_Tables_number       1
_space_group_crystal_system       triclinic
_cell_length_a                    30.921983
_cell_length_b                    30.625138
_cell_length_c                    24.568937
_cell_angle_alpha                 89.842735
_cell_angle_beta                  127.586214
_cell_angle_gamma                 90.053375
_cell_volume                      18437.1743754

loop_
_atom_site_label
_atom_site_type_symbol
_atom_type_description
_atom_site_fract_x
_atom_site_fract_y
_atom_site_fract_z
_atom_type_partial_charge
C1    C     C_R   0.692980 0.190459 0.503911 0.792321
C2    C     C_R   0.535873 0.240770 0.069970 0.452796
C3    C     C_R   0.578890 0.817366 0.594123 0.301178
C4    C     C_R   0.917485 0.358888 0.424893 -0.154626
C5    C     C_R   0.069890 0.355897 0.558811 -0.159841
C6    C     C_R   0.412929 0.860063 0.419866 -0.153912
C7    C     C_R   0.568116 0.855348 0.556231 -0.164131
C8    C     C_R   0.894177 0.368189 0.458269 0.055581
C9    C     C_R   0.099782 0.366433 0.534374 0.031710
C10   C     C_R   0.391669 0.869101 0.455710 0.059637
C11   C     C_R   0.598876 0.866141 0.533125 0.030664
C12   C     C_R   0.852825 0.340901 0.447451 -0.046883
C13   C     C_R   0.966400 0.739860 0.930817 0.449380
C14   C     C_R   0.139889 0.337278 0.545508 -0.041502
C15   C     C_R   0.349695 0.842682 0.444818 -0.047859
C16   C     C_R   0.639092 0.836967 0.544590 -0.042088
C17   C     C_R   0.839822 0.343697 0.494038 -0.127647
C18   C     C_R   0.160173 0.343489 0.506809 -0.130985
C19   C     C_R   0.339622 0.843868 0.494217 -0.127392
C20   C     C_R   0.660134 0.843480 0.506804 -0.131458
C21   C     C_R   0.861669 0.377835 0.542597 0.250629
C22   C     C_R   0.145228 0.381298 0.465521 0.253949
C23   C     C_R   0.364055 0.876520 0.545265 0.250048
C24   C     C_R   0.034221 0.739535 0.069848 0.449530
C25   C     C_R   0.645872 0.881608 0.466314 0.252546
C26   C     C_R   0.895274 0.408834 0.544083 -0.254410
C27   C     C_R   0.112087 0.412634 0.464121 -0.254826
C28   C     C_R   0.397714 0.907474 0.546697 -0.253984
C29   C     C_R   0.612753 0.912959 0.464931 -0.252763
C30   C     C_R   0.911185 0.404370 0.502151 -0.124017
C31   C     C_R   0.089831 0.405499 0.498313 -0.119406
C32   C     C_R   0.411303 0.904106 0.502184 -0.126057
C33   C     C_R   0.589735 0.905515 0.498126 -0.115875
C34   C     C_R   0.058904 0.440486 0.499376 0.795464
C35   C     C_R   0.722380 0.145035 0.630944 -0.099200
C36   C     C_R   0.941829 0.439701 0.500732 0.792339
C37   C     C_R   0.558898 0.940500 0.499348 0.798775
C38   C     C_R   0.441977 0.939506 0.500734 0.791447
C39   C     C_R   0.817286 0.251502 0.632570 0.825258
C40   C     C_R   0.182718 0.251762 0.367594 0.812885
C41   C     C_R   0.317308 0.751483 0.632614 0.823761
C42   C     C_R   0.682754 0.751734 0.367605 0.812412
C43   C     C_R   0.557000 0.061891 0.499308 0.858168
C44   C     C_R   0.442998 0.061942 0.500624 0.863005
C45   C     C_R   0.056674 0.562162 0.499188 0.854782
C46   C     C_R   0.273963 0.138504 0.372057 -0.193434
C47   C     C_R   0.942866 0.561860 0.500602 0.864862
C48   C     C_R   0.641652 0.209225 0.255235 0.230486
C49   C     C_R   0.350398 0.214552 0.747100 0.224313
C50   C     C_R   0.145325 0.710475 0.254703 0.249656
C51   C     C_R   0.850205 0.714349 0.746753 0.222825
C52   C     C_R   0.606451 0.208245 0.183382 -0.276649
C53   C     C_R   0.386236 0.214009 0.818942 -0.301009
C54   C     C_R   0.110009 0.709723 0.182855 -0.293501
C55   C     C_R   0.885965 0.713660 0.818545 -0.300121
C56   C     C_R   0.573413 0.243847 0.145242 -0.030874
C57   C     C_R   0.220238 0.647112 0.631686 -0.095328
C58   C     C_R   0.430034 0.242806 0.855566 -0.029029
C59   C     C_R   0.071029 0.742261 0.145177 -0.028325
C60   C     C_R   0.929548 0.742644 0.855412 -0.030057
C61   C     C_R   0.574913 0.281655 0.178675 0.210069
C62   C     C_R   0.438096 0.274023 0.820541 0.209169
C63   C     C_R   0.066091 0.776424 0.179143 0.211915
C64   C     C_R   0.937397 0.774232 0.820584 0.209723
C65   C     C_R   0.608564 0.282763 0.251444 0.173957
C66   C     C_R   0.402257 0.275438 0.747792 0.155763
C67   C     C_R   0.100349 0.777278 0.251883 0.164890
C68   C     C_R   0.772953 0.637431 0.372789 -0.193775
C69   C     C_R   0.901738 0.775679 0.747851 0.154345
C70   C     C_3   0.717172 0.160943 0.292671 -0.577751
C71   C     C_3   0.317936 0.143927 0.693002 -0.600828
C72   C     C_3   0.226922 0.671011 0.290562 -0.570895
C73   C     C_3   0.818053 0.643746 0.692477 -0.599606
C74   C     C_2   0.537630 0.089328 0.369403 0.930057
C75   C     C_2   0.466441 0.092160 0.631945 0.954082
C76   C     C_2   0.040699 0.586825 0.370437 0.937719
C77   C     C_2   0.966455 0.592214 0.632024 0.952379
C78   C     C_2   0.932021 0.221985 0.707560 0.877832
C79   C     C_R   0.723888 0.142498 0.689633 0.204505
C80   C     C_2   0.065848 0.232769 0.295309 0.889036
C81   C     C_2   0.431002 0.718576 0.708385 0.878133
C82   C     C_2   0.565724 0.733808 0.295446 0.889179
C83   C     C_3   0.040545 0.260413 0.856501 -0.645915
C84   C     C_3   0.960965 0.274046 0.145595 -0.645148
C85   C     C_3   0.540874 0.756232 0.856983 -0.645585
C86   C     C_3   0.461364 0.775636 0.145835 -0.643879
C87   C     C_3   0.748511 0.259190 0.702244 -0.596350
C88   C     C_3   0.251849 0.248823 0.300427 -0.644409
C89   C     C_3   0.249038 0.762726 0.703229 -0.595116
C90   C     C_R   0.269107 0.132568 0.311302 0.194123
C91   C     C_3   0.751862 0.747110 0.300835 -0.645236
C92   C     C_3   0.885697 0.356526 0.652349 -0.643745
C93   C     C_3   0.128843 0.367809 0.357747 -0.618970
C94   C     C_3   0.391129 0.852451 0.655370 -0.651299
C95   C     C_3   0.630405 0.868930 0.358912 -0.616075
C96   C     C_2   0.767145 0.301392 0.350276 0.830903
C97   C     C_2   0.213339 0.284905 0.636105 0.862448
C98   C     C_2   0.259836 0.808358 0.346008 0.824652
C99   C     C_2   0.711716 0.783973 0.634949 0.865091
C100  C     C_3   0.956336 0.343896 0.343164 -0.631725
C101  C     C_R   0.220240 0.645467 0.689291 0.204550
C102  C     C_3   0.042301 0.337660 0.655684 -0.648356
C103  C     C_3   0.452504 0.843288 0.339703 -0.631365
C104  C     C_3   0.539851 0.836241 0.652452 -0.650074
C105  C     C_3   0.567221 0.345450 0.115106 -0.659510
C106  C     C_3   0.471046 0.341426 0.885121 -0.665284
C107  C     C_3   0.044251 0.843910 0.115981 -0.654649
C108  C     C_3   0.968856 0.841648 0.885112 -0.664467
C109  C     C_3   0.568329 0.320851 0.296944 -0.645323
C110  C     C_3   0.449384 0.297780 0.701005 -0.585572
C111  C     C_3   0.055984 0.799651 0.300955 -0.642612
C112  C     C_R   0.307080 0.190422 0.496199 0.782939
C113  C     C_R   0.767401 0.631131 0.311648 0.194866
C114  C     C_3   0.948942 0.798733 0.701484 -0.585923
C115  C     C_2   0.600286 0.159300 0.373948 0.852434
C116  C     C_2   0.404804 0.163739 0.627504 0.814528
C117  C     C_2   0.105635 0.654483 0.374654 0.812106
C118  C     C_2   0.905331 0.664290 0.627566 0.816410
C119  C     C_2   0.774413 0.143884 0.639945 0.851495
C120  C     C_2   0.224375 0.135043 0.368895 0.906071
C121  C     C_2   0.273104 0.645919 0.642682 0.844084
C122  C     C_2   0.723810 0.634013 0.370563 0.908609
C123  C     C_3   0.802900 0.107406 0.788849 -0.590525
C124  C     C_R   0.675620 0.135169 0.681354 -0.291330
C125  C     C_3   0.193401 0.087819 0.225424 -0.606922
C126  C     C_3   0.298532 0.611665 0.791081 -0.588267
C127  C     C_3   0.691626 0.585927 0.227086 -0.609301
C128  C     C_3   0.549247 0.163219 0.588217 -0.658053
C129  C     C_3   0.442050 0.161770 0.401468 -0.656135
C130  C     C_3   0.045399 0.664573 0.585246 -0.658828
C131  C     C_3   0.939021 0.661638 0.398334 -0.646163
C132  C     C_R   0.316188 0.127709 0.315960 -0.259366
C133  C     C_R   0.171387 0.637944 0.679467 -0.290044
C134  C     C_R   0.814115 0.626391 0.315495 -0.261396
C135  C     C_R   0.627702 0.123988 0.617111 0.258475
C136  C     C_R   0.366707 0.120813 0.379660 0.257947
C137  C     C_R   0.124365 0.625931 0.614958 0.257867
C138  C     C_R   0.865012 0.619950 0.378925 0.252220
C139  C     C_R   0.628023 0.120737 0.559792 0.064028
C140  C     C_R   0.193301 0.690409 0.504495 0.790562
C141  C     C_R   0.369889 0.119267 0.439706 0.071396
C142  C     C_R   0.126024 0.622240 0.558779 0.059984
C143  C     C_R   0.868949 0.618621 0.439496 0.071935
C144  C     C_R   0.671270 0.140431 0.564626 -0.071624
C145  C     C_R   0.327129 0.138052 0.436644 -0.051035
C146  C     C_R   0.169935 0.641665 0.564746 -0.076071
C147  C     C_R   0.826432 0.637379 0.436930 -0.050701
C148  C     C_R   0.660137 0.156027 0.502909 -0.101268
C149  C     C_R   0.340433 0.156001 0.498263 -0.114684
C150  C     C_R   0.160686 0.655609 0.503436 -0.093484
C151  C     C_R   0.807129 0.690417 0.496365 0.781481
C152  C     C_R   0.840365 0.655924 0.498491 -0.115901
C153  C     C_R   0.613614 0.141694 0.438850 -0.067585
C154  C     C_R   0.389086 0.143743 0.562424 -0.066818
C155  C     C_R   0.115422 0.640141 0.439201 -0.068860
C156  C     C_R   0.889262 0.643926 0.562538 -0.067867
C157  C     C_R   0.682734 0.248701 0.367258 0.934799
C158  C     C_R   0.317345 0.248594 0.632952 0.940697
C159  C     C_R   0.182163 0.748073 0.367303 0.924107
C160  C     C_R   0.817281 0.748624 0.632919 0.938224
C161  C     C_R   0.580185 0.109675 0.436597 -0.115562
C162  C     C_R   0.643683 0.246845 0.290485 -0.094376
C163  C     C_R   0.422053 0.111281 0.564362 -0.116720
C164  C     C_R   0.080545 0.609425 0.436527 -0.106009
C165  C     C_R   0.922001 0.611268 0.564406 -0.117076
C166  C     C_R   0.587183 0.098797 0.497840 -0.190114
C167  C     C_R   0.412868 0.098899 0.502158 -0.203821
C168  C     C_R   0.086069 0.599658 0.497171 -0.187439
C169  C     C_R   0.912462 0.598634 0.502053 -0.204168
C170  C     C_R   0.912161 0.239716 0.744770 -0.085519
C171  C     C_R   0.086655 0.245070 0.256675 -0.090557
C172  C     C_R   0.411750 0.738318 0.745140 -0.084335
C173  C     C_R   0.357267 0.245924 0.709969 -0.072429
C174  C     C_R   0.586631 0.745569 0.256740 -0.092148
C175  C     C_R   0.949441 0.242725 0.817255 0.199623
C176  C     C_R   0.049346 0.248013 0.184128 0.199876
C177  C     C_R   0.449084 0.741476 0.817591 0.199603
C178  C     C_R   0.549333 0.748621 0.184199 0.199739
C179  C     C_R   0.932011 0.259800 0.854363 -0.014339
C180  C     C_R   0.068004 0.260861 0.146352 -0.015689
C181  C     C_R   0.432196 0.759959 0.854495 -0.014129
C182  C     C_R   0.568143 0.761026 0.146427 -0.015796
C183  C     C_R   0.878679 0.275513 0.818532 -0.281260
C184  C     C_R   0.141980 0.745093 0.290544 -0.082086
C185  C     C_R   0.122704 0.272725 0.181571 -0.285529
C186  C     C_R   0.379400 0.776855 0.818531 -0.281127
C187  C     C_R   0.623022 0.772304 0.181641 -0.285423
C188  C     C_R   0.841563 0.273483 0.747104 0.255973
C189  C     C_R   0.159918 0.270610 0.252972 0.232236
C190  C     C_R   0.342247 0.774729 0.747104 0.257572
C191  C     C_R   0.660231 0.770054 0.253025 0.233590
C192  C     C_R   0.857428 0.254792 0.708932 -0.126754
C193  C     C_R   0.142619 0.255784 0.291591 -0.177350
C194  C     C_R   0.357530 0.754759 0.709049 -0.126736
C195  C     C_R   0.857037 0.745946 0.709866 -0.073497
C196  C     C_R   0.642727 0.755725 0.291622 -0.178727
C197  C     C_R   0.032159 0.261176 0.070131 0.448165
C198  C     C_R   0.967735 0.260634 0.930547 0.448650
C199  C     C_R   0.532288 0.761425 0.070209 0.448193
C200  C     C_R   0.467879 0.760902 0.930641 0.449225
C201  C     C_R   0.825565 0.313030 0.389203 -0.090853
C202  C     C_R   0.157715 0.303627 0.595291 -0.086820
C203  C     C_R   0.318967 0.817359 0.383792 -0.099798
C204  C     C_R   0.656202 0.802987 0.593713 -0.087245
C205  C     C_R   0.807879 0.309608 0.497024 0.834789
C206  C     C_R   0.467072 0.240219 0.930959 0.452755
C207  C     C_R   0.192174 0.309586 0.503305 0.825910
C208  C     C_R   0.307819 0.809626 0.497020 0.833453
C209  C     C_R   0.692168 0.809587 0.503309 0.826336
C210  C     C_R   0.850337 0.303141 0.358154 -0.218711
C211  C     C_R   0.125985 0.292693 0.616621 -0.224496
C212  C     C_R   0.341402 0.807859 0.349690 -0.215874
C213  C     C_R   0.623754 0.791895 0.613935 -0.225385
C214  C     C_R   0.897340 0.324914 0.376982 0.302198
C215  C     C_R   0.081249 0.318123 0.597358 0.301525
C216  C     C_R   0.389556 0.827773 0.368909 0.303085
Cu1   Cu    Cu3+1 0.719090 0.280910 0.500010 1.013197
Cu2   Cu    Cu3+1 0.034200 0.500000 0.568440 0.980049
Cu3   Cu    Cu3+1 0.465800 1.000000 0.431560 0.978374
Cu4   Cu    Cu3+1 0.534200 1.000000 0.568440 0.980774
Cu5   Cu    Cu3+1 0.280910 0.280910 0.499990 1.007642
Cu6   Cu    Cu3+1 0.219090 0.780910 0.500010 1.002692
Cu7   Cu    Cu3+1 0.780910 0.780910 0.499990 1.006900
Cu8   Cu    Cu3+1 0.780930 0.219110 0.499990 1.034023
Cu9   Cu    Cu3+1 0.219070 0.219110 0.500010 1.080550
Cu10  Cu    Cu3+1 0.280930 0.719110 0.499990 1.046946
Cu11  Cu    Cu3+1 0.719070 0.719110 0.500010 1.081130
Cu12  Cu    Cu3+1 0.965800 0.500000 0.431560 0.971805
H1    H     H_    0.865169 0.289506 0.846329 0.166741
H2    H     H_    0.036349 0.376240 0.545953 0.122970
H3    H     H_    0.748645 0.841848 0.647432 0.287849
H4    H     H_    0.898864 0.293251 0.302548 0.249451
H5    H     H_    0.968452 0.330289 0.312370 0.234202
H6    H     H_    0.994323 0.349949 0.395637 0.238971
H7    H     H_    0.933850 0.374944 0.319026 0.220565
H8    H     H_    0.055792 0.274664 0.637875 0.258861
H9    H     H_    0.016909 0.323802 0.669467 0.242961
H10   H     H_    0.021391 0.367429 0.624511 0.236869
H11   H     H_    0.082940 0.346417 0.703669 0.219393
H12   H     H_    0.385582 0.800376 0.287703 0.248541
H13   H     H_    0.448193 0.877701 0.432583 0.129977
H14   H     H_    0.463356 0.829632 0.307613 0.233902
H15   H     H_    0.490359 0.844097 0.393557 0.239605
H16   H     H_    0.436175 0.876825 0.321277 0.222473
H17   H     H_    0.551818 0.773470 0.632140 0.259780
H18   H     H_    0.513174 0.822631 0.664395 0.243021
H19   H     H_    0.520714 0.866880 0.623008 0.236572
H20   H     H_    0.580541 0.843483 0.701453 0.219726
H21   H     H_    0.526955 0.336720 0.157605 0.258037
H22   H     H_    0.605587 0.360478 0.159648 0.225828
H23   H     H_    0.538361 0.371834 0.081278 0.225370
H24   H     H_    0.534342 0.875650 0.542780 0.121555
H25   H     H_    0.576186 0.325792 0.085141 0.248712
H26   H     H_    0.500532 0.312929 0.837053 0.265302
H27   H     H_    0.437789 0.361705 0.842009 0.217424
H28   H     H_    0.508389 0.361729 0.917320 0.227013
H29   H     H_    0.459177 0.330595 0.917511 0.249220
H30   H     H_    0.007711 0.822015 0.159189 0.257568
H31   H     H_    0.079326 0.862037 0.160444 0.226358
H32   H     H_    0.010150 0.867126 0.082659 0.226002
H33   H     H_    0.056343 0.829817 0.085439 0.245697
H34   H     H_    0.999228 0.814179 0.837449 0.265246
H35   H     H_    0.604071 0.178930 0.157033 0.165315
H36   H     H_    0.935242 0.861640 0.841890 0.216931
H37   H     H_    0.005756 0.862412 0.917387 0.228197
H38   H     H_    0.957069 0.830267 0.917368 0.245769
H39   H     H_    0.610519 0.349791 0.265342 0.271728
H40   H     H_    0.526494 0.322048 0.247631 0.200270
H41   H     H_    0.574445 0.349915 0.327838 0.227720
H42   H     H_    0.572001 0.291235 0.325591 0.266024
H43   H     H_    0.413109 0.339498 0.729972 0.255552
H44   H     H_    0.482336 0.322673 0.725563 0.180912
H45   H     H_    0.428680 0.298132 0.644956 0.262031
H46   H     H_    0.380362 0.190136 0.846573 0.166149
H47   H     H_    0.468522 0.265218 0.722049 0.248157
H48   H     H_    0.086766 0.841565 0.265246 0.267682
H49   H     H_    0.013796 0.796009 0.252768 0.205857
H50   H     H_    0.056341 0.825922 0.332270 0.226344
H51   H     H_    0.068410 0.768611 0.330488 0.252053
H52   H     H_    0.912027 0.839951 0.730134 0.255251
H53   H     H_    0.981836 0.823681 0.726525 0.180994
H54   H     H_    0.928447 0.799420 0.645494 0.261426
H55   H     H_    0.968115 0.766139 0.722180 0.248332
H56   H     H_    0.570917 0.209793 0.307819 0.314022
H57   H     H_    0.112200 0.682755 0.156121 0.165430
H58   H     H_    0.430607 0.154995 0.724557 0.328789
H59   H     H_    0.053135 0.679889 0.279541 0.324000
H60   H     H_    0.931264 0.656063 0.724761 0.328674
H61   H     H_    0.816524 0.118268 0.609434 0.345574
H62   H     H_    0.178341 0.176128 0.288075 0.305900
H63   H     H_    0.316880 0.620316 0.614573 0.348383
H64   H     H_    0.677269 0.674998 0.289745 0.305170
H65   H     H_    0.769118 0.165432 0.789022 0.244770
H66   H     H_    0.778781 0.085398 0.797146 0.202377
H67   H     H_    0.842462 0.114607 0.839302 0.229009
H68   H     H_    0.880161 0.689528 0.845943 0.167857
H69   H     H_    0.811421 0.090625 0.756274 0.241725
H70   H     H_    0.216835 0.145867 0.207371 0.251807
H71   H     H_    0.218959 0.065675 0.219881 0.212487
H72   H     H_    0.152023 0.089816 0.175401 0.230058
H73   H     H_    0.189454 0.074071 0.264083 0.249075
H74   H     H_    0.263396 0.669897 0.787620 0.244212
H75   H     H_    0.273944 0.589989 0.799012 0.201831
H76   H     H_    0.337469 0.619525 0.841865 0.229041
H77   H     H_    0.308265 0.594218 0.760175 0.242382
H78   H     H_    0.714230 0.643861 0.207587 0.251881
H79   H     H_    0.909557 0.436360 0.578768 0.172944
H80   H     H_    0.717004 0.563738 0.221286 0.212096
H81   H     H_    0.650009 0.587653 0.177383 0.230011
H82   H     H_    0.688288 0.572406 0.266381 0.248503
H83   H     H_    0.582188 0.108275 0.650003 0.279679
H84   H     H_    0.508307 0.158429 0.574992 0.245203
H85   H     H_    0.544120 0.176661 0.542565 0.220974
H86   H     H_    0.572220 0.187084 0.630981 0.231417
H87   H     H_    0.409060 0.106228 0.341688 0.274381
H88   H     H_    0.482430 0.157508 0.412751 0.253281
H89   H     H_    0.448379 0.175602 0.447561 0.218571
H90   H     H_    0.102813 0.442518 0.435066 0.166656
H91   H     H_    0.417350 0.185050 0.357958 0.228884
H92   H     H_    0.077655 0.608958 0.645483 0.281705
H93   H     H_    0.004268 0.659592 0.571318 0.243608
H94   H     H_    0.040770 0.678656 0.540240 0.220367
H95   H     H_    0.068115 0.688010 0.628658 0.232158
H96   H     H_    0.906444 0.605527 0.339920 0.285178
H97   H     H_    0.979327 0.657747 0.409273 0.258586
H98   H     H_    0.945408 0.675927 0.444214 0.215459
H99   H     H_    0.913625 0.684373 0.354203 0.223274
H100  H     H_    0.413853 0.934035 0.583320 0.174316
H101  H     H_    0.137229 0.283621 0.153302 0.169871
H102  H     H_    0.604053 0.943088 0.436605 0.169745
H103  H     H_    0.675696 0.136795 0.725464 0.149203
H104  H     H_    0.313144 0.127127 0.269637 0.142184
H105  H     H_    0.170337 0.640004 0.722671 0.150415
H106  H     H_    0.810536 0.625626 0.268805 0.142057
H107  H     H_    0.645319 0.143735 0.274645 0.287011
H108  H     H_    0.704189 0.156852 0.239677 0.206678
H109  H     H_    0.736775 0.130169 0.321634 0.211155
H110  H     H_    0.747962 0.187255 0.319047 0.278094
H111  H     H_    0.290848 0.177833 0.739436 0.272065
H112  H     H_    0.366340 0.791842 0.846242 0.166425
H113  H     H_    0.353743 0.126940 0.738571 0.217535
H114  H     H_    0.325621 0.150907 0.655304 0.253117
H115  H     H_    0.281952 0.122007 0.667955 0.225766
H116  H     H_    0.158487 0.644799 0.273917 0.273149
H117  H     H_    0.214089 0.670488 0.237335 0.205435
H118  H     H_    0.249840 0.640523 0.317090 0.207713
H119  H     H_    0.254918 0.698741 0.319196 0.271156
H120  H     H_    0.790636 0.677413 0.738725 0.272054
H121  H     H_    0.853865 0.626783 0.738076 0.217548
H122  H     H_    0.825842 0.650868 0.654912 0.252988
H123  H     H_    0.637690 0.782830 0.153380 0.169594
H124  H     H_    0.782135 0.621743 0.667279 0.225699
H125  H     H_    0.464351 0.095435 0.276648 0.328322
H126  H     H_    0.539871 0.100588 0.723715 0.327648
H127  H     H_    0.962654 0.581200 0.285697 0.324415
H128  H     H_    0.039597 0.600916 0.724070 0.327788
H129  H     H_    0.957337 0.169328 0.684894 0.330234
H130  H     H_    0.032353 0.186375 0.317368 0.336686
H131  H     H_    0.453124 0.663927 0.685485 0.329851
H132  H     H_    0.531411 0.688101 0.317326 0.337025
H133  H     H_    0.008614 0.197814 0.839408 0.284977
H134  H     H_    0.831141 0.280123 0.316011 0.161974
H135  H     H_    0.029724 0.266061 0.804863 0.224964
H136  H     H_    0.083227 0.248336 0.891319 0.234989
H137  H     H_    0.038165 0.291860 0.877009 0.238734
H138  H     H_    0.985611 0.209057 0.162859 0.288432
H139  H     H_    0.973054 0.281477 0.197408 0.220536
H140  H     H_    0.917109 0.264997 0.111486 0.234175
H141  H     H_    0.966398 0.303740 0.124247 0.238968
H142  H     H_    0.506536 0.694643 0.840094 0.283647
H143  H     H_    0.530399 0.761101 0.805386 0.226560
H144  H     H_    0.583084 0.743205 0.892050 0.234875
H145  H     H_    0.138098 0.265784 0.652022 0.159402
H146  H     H_    0.539592 0.788246 0.877142 0.238804
H147  H     H_    0.485044 0.710410 0.162837 0.288557
H148  H     H_    0.473595 0.783164 0.197691 0.220484
H149  H     H_    0.417376 0.767000 0.111727 0.233994
H150  H     H_    0.467213 0.805148 0.124572 0.239056
H151  H     H_    0.787714 0.318693 0.737558 0.242921
H152  H     H_    0.707962 0.275110 0.674826 0.211239
H153  H     H_    0.760398 0.245764 0.751729 0.211283
H154  H     H_    0.744903 0.232325 0.669600 0.239309
H155  H     H_    0.217923 0.309576 0.260336 0.248400
H156  H     H_    0.319792 0.786538 0.305354 0.163189
H157  H     H_    0.293203 0.262284 0.324480 0.224503
H158  H     H_    0.237837 0.231344 0.252633 0.214592
H159  H     H_    0.254943 0.225678 0.337355 0.218494
H160  H     H_    0.289804 0.821675 0.736958 0.242885
H161  H     H_    0.208915 0.779391 0.675622 0.209947
H162  H     H_    0.260819 0.750278 0.753146 0.211454
H163  H     H_    0.244592 0.735061 0.671199 0.241313
H164  H     H_    0.718907 0.808028 0.260321 0.248143
H165  H     H_    0.793455 0.760064 0.325001 0.224165
H166  H     H_    0.737697 0.729375 0.253173 0.214649
H167  H     H_    0.635340 0.764788 0.648853 0.159547
H168  H     H_    0.754453 0.724313 0.337771 0.218023
H169  H     H_    0.845433 0.413238 0.599764 0.258933
H170  H     H_    0.871404 0.358644 0.684179 0.223699
H171  H     H_    0.927913 0.369631 0.682223 0.220980
H172  H     H_    0.885852 0.321681 0.640393 0.243306
H173  H     H_    0.171216 0.420296 0.421734 0.257473
H174  H     H_    0.147287 0.372394 0.331009 0.224211
H175  H     H_    0.087561 0.382886 0.326316 0.218386
H176  H     H_    0.125125 0.332252 0.362654 0.241884
H177  H     H_    0.351508 0.910294 0.607210 0.259897
H178  H     H_    0.951893 0.377639 0.437156 0.129373
H179  H     H_    0.378653 0.853669 0.689211 0.223771
H180  H     H_    0.433537 0.864965 0.684186 0.221260
H181  H     H_    0.389885 0.817963 0.640920 0.245873
H182  H     H_    0.672881 0.920942 0.424054 0.256519
H183  H     H_    0.649312 0.873751 0.332784 0.223556
H184  H     H_    0.589241 0.884213 0.327327 0.219040
H185  H     H_    0.626329 0.833333 0.363052 0.241798
H186  H     H_    0.745460 0.359394 0.367239 0.293434
H187  H     H_    0.249596 0.342854 0.646944 0.288595
H188  H     H_    0.244030 0.864618 0.374588 0.296438
N1    N     N_R   0.555377 0.234700 0.033841 -0.238359
N2    N     N_R   0.054373 0.259460 0.036618 -0.252271
N3    N     N_R   0.445653 0.763451 0.964095 -0.249820
N4    N     N_R   0.554483 0.759206 0.036706 -0.252430
N5    N     N_R   0.977033 0.262872 0.032300 -0.195744
N6    N     N_R   0.022852 0.259183 0.968380 -0.196941
N7    N     N_R   0.477185 0.763676 0.032370 -0.195782
N8    N     N_R   0.522969 0.758941 0.968473 -0.197819
N9    N     N_2   0.670732 0.170463 0.291398 -0.394945
N10   N     N_2   0.306671 0.183931 0.713383 -0.366320
N11   N     N_2   0.179982 0.673754 0.290105 -0.369722
N12   N     N_R   0.521557 0.234720 0.965435 -0.205146
N13   N     N_2   0.806571 0.683644 0.712836 -0.366472
N14   N     N_2   0.004450 0.228409 0.853051 -0.412196
N15   N     N_2   0.993055 0.238222 0.148976 -0.411533
N16   N     N_2   0.503536 0.725680 0.853602 -0.412534
N17   N     N_2   0.492906 0.739407 0.149052 -0.411665
N18   N     N_2   0.788255 0.290834 0.714444 -0.409757
N19   N     N_2   0.214739 0.283978 0.285107 -0.399272
N20   N     N_2   0.289457 0.793192 0.714350 -0.408624
N21   N     N_2   0.715268 0.782775 0.285184 -0.399580
N22   N     N_2   0.849566 0.381429 0.589816 -0.414847
N23   N     N_R   0.054669 0.737742 0.034291 -0.236706
N24   N     N_2   0.163166 0.388042 0.424751 -0.411931
N25   N     N_2   0.354258 0.878788 0.594794 -0.416048
N26   N     N_2   0.664455 0.888667 0.426314 -0.412003
N27   N     N_2   0.922132 0.312808 0.345440 -0.425818
N28   N     N_2   0.048238 0.305668 0.617340 -0.419046
N29   N     N_2   0.411960 0.815767 0.334403 -0.429454
N30   N     N_2   0.545134 0.804790 0.612911 -0.419586
N31   N     N_2   0.542901 0.318581 0.138450 -0.425133
N32   N     N_2   0.482093 0.304285 0.858997 -0.419997
N33   N     N_2   0.026640 0.809930 0.139517 -0.423713
N34   N     N_R   0.021310 0.738147 0.965896 -0.202378
N35   N     N_2   0.980792 0.804978 0.859184 -0.417805
N36   N     N_2   0.608970 0.320691 0.285278 -0.379396
N37   N     N_2   0.410063 0.308058 0.713049 -0.406805
N38   N     N_2   0.093329 0.810776 0.286030 -0.386486
N39   N     N_2   0.909373 0.808560 0.713273 -0.407464
N40   N     N_2   0.773569 0.147753 0.757027 -0.393802
N41   N     N_2   0.217321 0.130953 0.245451 -0.445898
N42   N     N_2   0.269035 0.651617 0.757184 -0.394175
N43   N     N_2   0.715294 0.629164 0.246231 -0.444970
N44   N     N_2   0.577984 0.121993 0.608628 -0.409488
N45   N     N_R   0.447499 0.245525 0.967135 -0.238533
N46   N     N_2   0.414653 0.120076 0.383806 -0.407360
N47   N     N_2   0.074062 0.623334 0.604901 -0.411606
N48   N     N_2   0.912520 0.619611 0.382170 -0.397946
N49   N     N_R   0.481382 0.246078 0.035498 -0.206790
N50   N     N_R   0.945956 0.740784 0.966414 -0.239258
N51   N     N_R   0.979319 0.740891 0.034776 -0.204627
N52   N     N_R   0.945501 0.262635 0.964031 -0.250578
O1    O     O_R   0.678820 0.231020 0.500020 -0.576603
O2    O     O_R   0.483800 0.045090 0.557810 -0.574585
O3    O     O_R   0.016200 0.545090 0.442190 -0.573396
O4    O     O_R   0.983800 0.545090 0.557810 -0.575477
O5    O     O_R   0.573990 0.045100 0.557780 -0.576551
O6    O     O_R   0.426010 0.045100 0.442220 -0.572308
O7    O     O_R   0.073990 0.545100 0.557780 -0.577565
O8    O     O_R   0.926010 0.545100 0.442220 -0.570091
O9    O     O_R   0.731040 0.178820 0.500000 -0.555502
O10   O     O_R   0.268960 0.178820 0.500000 -0.563562
O11   O     O_R   0.231040 0.678820 0.500000 -0.520408
O12   O     O_R   0.321180 0.231020 0.499980 -0.568111
O13   O     O_R   0.768960 0.678820 0.500000 -0.564410
O14   O     O_R   0.673970 0.276110 0.400150 -0.549017
O15   O     O_R   0.326030 0.276110 0.599850 -0.548366
O16   O     O_R   0.173970 0.776110 0.400150 -0.555511
O17   O     O_R   0.826030 0.776110 0.599850 -0.548842
O18   O     O_R   0.726190 0.223910 0.400130 -0.560715
O19   O     O_R   0.273810 0.223910 0.599870 -0.548374
O20   O     O_R   0.226190 0.723910 0.400130 -0.548018
O21   O     O_R   0.773810 0.723910 0.599870 -0.547478
O22   O     O_R   0.768980 0.321200 0.500000 -0.552062
O23   O     O_R   0.178820 0.731020 0.500020 -0.611898
O24   O     O_R   0.231020 0.321200 0.500000 -0.558984
O25   O     O_R   0.268980 0.821200 0.500000 -0.550165
O26   O     O_R   0.731020 0.821200 0.500000 -0.559221
O27   O     O_R   0.821200 0.269000 0.499980 -0.577453
O28   O     O_R   0.178800 0.269000 0.500020 -0.568593
O29   O     O_R   0.321200 0.769000 0.499980 -0.580508
O30   O     O_R   0.678800 0.769000 0.500020 -0.568487
O31   O     O_R   0.773830 0.276110 0.599860 -0.560705
O32   O     O_R   0.226170 0.276110 0.400140 -0.561120
O33   O     O_R   0.273830 0.776110 0.599860 -0.557302
O34   O     O_R   0.821180 0.731020 0.499980 -0.567254
O35   O     O_R   0.726170 0.776110 0.400140 -0.561183
O36   O     O_R   0.826050 0.223920 0.599850 -0.563105
O37   O     O_R   0.173950 0.223920 0.400150 -0.539527
O38   O     O_R   0.326050 0.723920 0.599850 -0.567469
O39   O     O_R   0.673950 0.723920 0.400150 -0.539241
O40   O     O_R   0.016230 0.454910 0.442200 -0.592464
O41   O     O_R   0.983770 0.454910 0.557800 -0.585832
O42   O     O_R   0.516230 0.954910 0.442200 -0.586396
O43   O     O_R   0.483770 0.954910 0.557800 -0.586295
O44   O     O_2   0.545014 0.052817 0.356417 -0.571988
O45   O     O_R   0.074030 0.454920 0.557790 -0.583048
O46   O     O_R   0.490126 0.112574 0.320541 -0.773500
O47   O     O_2   0.461167 0.055532 0.647135 -0.566334
O48   O     O_R   0.512867 0.116900 0.679170 -0.777811
O49   O     O_2   0.056446 0.558515 0.351234 -0.595648
O50   O     O_R   0.985714 0.598755 0.329676 -0.750966
O51   O     O_2   0.961462 0.555441 0.647073 -0.567374
O52   O     O_R   0.012543 0.617200 0.679512 -0.777586
O53   O     O_2   0.937371 0.246181 0.672367 -0.624790
O54   O     O_R   0.944291 0.177564 0.712641 -0.749631
O55   O     O_2   0.067245 0.259222 0.333541 -0.624163
O56   O     O_R   0.925970 0.454920 0.442210 -0.587146
O57   O     O_R   0.045168 0.190851 0.288359 -0.734537
O58   O     O_2   0.438606 0.741604 0.674215 -0.624655
O59   O     O_R   0.440192 0.673594 0.712823 -0.750438
O60   O     O_2   0.567777 0.760420 0.333976 -0.624396
O61   O     O_R   0.544206 0.692215 0.288233 -0.735184
O62   O     O_2   0.750139 0.268062 0.316221 -0.591228
O63   O     O_R   0.729753 0.329739 0.346108 -0.758123
O64   O     O_2   0.220283 0.246779 0.654177 -0.546343
O65   O     O_R   0.258746 0.310834 0.658880 -0.779247
O66   O     O_2   0.238975 0.778009 0.305733 -0.595967
O67   O     O_R   0.574030 0.954920 0.557790 -0.584404
O68   O     O_R   0.225913 0.836295 0.349724 -0.743143
O69   O     O_2   0.718198 0.745693 0.652204 -0.545537
O70   O     O_R   0.757480 0.809748 0.658869 -0.779401
O71   O     O_2   0.601606 0.135346 0.335298 -0.596119
O72   O     O_R   0.583482 0.202659 0.355752 -0.769527
O73   O     O_2   0.406806 0.203400 0.633294 -0.624441
O74   O     O_R   0.419138 0.137357 0.682809 -0.753977
O75   O     O_2   0.141744 0.650712 0.368488 -0.586385
O76   O     O_R   0.054726 0.671297 0.320621 -0.760913
O77   O     O_2   0.907519 0.703981 0.633016 -0.622988
O78   O     O_R   0.425970 0.954920 0.442210 -0.586892
O79   O     O_R   0.919704 0.638206 0.683160 -0.754527
O80   O     O_2   0.814359 0.163739 0.686972 -0.580524
O81   O     O_R   0.778853 0.117142 0.597538 -0.734563
O82   O     O_2   0.225589 0.111515 0.410011 -0.522395
O83   O     O_R   0.175241 0.155607 0.317784 -0.705352
O84   O     O_2   0.312612 0.665767 0.690387 -0.581526
O85   O     O_R   0.278777 0.619171 0.601363 -0.731644
O86   O     O_2   0.725527 0.610567 0.412123 -0.523738
O87   O     O_R   0.674521 0.654549 0.319836 -0.704048
O88   O     O_R   0.516200 0.045090 0.442190 -0.573529

loop_
_geom_bond_atom_site_label_1
_geom_bond_atom_site_label_2
_ccdc_geom_bond_type
C172  C177  A    
C21   C26   A    
C64   N35   S    
C174  C196  A    
Cu8   O18   S    
C99   C204  S    
C71   H114  S    
C72   H118  S    
C142  C146  A    
C172  C194  A    
H59   O76   S    
Cu6   O16   S    
C97   C202  S    
H129  O54   S    
C126  H76   S    
C49   C173  A    
C13   C60   S    
C123  H69   S    
C159  O16   A    
C117  O76   S    
H177  N25   S    
C130  H95   S    
C138  C143  A    
C1    O1    A    
C129  H88   S    
C48   C162  A    
C91   H166  S    
H111  N10   S    
C29   C33   A    
C178  N17   S    
C51   N13   S    
C70   H109  S    
C76   O50   S    
C191  C196  A    
H34   N35   S    
C109  H41   S    
C146  C150  A    
C100  H6    S    
C114  H54   S    
C126  H75   S    
C82   C174  S    
Cu1   O22   S    
H96   N48   S    
C6    H13   S    
C105  H25   S    
C47   O8    A    
C116  C154  S    
C141  C145  A    
C54   C59   A    
C71   H113  S    
C149  C154  A    
C115  C153  S    
C136  N46   S    
C109  H40   S    
Cu2   Cu12  S    
C97   O64   D    
C84   H141  S    
H4    N27   S    
C25   C29   A    
C85   H146  S    
C127  H81   S    
C4    C214  A    
C25   N26   S    
C27   C31   A    
C28   C32   A    
H39   N36   S    
C83   N14   S    
C96   O63   S    
C88   H159  S    
H78   N43   S    
C127  N43   S    
C87   H154  S    
C17   C21   A    
Cu7   O17   S    
C153  C161  A    
C111  H51   S    
C186  C190  A    
C19   C23   A    
C136  C141  A    
C89   H163  S    
C77   O52   S    
C106  H28   S    
C80   O55   D    
C200  N8    A    
C16   C20   A    
C104  H19   S    
Cu11  O30   S    
C107  H33   S    
C108  H38   S    
C143  C169  A    
C178  C182  A    
C157  O14   A    
C143  C147  A    
Cu5   O12   S    
C101  N42   S    
C93   N24   S    
C148  C153  A    
C131  H98   S    
C83   H136  S    
C43   C166  S    
C205  O27   A    
C52   H35   S    
C130  N47   S    
C124  C135  A    
C50   C184  A    
C182  C199  S    
C57   C121  S    
C41   O38   A    
C15   C203  A    
C53   C58   A    
Cu12  O3    S    
C101  C133  A    
C3    C213  A    
C92   H170  S    
C59   C63   A    
C30   C36   S    
C60   C64   A    
C38   O43   A    
C51   C195  A    
C183  C188  A    
C110  H44   S    
C43   O5    A    
C73   H122  S    
C49   C53   A    
C127  H80   S    
C158  O15   A    
C2    N1    A    
C207  O24   A    
C108  H36   S    
C51   C55   A    
C198  N6    A    
C42   O35   A    
C142  C168  A    
C72   N11   S    
C61   C65   A    
C48   C52   A    
C209  O26   A    
C214  N27   S    
N50   N51   A    
C23   N25   S    
H12   N29   S    
C16   C204  A    
C157  C162  S    
C102  N28   S    
C130  H94   S    
C137  C142  A    
Cu1   O31   S    
Cu5   Cu9   S    
C213  H167  S    
H188  O68   S    
C87   H153  S    
C202  C211  A    
C171  C193  A    
C123  H67   S    
C211  H145  S    
H138  N15   S    
C54   H57   S    
H173  N24   S    
C102  H11   S    
Cu3   O88   S    
C71   H115  S    
C111  H49   S    
C105  H22   S    
C160  O21   A    
C91   N21   S    
C216  N29   S    
C45   O7    A    
Cu7   Cu11  S    
C131  N48   S    
C77   C165  S    
C128  H85   S    
C5    C215  A    
C78   C170  S    
C75   C163  S    
H169  N22   S    
Cu10  O38   S    
C105  N31   S    
Cu9   O37   S    
C41   O33   A    
N1    N12   A    
H128  O52   S    
H52   N39   S    
Cu7   O26   S    
H164  N21   S    
C117  C155  S    
C140  O11   A    
C118  C156  S    
C135  N44   S    
N45   N49   A    
C36   O41   A    
C8    C12   A    
C35   C144  A    
C125  H73   S    
C159  O20   A    
H142  N16   S    
C87   N18   S    
Cu11  O13   S    
H151  N18   S    
C47   C169  S    
H125  O46   S    
C93   H175  S    
C95   H183  S    
C40   C193  S    
C92   H172  S    
Cu8   O27   S    
C134  H106  S    
C62   C66   A    
C99   O70   S    
C152  C156  A    
C98   C203  S    
C11   C33   A    
C75   O48   S    
C126  H77   S    
C185  H101  S    
C69   N39   S    
C125  H72   S    
C160  O17   A    
H64   O87   S    
C34   O40   A    
C73   H124  S    
C93   H174  S    
C64   C69   A    
C18   C207  S    
Cu12  O40   S    
C158  O19   A    
N3    N7    A    
C5    C9    A    
C96   O62   D    
C119  O81   S    
H3    O70   S    
C94   N25   S    
C88   H158  S    
C132  C136  A    
Cu3   O6    S    
C103  H16   S    
C31   C34   S    
C46   C120  S    
C23   C28   A    
C126  N42   S    
H48   N38   S    
C84   H140  S    
C44   O2    A    
C53   H46   S    
C200  N3    A    
C26   C30   A    
C104  H18   S    
C150  C155  A    
C19   C208  S    
C115  O72   S    
H17   N30   S    
C94   H180  S    
C39   O36   A    
C78   O54   S    
C38   O78   A    
C109  N36   S    
C1    O9    A    
Cu8   O9    S    
H126  O48   S    
C174  C178  A    
C102  H9    S    
C91   H165  S    
C177  N16   S    
C131  H99   S    
C181  C186  A    
C83   H137  S    
C185  C189  A    
C50   N11   S    
C191  N21   S    
C179  C198  S    
H120  N13   S    
C117  O75   D    
C57   C101  A    
C79   C124  A    
Cu1   O14   S    
C188  C192  A    
C90   N41   S    
C109  H42   S    
C17   C205  S    
C2    C56   S    
C110  N37   S    
C36   O56   A    
C24   C59   S    
C177  C181  A    
C14   C202  A    
C35   C79   A    
Cu7   O34   S    
C45   C168  S    
H61   O81   S    
C89   N20   S    
C110  H47   S    
C78   O53   D    
C189  C193  A    
C123  N40   S    
C176  C180  A    
C44   O6    A    
C208  O29   A    
C5    H2    S    
H70   N41   S    
C98   O68   S    
C55   C60   A    
H65   N40   S    
C34   O45   A    
C122  O86   D    
C119  O80   D    
C58   C62   A    
H26   N32   S    
C40   O37   A    
H130  O57   S    
C81   O59   S    
C133  C137  A    
C104  N30   S    
C86   H149  S    
C100  H5    S    
C116  O73   D    
C199  N7    A    
C15   C19   A    
H182  N26   S    
C50   C54   A    
C207  O28   A    
C70   H108  S    
C42   O39   A    
Cu9   O28   S    
C3    C7    A    
C114  N39   S    
C210  H134  S    
C118  O79   S    
C20   C25   A    
C58   C206  S    
C107  N33   S    
C103  H14   S    
C137  N47   S    
C89   H162  S    
C77   O51   D    
C45   O3    A    
H74   N42   S    
C112  O10   A    
C13   N50   A    
C85   H144  S    
C104  H20   S    
C208  O25   A    
C106  H29   S    
C151  C152  S    
C159  C184  S    
C18   C22   A    
C183  H1    S    
C4    C8    A    
C68   C113  A    
C90   C132  A    
Cu10  O11   S    
C206  N12   A    
C120  O82   D    
H116  N11   S    
C92   N22   S    
C57   C146  A    
C165  C169  A    
C72   H117  S    
Cu2   O7    S    
C70   H110  S    
C131  H97   S    
Cu2   O41   S    
C83   H135  S    
C189  N19   S    
C170  C175  A    
C73   N13   S    
H63   O85   S    
H92   N47   S    
C141  C167  A    
C66   N37   S    
Cu4   O2    S    
N4    N8    A    
C68   C122  S    
Cu3   Cu4   S    
C61   N31   S    
C33   C37   S    
C95   N26   S    
C44   C167  S    
H21   N31   S    
C7    C11   A    
C9    C14   A    
C86   H150  S    
C41   C194  S    
Cu3   O42   S    
C110  H45   S    
C11   C16   A    
C158  C173  S    
C164  C168  A    
C67   N38   S    
C63   N33   S    
C206  N45   A    
C40   O32   A    
C20   C209  S    
C42   C196  S    
C160  C195  S    
H87   N46   S    
C70   N9    S    
C113  C134  A    
C175  C179  A    
Cu4   O5    S    
Cu6   O33   S    
Cu4   O43   S    
C80   O57   S    
C171  C176  A    
C105  H23   S    
C121  O84   D    
C127  H82   S    
Cu12  O56   S    
C6    C10   A    
C140  O23   A    
C121  O85   S    
C118  O77   D    
C46   C90   A    
C84   N15   S    
C198  N52   A    
C135  C139  A    
C13   N34   A    
H30   N33   S    
C8    C30   A    
Cu2   O4    S    
C76   O49   D    
C39   C192  S    
C112  O12   A    
C156  C165  A    
C128  H86   S    
C24   N51   A    
C108  H37   S    
Cu11  O21   S    
C74   O44   D    
C82   O61   S    
Cu9   O10   S    
C98   O66   D    
C72   H119  S    
C138  N48   S    
C56   C61   A    
C100  H7    S    
H147  N17   S    
C80   C171  S    
Cu7   O35   S    
H132  O61   S    
Cu5   O32   S    
C145  C149  A    
H131  O59   S    
C24   N23   A    
C129  H89   S    
C211  C215  A    
C27   H90   S    
C14   C18   A    
C35   C119  S    
C69   C195  A    
C144  C148  A    
C176  N15   S    
C47   O4    A    
Cu4   O67   S    
C71   N10   S    
C96   C201  S    
C28   H100  S    
C108  N35   S    
H58   O74   S    
C215  N28   S    
C37   O67   A    
C99   O69   D    
C107  H31   S    
C151  O13   A    
C75   O47   D    
C10   C15   A    
Cu5   O24   S    
C125  H71   S    
C132  H104  S    
C46   C145  A    
C199  N4    A    
Cu6   Cu10  S    
C124  H103  S    
C170  C192  A    
N23   N34   A    
C197  N2    A    
C88   N19   S    
Cu11  O39   S    
C81   C172  S    
C2    N49   A    
C79   N40   S    
C114  H53   S    
C95   H185  S    
C212  C216  A    
H127  O50   S    
C65   C162  A    
C103  H15   S    
C66   C173  A    
C180  C197  S    
C73   H121  S    
C4    H178  S    
Cu5   O15   S    
Cu6   O25   S    
C187  C191  A    
C157  O18   A    
C130  H93   S    
Cu1   Cu8   S    
N2    N6    A    
C26   H79   S    
C129  N46   S    
Cu2   O45   S    
C94   H181  S    
Cu10  O20   S    
C81   O58   D    
C179  C183  A    
C113  N43   S    
H133  N14   S    
C63   C67   A    
C102  H10   S    
C91   H168  S    
C111  H50   S    
C154  C163  A    
C120  O83   S    
Cu1   O1    S    
C37   O42   A    
C67   C184  A    
C190  C194  A    
C86   H148  S    
C210  C214  A    
C133  H105  S    
C204  C213  A    
H8    N28   S    
C107  H32   S    
C209  O30   A    
C139  C166  A    
C163  C167  A    
C43   O88   A    
C212  H156  S    
C139  C144  A    
C114  H55   S    
C106  N32   S    
C151  O34   A    
C6    C216  A    
Cu3   O78   S    
Cu9   O19   S    
C12   C201  A    
C125  N41   S    
C68   C147  A    
C187  H123  S    
C55   H68   S    
H160  N20   S    
C129  H91   S    
C205  O22   A    
C32   C38   S    
C111  N38   S    
C49   N10   S    
H187  O65   S    
C197  N5    A    
C203  C212  A    
C76   C164  S    
C175  N14   S    
C140  C150  S    
C201  C210  A    
C85   N16   S    
Cu12  O8    S    
C93   H176  S    
C82   O60   D    
C95   H184  S    
C128  N44   S    
H56   O72   S    
C92   H171  S    
C97   O65   S    
C22   N24   S    
C106  H27   S    
Cu8   O36   S    
C161  C166  A    
Cu10  O29   S    
C134  C138  A    
C74   C161  S    
C62   N32   S    
C48   N9    S    
N5    N52   A    
C116  O74   S    
C103  N29   S    
C186  H112  S    
C155  C164  A    
C128  H84   S    
C7    H24   S    
C22   C27   A    
C65   N36   S    
H155  N19   S    
H107  N9    S    
C147  C152  A    
C12   C17   A    
C181  C200  S    
C87   H152  S    
C88   H157  S    
H83   N44   S    
H43   N37   S    
C122  O87   S    
C39   O31   A    
C182  C187  A    
C74   O46   S    
C190  N20   S    
C21   N22   S    
Cu6   O23   S    
C84   H139  S    
C89   H161  S    
C180  C185  A    
C9    C31   A    
C188  N18   S    
H62   O83   S    
H60   O79   S    
C10   C32   A    
C85   H143  S    
C100  N27   S    
H186  O63   S    
C3    N30   S    
C112  C149  S    
C1    C148  S    
C29   H102  S    
C115  O71   D    
C94   H179  S    
C123  H66   S    
C86   N17   S    
C52   C56   A    
