data_mof_unit_18321.cif
_audit_creation_date              2012-10-26T19:52:49-0400
_audit_creation_method            fapswitch 2.2
_symmetry_space_group_name_H-M    P1
_symmetry_Int_Tables_number       1
_space_group_crystal_system       triclinic
_cell_length_a                    15.079518
_cell_length_b                    10.839161
_cell_length_c                    9.546876
_cell_angle_alpha                 90.53247
_cell_angle_beta                  90.364138
_cell_angle_gamma                 90.334506
_cell_volume                      1560.30439051

loop_
_atom_site_label
_atom_site_type_symbol
_atom_type_description
_atom_site_fract_x
_atom_site_fract_y
_atom_site_fract_z
_atom_type_partial_charge
C1    C     C_R   0.497862 0.262416 0.499319 0.550125
C2    C     C_R   0.184719 0.467681 0.377586 -0.131426
C3    C     C_R   0.231965 0.501403 0.499041 -0.005779
C4    C     C_R   0.328692 0.499963 0.499621 0.549611
C5    C     C_R   0.186660 0.537482 0.620200 -0.133715
C6    C     C_R   0.480170 0.065397 0.622832 0.021618
C7    C     C_R   0.488191 0.129512 0.497639 0.008516
C8    C     C_R   0.483613 0.063219 0.370560 -0.158810
C9    C     C_R   0.484193 0.934522 0.371402 -0.156325
C10   C     C_R   0.489419 0.871111 0.499310 0.010074
C11   C     C_R   0.480756 0.938366 0.623898 0.022662
C12   C     C_R   0.907962 0.546862 0.621386 -0.008699
C13   C     C_3   0.534638 0.936199 0.755641 -0.274853
C14   C     C_3   0.533527 0.075988 0.754438 -0.259083
C15   C     C_R   0.574921 0.530539 0.075071 0.156221
C16   C     C_R   0.498442 0.737836 0.500292 0.552189
C17   C     C_R   0.429113 0.456962 0.073169 -0.014736
C18   C     C_R   0.429094 0.456981 0.924448 -0.015324
C19   C     C_R   0.575037 0.530327 0.927680 0.150379
C20   C     C_3   0.623514 0.650365 0.925558 -0.271387
C21   C     C_3   0.623928 0.649806 0.084272 -0.264184
C22   C     C_R   0.671416 0.500421 0.500211 0.549693
C23   C     C_R   0.952304 0.433512 0.257464 -0.107103
C24   C     C_R   0.815106 0.539653 0.620714 -0.117687
C25   C     C_R   0.768386 0.503048 0.499974 -0.018789
C26   C     C_R   0.814214 0.470255 0.378343 -0.137724
C27   C     C_R   0.906515 0.470760 0.377786 0.009649
C28   C     C_R   0.953685 0.508286 0.499504 0.039953
C29   C     C_2   0.914839 0.644339 0.866318 0.548749
C30   C     C_R   0.044656 0.433229 0.256828 -0.104206
C31   C     C_R   0.092243 0.468990 0.377060 0.017215
C32   C     C_R   0.046707 0.506350 0.499053 0.056140
C33   C     C_R   0.094312 0.541056 0.620620 -0.017455
C34   C     C_R   0.049358 0.581093 0.740103 -0.132901
C35   C     C_R   0.956709 0.588010 0.741029 0.059751
Cu1   Cu    Cu3+1 0.500000 0.499980 0.640670 0.941330
Cu2   Cu    Cu3+1 0.500000 0.500020 0.359330 0.938538
H1    H     H_    0.778353 0.560933 0.714004 0.154268
H2    H     H_    0.582515 0.724406 0.881015 0.142686
H3    H     H_    0.691326 0.638811 0.130207 0.141552
H4    H     H_    0.778073 0.441740 0.284811 0.125811
H5    H     H_    0.583902 0.725193 0.131231 0.146937
H6    H     H_    0.916612 0.404509 0.163807 0.139113
H7    H     H_    0.078839 0.404442 0.162619 0.122011
H8    H     H_    0.219816 0.439087 0.284068 0.113190
H9    H     H_    0.223321 0.564717 0.713705 0.123273
H10   H     H_    0.086947 0.611058 0.831673 0.144745
H11   H     H_    0.484366 0.110059 0.270846 0.135955
H12   H     H_    0.485075 0.885563 0.272029 0.132032
H13   H     H_    0.915867 0.664587 0.076593 0.340527
H14   H     H_    0.496626 0.897366 0.844498 0.133584
H15   H     H_    0.601988 0.897595 0.739194 0.147587
H16   H     H_    0.494883 0.116907 0.841919 0.140246
H17   H     H_    0.600045 0.118014 0.737690 0.150189
H18   H     H_    0.371217 0.423511 0.127453 0.113096
H19   H     H_    0.371168 0.423472 0.868429 0.119189
H20   H     H_    0.690607 0.641974 0.880745 0.168430
N1    N     N_R   0.500570 0.500930 0.147930 -0.232337
N2    N     N_R   0.500570 0.500890 0.852020 -0.232534
O1    O     O_R   0.500000 0.319640 0.618810 -0.498875
O2    O     O_R   0.948853 0.619467 0.999559 -0.722438
O3    O     O_R   0.500010 0.319680 0.381230 -0.506950
O4    O     O_R   0.370250 0.499950 0.618800 -0.514795
O5    O     O_R   0.370260 0.499990 0.381220 -0.511576
O6    O     O_R   0.499990 0.680320 0.618770 -0.498154
O7    O     O_R   0.500000 0.680360 0.381190 -0.508076
O8    O     O_R   0.629740 0.500010 0.618780 -0.505718
O9    O     O_R   0.629750 0.500050 0.381200 -0.503604
O10   O     O_2   0.854037 0.717496 0.853077 -0.551593

loop_
_geom_bond_atom_site_label_1
_geom_bond_atom_site_label_2
_ccdc_geom_bond_type
C24   H1    S    
C24   C25   A    
C8    H11   S    
C6    C7    A    
C16   O6    A    
C23   C27   A    
C6    C14   S    
C13   H15   S    
C5    H9    S    
C29   C35   S    
C15   C21   S    
C29   O10   D    
Cu2   N1    S    
C6    C11   A    
C18   H19   S    
C17   N1    A    
Cu1   N2    S    
C30   H7    S    
Cu2   O7    S    
Cu2   O5    S    
C19   C20   S    
C17   C18   A    
C20   H20   S    
Cu1   O8    S    
C9    H12   S    
C7    C8    A    
C4    O5    A    
C10   C16   S    
C13   C14   S    
C32   C33   A    
C12   C35   A    
C15   C19   A    
C11   C13   S    
C4    O4    A    
C22   O9    A    
C26   C27   A    
C21   H3    S    
C12   C28   A    
Cu1   O1    S    
C17   H18   S    
Cu1   Cu2   S    
C14   H17   S    
C33   C34   A    
C2    C3    A    
C12   C24   A    
C2    H8    S    
C13   H14   S    
C30   C31   A    
C15   N1    A    
C29   O2    S    
C22   O8    A    
C16   O7    A    
C10   C11   A    
C21   H5    S    
Cu1   O4    S    
Cu2   O9    S    
C18   N2    A    
C28   C32   A    
C14   H16   S    
C23   H6    S    
C23   C30   A    
C1    O3    A    
C20   C21   S    
C34   C35   A    
C9    C10   A    
C1    O1    A    
C27   C28   A    
H13   O2    S    
C20   H2    S    
Cu2   O3    S    
Cu1   O6    S    
C8    C9    A    
C34   H10   S    
C19   N2    A    
C25   C26   A    
C1    C7    S    
C3    C4    S    
C31   C32   A    
C26   H4    S    
C2    C31   A    
C3    C5    A    
C22   C25   S    
C5    C33   A    
