data_mof_unit_21291.cif
_audit_creation_date              2012-12-10T17:18:55-0500
_audit_creation_method            fapswitch 2.2
_symmetry_space_group_name_H-M    P1
_symmetry_Int_Tables_number       1
_space_group_crystal_system       triclinic
_cell_length_a                    10.17682
_cell_length_b                    10.792703
_cell_length_c                    13.461316
_cell_angle_alpha                 91.79668
_cell_angle_beta                  100.514319
_cell_angle_gamma                 96.017397
_cell_volume                      1443.76566525

loop_
_atom_site_label
_atom_site_type_symbol
_atom_type_description
_atom_site_fract_x
_atom_site_fract_y
_atom_site_fract_z
_atom_type_partial_charge
C1    C     C_R   0.054858 0.732879 0.496980 0.926496
C2    C     C_2   0.027550 0.069437 0.535981 -0.145377
C3    C     C_2   0.430848 0.512809 0.507459 -0.147005
C4    C     C_2   0.568939 0.488561 0.491358 -0.136291
C5    C     C_R   0.095409 0.517908 0.686559 0.882022
C6    C     C_R   0.906547 0.487914 0.313261 0.919136
C7    C     C_R   0.155535 0.555548 0.792199 -0.179782
C8    C     C_R   0.863031 0.496433 0.204067 -0.160581
C9    C     C_R   0.166821 0.675054 0.950047 -0.321143
C10   C     C_R   0.880700 0.453351 0.029659 -0.282687
C11   C     C_R   0.093388 0.627647 0.855626 0.478899
C12   C     C_R   0.948182 0.267685 0.509887 0.953959
C13   C     C_R   0.930810 0.444852 0.133005 0.452674
C14   C     C_R   0.289463 0.535560 0.823217 -0.340964
C15   C     C_R   0.752200 0.560735 0.171678 -0.343859
C16   C     C_R   0.367857 0.594993 0.910686 0.094737
C17   C     C_R   0.699299 0.567271 0.068927 0.087982
C18   C     C_R   0.303896 0.659997 0.977545 0.095328
C19   C     C_R   0.764342 0.510919 0.997515 0.117205
C20   C     C_R   0.506841 0.583606 0.935777 0.078106
C21   C     C_R   0.574383 0.614194 0.036133 0.081942
C22   C     C_3   0.153834 0.419911 0.143972 0.104241
C23   C     C_R   0.510494 0.683126 0.101050 -0.231800
C24   C     C_3   0.255334 0.325255 0.168297 -0.326582
C25   C     C_3   0.396458 0.379171 0.157920 -0.953680
C26   C     C_3   0.953306 0.764304 0.779520 0.115137
C27   C     C_3   0.905587 0.859788 0.847328 -0.360391
C28   C     C_3   0.885427 0.981275 0.794376 -0.958296
C29   C     C_R   0.579380 0.539506 0.864373 -0.264609
C30   C     C_R   0.377629 0.707458 0.071096 -0.220457
C31   C     C_R   0.707311 0.505029 0.895057 -0.143819
C32   C     C_2   0.090968 0.866167 0.506110 -0.380900
C33   C     C_2   0.923385 0.136515 0.526362 -0.379034
C34   C     C_2   0.005488 0.936683 0.538455 -0.166256
H1    H     H_    0.331057 0.759295 0.122847 0.144214
H2    H     H_    0.912255 0.896677 0.559272 0.182070
H3    H     H_    0.577881 0.414108 0.437743 0.168618
H4    H     H_    0.421678 0.588613 0.559772 0.164090
H5    H     H_    0.665211 0.623649 0.589430 0.154227
H6    H     H_    0.335473 0.373838 0.413311 0.161022
H7    H     H_    0.189525 0.506798 0.192489 0.151740
H8    H     H_    0.147523 0.441736 0.063070 0.136163
H9    H     H_    0.257288 0.295476 0.246657 0.221375
H10   H     H_    0.223415 0.241416 0.115933 0.222910
H11   H     H_    0.397178 0.404621 0.078781 0.279366
H12   H     H_    0.757692 0.465895 0.839089 0.180051
H13   H     H_    0.467460 0.308444 0.177393 0.264464
H14   H     H_    0.430928 0.462779 0.210049 0.267689
H15   H     H_    0.877658 0.747305 0.708383 0.169643
H16   H     H_    0.049225 0.803990 0.757361 0.114916
H17   H     H_    0.808939 0.820669 0.867472 0.239697
H18   H     H_    0.981192 0.880077 0.918169 0.217821
H19   H     H_    0.981331 0.022814 0.774648 0.272716
H20   H     H_    0.851487 0.048822 0.845522 0.271606
H21   H     H_    0.807856 0.963947 0.724300 0.256300
H22   H     H_    0.822134 0.094555 0.528639 0.148847
H23   H     H_    0.702741 0.597985 0.228395 0.180771
H24   H     H_    0.183825 0.906601 0.485108 0.150559
H25   H     H_    0.332175 0.472649 0.777312 0.183683
H26   H     H_    0.117377 0.725222 0.000858 0.151542
H27   H     H_    0.926751 0.406733 0.974581 0.151598
H28   H     H_    0.561524 0.720204 0.175032 0.147581
H29   H     H_    0.538602 0.530396 0.784215 0.149574
H30   H     H_    0.129032 0.110999 0.533665 0.187976
N1    N     N_2   0.322180 0.446120 0.460900 -0.190298
N2    N     N_2   0.677820 0.553880 0.539100 -0.192831
O1    O     O_R   0.935190 0.693030 0.507870 -0.621637
O2    O     O_3   0.960650 0.649489 0.827388 -0.651209
O3    O     O_R   0.064810 0.306970 0.492130 -0.604315
O4    O     O_R   0.142080 0.658430 0.482770 -0.612513
O5    O     O_R   0.857920 0.341570 0.517230 -0.608883
O6    O     O_R   0.969700 0.527180 0.651960 -0.581420
O7    O     O_R   0.030300 0.472820 0.348040 -0.572996
O8    O     O_R   0.176600 0.492580 0.626860 -0.615790
O9    O     O_R   0.823400 0.507420 0.373140 -0.616270
O10   O     O_3   0.028924 0.367312 0.163981 -0.636388
Zn1   Zn    Zn3+2 0.861850 0.523100 0.516760 0.929272
Zn2   Zn    Zn3+2 0.138150 0.476900 0.483240 0.938098

loop_
_geom_bond_atom_site_label_1
_geom_bond_atom_site_label_2
_ccdc_geom_bond_type
C12   O3    A    
C29   H29   S    
C8    C13   A    
O4    Zn2   S    
O1    Zn1   S    
C22   O10   S    
C19   C31   A    
C6    O9    A    
C27   H18   S    
C7    C11   A    
C14   H25   S    
C26   C27   S    
C30   H1    S    
C22   C24   S    
C5    O6    A    
C26   H16   S    
C22   H7    S    
C5    O8    A    
C17   C19   A    
C23   H28   S    
C3    H4    S    
C27   H17   S    
C31   H12   S    
O7    Zn2   S    
C18   C30   A    
C32   H24   S    
C25   H13   S    
C2    C34   S    
C33   H22   S    
C15   H23   S    
O3    Zn2   S    
C3    N1    D    
C28   H21   S    
C2    H30   S    
C20   C29   A    
C7    C14   A    
C23   C30   A    
C24   C25   S    
C26   H15   S    
C5    C7    S    
C28   H20   S    
C6    C8    S    
C1    C32   S    
C17   C21   A    
C32   C34   D    
O6    Zn1   S    
C9    C11   A    
C13   O10   S    
C10   C19   A    
C16   C20   A    
C4    H3    S    
O9    Zn1   S    
C25   H14   S    
C2    C33   D    
C12   O5    A    
C8    C15   A    
H6    N1    S    
C21   C23   A    
C24   H10   S    
H5    N2    S    
C14   C16   A    
C10   H27   S    
C3    C4    S    
C25   H11   S    
O5    Zn1   S    
C11   O2    S    
C6    O7    A    
C15   C17   A    
N2    Zn1   S    
N1    Zn2   S    
C10   C13   A    
C28   H19   S    
C1    O4    A    
C9    H26   S    
C26   O2    S    
C29   C31   A    
C4    N2    D    
C22   H8    S    
C1    O1    A    
C34   H2    S    
C9    C18   A    
C20   C21   A    
C16   C18   A    
O8    Zn2   S    
C27   C28   S    
C24   H9    S    
C12   C33   S    
