data_mof_unit_30622.cif
_audit_creation_date              2012-10-26T19:17:53-0400
_audit_creation_method            fapswitch 2.2
_symmetry_space_group_name_H-M    P1
_symmetry_Int_Tables_number       1
_space_group_crystal_system       triclinic
_cell_length_a                    10.904909
_cell_length_b                    12.270838
_cell_length_c                    13.262582
_cell_angle_alpha                 117.087646
_cell_angle_beta                  79.068907
_cell_angle_gamma                 99.649494
_cell_volume                      1544.64510658

loop_
_atom_site_label
_atom_site_type_symbol
_atom_type_description
_atom_site_fract_x
_atom_site_fract_y
_atom_site_fract_z
_atom_type_partial_charge
C1    C     C_R   0.506820 0.854656 0.286406 0.572281
C2    C     C_R   0.203555 0.356795 0.417552 0.281280
C3    C     C_R   0.299004 0.316047 0.325774 -0.106384
C4    C     C_R   0.736877 0.997215 0.499592 0.542556
C5    C     C_R   0.320836 0.191980 0.270020 -0.062813
C6    C     C_R   0.247776 0.107979 0.306047 0.270073
C7    C     C_R   0.161094 0.150482 0.405875 0.011655
C8    C     C_R   0.297235 0.273396 0.009113 0.236548
C9    C     C_R   0.438266 0.231216 0.832483 -0.044859
C10   C     C_R   0.528625 0.820565 0.079851 0.297855
C11   C     C_R   0.508112 0.744859 0.966734 0.264380
C12   C     C_R   0.774515 0.715951 0.726351 -0.064057
C13   C     C_R   0.481983 0.619000 0.929797 -0.139472
C14   C     C_R   0.449398 0.570041 0.009570 -0.033308
C15   C     C_R   0.432993 0.651862 0.126737 -0.058328
C16   C     C_R   0.477633 0.146266 0.713170 0.535502
C17   C     C_R   0.418181 0.442902 0.975173 -0.041277
C18   C     C_R   0.333857 0.401581 0.048962 0.057309
C19   C     C_R   0.288144 0.491048 0.157771 0.268751
C20   C     C_R   0.346687 0.611709 0.199262 -0.089482
C21   C     C_R   0.470064 0.357092 0.868729 -0.152463
C22   C     C_R   0.353085 0.190052 0.903692 -0.109894
C23   C     C_R   0.042834 0.956194 0.567440 0.246335
C24   C     C_R   0.492048 0.774342 0.163501 0.001815
C25   C     C_R   0.696617 0.339938 0.326045 -0.125829
C26   C     C_R   0.335718 0.765779 0.649824 0.160393
C27   C     C_R   0.308823 0.675231 0.688297 -0.036447
C28   C     C_R   0.262899 0.003298 0.501220 0.566469
C29   C     C_R   0.375470 0.571673 0.634969 -0.080280
C30   C     C_R   0.466728 0.555835 0.539709 0.016797
C31   C     C_R   0.493676 0.652641 0.505862 0.200478
C32   C     C_R   0.533221 0.448803 0.477867 -0.025895
C33   C     C_R   0.628403 0.442722 0.386658 0.011569
C34   C     C_R   0.128821 0.009802 0.505326 -0.000306
C35   C     C_R   0.655933 0.539817 0.357381 -0.190055
C36   C     C_R   0.591106 0.643228 0.416824 -0.098651
C37   C     C_R   0.507213 0.345188 0.500265 0.026446
C38   C     C_R   0.668214 0.242171 0.354217 0.100736
C39   C     C_R   0.775769 0.843769 0.786810 -0.034907
C40   C     C_R   0.801466 0.917175 0.728759 -0.034361
C41   C     C_R   0.836696 0.863847 0.610232 0.087876
C42   C     C_R   0.836988 0.735505 0.550060 -0.043113
C43   C     C_R   0.803283 0.661678 0.607701 -0.073548
C44   C     C_3   0.081829 0.508612 0.227339 -0.036851
C45   C     C_R   0.083220 0.064940 0.448108 -0.007247
C46   C     C_3   0.103378 0.022174 0.742506 -0.107073
C47   C     C_3   0.088515 0.352307 0.654459 -0.104406
C48   C     C_R   0.955224 0.053270 0.443962 -0.093965
C49   C     C_R   0.870089 0.992743 0.498862 -0.061457
C50   C     C_R   0.914958 0.939614 0.557822 -0.032462
C51   C     C_R   0.138722 0.276063 0.461729 0.262257
Cl1   Cl    Cl    0.259137 0.949899 0.220687 -0.570872
Cl2   Cl    Cl    0.177448 0.209375 0.081315 -0.587399
Cl3   Cl    Cl    0.594270 0.972777 0.110510 -0.575981
Cl4   Cl    Cl    0.497987 0.808014 0.873838 -0.611072
Cl5   Cl    Cl    0.158517 0.506247 0.472005 -0.576319
Cu1   Cu    Cu3+1 0.529370 0.098270 0.475420 0.981204
Cu2   Cu    Cu3+1 0.470630 0.901730 0.524580 0.980286
H1    H     H_    0.752734 0.659251 0.771613 0.126221
H2    H     H_    0.730136 0.537055 0.289238 0.103684
H3    H     H_    0.770941 0.335249 0.257513 0.119967
H4    H     H_    0.433173 0.339213 0.564505 0.109218
H5    H     H_    0.286403 0.847576 0.693226 0.150374
H6    H     H_    0.354343 0.506139 0.670265 0.071898
H7    H     H_    0.238001 0.686300 0.760688 0.134430
H8    H     H_    0.624103 0.715137 0.392174 0.182026
H9    H     H_    0.804916 0.016152 0.777154 0.106644
H10   H     H_    0.870788 0.693466 0.459616 0.102057
H11   H     H_    0.805171 0.562972 0.561067 0.147828
H12   H     H_    0.352989 0.379270 0.294363 0.184036
H13   H     H_    0.921895 0.095607 0.399305 0.176653
H14   H     H_    0.058800 0.476047 0.139222 0.112001
H15   H     H_    0.090584 0.610791 0.272076 0.118030
H16   H     H_    0.001916 0.475295 0.274883 0.170466
H17   H     H_    0.022704 0.079396 0.779712 0.107530
H18   H     H_    0.189429 0.080091 0.730803 0.105973
H19   H     H_    0.116443 0.990364 0.805429 0.165744
H20   H     H_    0.138843 0.445499 0.681784 0.144899
H21   H     H_    0.150049 0.286136 0.650550 0.082430
H22   H     H_    0.007759 0.357350 0.720901 0.142723
H23   H     H_    0.390250 0.160366 0.195170 0.214925
H24   H     H_    0.324583 0.092745 0.874748 0.166145
H25   H     H_    0.537896 0.387789 0.813786 0.137857
H26   H     H_    0.473705 0.562170 0.840209 0.126860
H27   H     H_    0.757611 0.886259 0.879063 0.192110
H28   H     H_    0.313479 0.675456 0.285065 0.185880
H29   H     H_    0.720381 0.162168 0.308568 0.173379
N1    N     N_R   0.573890 0.246290 0.438210 -0.240871
N2    N     N_R   0.426890 0.754320 0.561170 -0.234670
O1    O     O_R   0.536940 0.972510 0.318130 -0.424062
O2    O     O_3   0.082633 0.918121 0.638705 -0.542775
O3    O     O_3   0.042025 0.316059 0.550497 -0.534052
O4    O     O_R   0.487330 0.806530 0.359650 -0.553451
O5    O     O_R   0.705160 0.082990 0.479250 -0.499230
O6    O     O_R   0.655550 0.917010 0.520760 -0.521467
O7    O     O_R   0.512670 0.193470 0.640350 -0.516575
O8    O     O_R   0.463060 0.027490 0.681870 -0.501044
O9    O     O_R   0.344450 0.082990 0.479240 -0.518783
O10   O     O_R   0.294840 0.917010 0.520750 -0.456037
O11   O     O_3   0.191159 0.460754 0.226668 -0.488993

loop_
_geom_bond_atom_site_label_1
_geom_bond_atom_site_label_2
_ccdc_geom_bond_type
C1    O1    A    
C27   C29   A    
C11   C13   A    
C47   O3    S    
C37   N1    A    
C19   C20   A    
C47   H21   S    
C26   H5    S    
C46   H18   S    
C37   H4    S    
C26   N2    A    
C13   H26   S    
C26   C27   A    
C7    C45   S    
C9    C16   S    
C12   C43   A    
C30   C31   A    
C51   O3    S    
C36   H8    S    
C16   O8    A    
C18   C19   A    
C41   C42   A    
C12   H1    S    
C15   C24   A    
C35   C36   A    
C31   N2    A    
Cu1   O7    S    
C20   H28   S    
C8    C22   A    
C29   H6    S    
C28   C34   S    
C43   H11   S    
C13   C14   A    
C42   H10   S    
C14   C17   A    
Cu2   O8    S    
C47   H22   S    
C10   Cl3   S    
C46   H17   S    
C15   C20   A    
C16   O7    A    
Cu1   O1    S    
C21   H25   S    
C3    H12   S    
C10   C11   A    
C39   C40   A    
C23   C50   A    
C46   O2    S    
C10   C24   A    
C40   H9    S    
C8    C18   A    
C38   N1    A    
C35   H2    S    
Cu2   O6    S    
C29   C30   A    
C27   H7    S    
C25   C38   A    
C4    O6    A    
C5    H23   S    
C23   C34   A    
C17   C18   A    
C34   C45   A    
C25   H3    S    
C32   C37   A    
C44   H16   S    
C4    O5    A    
C28   O10   A    
C48   C49   A    
Cu1   O5    S    
C23   O2    S    
C42   C43   A    
C39   H27   S    
C48   H13   S    
C22   H24   S    
C41   C50   S    
C11   Cl4   S    
C45   C48   A    
C28   O9    A    
C40   C41   A    
C14   C15   A    
Cu2   O4    S    
Cu2   O10   S    
C3    C5    A    
C8    Cl2   S    
C46   H19   S    
C19   O11   S    
C6    C7    A    
C38   H29   S    
Cu1   N1    S    
C4    C49   S    
C32   C33   A    
C12   C39   A    
C2    C3    A    
C7    C51   A    
C2    Cl5   S    
C30   C32   A    
C44   O11   S    
C9    C21   A    
Cu1   Cu2   S    
C5    C6    A    
Cu1   O9    S    
C33   C35   A    
C44   H14   S    
C44   H15   S    
C9    C22   A    
Cu2   N2    S    
C17   C21   A    
C2    C51   A    
C1    C24   S    
C1    O4    A    
C49   C50   A    
C31   C36   A    
C47   H20   S    
C6    Cl1   S    
C25   C33   A    
