data_mof_unit_52525.cif
_audit_creation_date              2012-12-10T17:53:17-0500
_audit_creation_method            fapswitch 2.2
_symmetry_space_group_name_H-M    P1
_symmetry_Int_Tables_number       1
_space_group_crystal_system       triclinic
_cell_length_a                    23.066574
_cell_length_b                    10.722589
_cell_length_c                    9.971018
_cell_angle_alpha                 91.101176
_cell_angle_beta                  92.005601
_cell_angle_gamma                 91.805384
_cell_volume                      2462.92173125

loop_
_atom_site_label
_atom_site_type_symbol
_atom_type_description
_atom_site_fract_x
_atom_site_fract_y
_atom_site_fract_z
_atom_type_partial_charge
C1    C     C_R   0.508336 0.262633 0.500327 0.947551
C2    C     C_R   0.972408 0.278403 0.637851 -0.122595
C3    C     C_R   0.032679 0.276427 0.651378 0.478897
C4    C     C_R   0.065461 0.390930 0.653130 -0.116349
C5    C     C_R   0.036687 0.505141 0.648122 -0.099585
C6    C     C_R   0.069123 0.619390 0.656109 -0.148783
C7    C     C_R   0.039326 0.732881 0.668789 0.461975
C8    C     C_R   0.978865 0.731260 0.654659 -0.122494
C9    C     C_R   0.126133 0.397494 0.656153 0.608821
C10   C     C_R   0.129579 0.614316 0.639526 0.564711
C11   C     C_R   0.234731 0.599416 0.477477 0.538496
C12   C     C_R   0.389449 0.500733 0.498150 0.897068
C13   C     C_R   0.295388 0.604173 0.466275 -0.194190
C14   C     C_R   0.326464 0.495727 0.494639 -0.332624
C15   C     C_R   0.296362 0.380664 0.513852 0.378821
C16   C     C_R   0.235919 0.379380 0.517400 -0.066023
C17   C     C_R   0.207819 0.493686 0.536179 -0.014006
C18   C     C_R   0.758365 0.428221 0.641510 -0.050642
C19   C     C_R   0.699597 0.417407 0.609262 0.457717
C20   C     C_R   0.674645 0.496082 0.511876 -0.244478
C21   C     C_R   0.711152 0.575354 0.436932 -0.115335
C22   C     C_R   0.771383 0.574404 0.462574 -0.055031
C23   C     C_R   0.500976 0.740993 0.501861 0.880332
C24   C     C_R   0.794857 0.503738 0.566837 0.132779
C25   C     C_R   0.549932 0.132629 0.746343 -0.231307
C26   C     C_R   0.545387 0.076166 0.870747 0.496642
C27   C     C_R   0.516373 0.960982 0.876530 -0.154431
C28   C     C_R   0.498107 0.897302 0.758398 -0.222151
C29   C     C_R   0.511178 0.945600 0.630447 0.072965
C30   C     C_R   0.528788 0.071341 0.626709 -0.011875
C31   C     C_R   0.523393 0.132531 0.503051 -0.243665
C32   C     C_R   0.525065 0.065056 0.382433 0.417188
C33   C     C_R   0.522274 0.936276 0.385249 0.316664
C34   C     C_R   0.611052 0.501252 0.502343 0.818898
C35   C     C_R   0.508898 0.875906 0.506417 -0.260039
C36   C     C_R   0.401149 0.406046 0.126662 -0.079519
C37   C     C_R   0.348234 0.413459 0.052471 -0.132636
C38   C     C_R   0.350133 0.397185 0.913475 -0.173602
C39   C     C_R   0.403931 0.392166 0.854890 0.456530
C40   C     C_R   0.453168 0.447663 0.923742 0.005968
C41   C     C_R   0.452050 0.452772 0.067002 0.008059
C42   C     C_R   0.544950 0.549493 0.077038 -0.007716
C43   C     C_R   0.544432 0.553822 0.934260 -0.028032
C44   C     C_R   0.886365 0.615949 0.617111 0.565807
C45   C     C_R   0.884168 0.393349 0.598195 0.556724
C46   C     C_R   0.943923 0.391401 0.625743 -0.098742
C47   C     C_R   0.975791 0.505055 0.637742 -0.016378
C48   C     C_R   0.946884 0.618474 0.636186 -0.101948
H1    H     H_    0.948124 0.190166 0.631824 0.221436
H2    H     H_    0.800318 0.631495 0.404249 0.209703
H3    H     H_    0.570570 0.223984 0.744724 0.185274
H4    H     H_    0.508494 0.919643 0.972732 0.187735
H5    H     H_    0.472634 0.813031 0.772050 0.193334
H6    H     H_    0.580868 0.591912 0.135864 0.171010
H7    H     H_    0.311177 0.370080 0.854792 0.232670
H8    H     H_    0.957074 0.819257 0.658642 0.222273
H9    H     H_    0.776208 0.372563 0.721583 0.193736
N1    N     N_R   0.856423 0.504623 0.594228 -0.338944
N2    N     N_R   0.153815 0.501969 0.609354 -0.319959
N3    N     N_R   0.499460 0.498800 0.142780 -0.117431
N4    N     N_R   0.499440 0.498720 0.857170 -0.157938
O1    O     O_R   0.500000 0.316780 0.614690 -0.617601
O2    O     O_2   0.854278 0.284805 0.572088 -0.532650
O3    O     O_2   0.156827 0.305645 0.711799 -0.513804
O4    O     O_2   0.163460 0.718589 0.654054 -0.468235
O5    O     O_R   0.500000 0.316750 0.385360 -0.580012
O6    O     O_R   0.416160 0.499970 0.614690 -0.559836
O7    O     O_R   0.416150 0.499950 0.385360 -0.629940
O8    O     O_R   0.500000 0.683250 0.614640 -0.666863
O9    O     O_R   0.500000 0.683220 0.385310 -0.581429
O10   O     O_R   0.583850 0.500050 0.614640 -0.621278
O11   O     O_R   0.583840 0.500030 0.385310 -0.623289
O12   O     O_2   0.857705 0.723672 0.621565 -0.525613
Zn1   Zn    Zn3+2 0.500000 0.500020 0.653130 0.950717
Zn2   Zn    Zn3+2 0.500000 0.499980 0.346870 0.984688
O13   O     O_3   0.667923 0.326917 0.673117 -0.741533
H10   H     H_    0.637468 0.294312 0.608031 0.320738
C49   C     C_2   0.687714 0.663616 0.337227 0.506806
H11   H     H_    0.642064 0.683209 0.331817 0.036854
O14   O     O_2   0.719595 0.717397 0.260285 -0.506422
O15   O     O_3   0.533056 0.126254 0.263760 -0.706537
H12   H     H_    0.517376 0.072117 0.188684 0.393226
O16   O     O_3   0.567164 0.133279 0.987642 -0.734516
H13   H     H_    0.585356 0.215284 0.966499 0.353987
O17   O     O_3   0.533190 0.872282 0.268209 -0.746630
H14   H     H_    0.568196 0.823627 0.287826 0.344751
O18   O     O_3   0.057252 0.160903 0.652893 -0.666488
H15   H     H_    0.091750 0.164183 0.596835 0.392552
C50   C     C_2   0.406932 0.289947 0.202501 0.478821
H16   H     H_    0.445981 0.238179 0.194388 0.126487
O19   O     O_2   0.366846 0.244845 0.263920 -0.576024
C51   C     C_2   0.291950 0.411486 0.119653 0.575517
H17   H     H_    0.291020 0.418571 0.227998 0.074503
O20   O     O_2   0.246026 0.403954 0.054800 -0.519996
O21   O     O_3   0.408750 0.305440 0.753967 -0.708511
H18   H     H_    0.439189 0.248588 0.785728 0.340841
C52   C     C_2   0.591330 0.625856 0.871174 0.464789
H19   H     H_    0.583849 0.668476 0.775224 0.117393
O22   O     O_2   0.638813 0.641906 0.928029 -0.534847
O23   O     O_3   0.067307 0.847001 0.690976 -0.659150
H20   H     H_    0.095846 0.836991 0.766256 0.383005
O24   O     O_3   0.202724 0.691921 0.418904 -0.634412
H21   H     H_    0.163044 0.657394 0.397117 0.340310
C53   C     C_2   0.326160 0.721371 0.425725 0.532756
H22   H     H_    0.371553 0.721294 0.401153 0.035003
O25   O     O_2   0.301536 0.820425 0.421131 -0.447980
O26   O     O_3   0.323534 0.267668 0.523975 -0.696163
H23   H     H_    0.365872 0.279149 0.515590 0.389695
C54   C     C_2   0.203752 0.263233 0.471509 0.571089
H24   H     H_    0.222606 0.172803 0.485965 0.163427
O27   O     O_2   0.156939 0.268062 0.411034 -0.579528

loop_
_geom_bond_atom_site_label_1
_geom_bond_atom_site_label_2
_ccdc_geom_bond_type
C36   C50   S    
O18   H15   S    
C26   O16   S    
C9    O3    S    
C23   O8    A    
O21   H18   S    
C1    O1    A    
C8    H8    S    
C25   H3    S    
O15   H12   S    
C7    C8    A    
O17   H14   S    
C2    C46   A    
O7    Zn2   S    
C32   O15   S    
C12   O7    A    
C26   C27   A    
C29   C30   A    
O16   H13   S    
C18   C24   A    
C28   C29   A    
C54   O27   D    
C30   C31   A    
C49   O14   D    
C15   C16   A    
C1    C31   S    
C18   C19   A    
C15   O26   S    
C33   O17   S    
O23   H20   S    
C11   C17   A    
C38   H7    S    
C19   C20   A    
C44   N1    A    
C16   C17   A    
C21   C49   S    
O26   H23   S    
C50   O19   D    
C22   H2    S    
C20   C34   S    
C21   C22   A    
C23   O9    A    
C19   O13   S    
C36   C41   A    
O24   H21   S    
O11   Zn2   S    
C53   O25   D    
C53   H22   S    
C52   O22   D    
C16   C54   S    
C52   H19   S    
C38   C39   A    
C12   O6    A    
C45   N1    A    
C7    O23   S    
C3    O18   S    
O13   H10   S    
C42   N3    A    
C39   C40   A    
C49   H11   S    
C25   C26   A    
C45   C46   A    
C45   O2    S    
C40   N4    A    
C9    N2    A    
C8    C48   A    
C37   C38   A    
C2    H1    S    
C5    C47   A    
C18   H9    S    
C47   C48   A    
C51   O20   D    
C1    O5    A    
O8    Zn1   S    
O6    Zn1   S    
C13   C53   S    
C39   O21   S    
C17   N2    S    
C40   C41   A    
C12   C14   S    
C23   C35   S    
C22   C24   A    
C42   C43   A    
C3    C4    A    
C34   O11   A    
O9    Zn2   S    
C27   H4    S    
C43   N4    A    
C10   O4    S    
C25   C30   A    
C46   C47   A    
C36   C37   A    
C37   C51   S    
C31   C32   A    
C43   C52   S    
C41   N3    A    
C4    C5    A    
C6    C10   A    
O10   Zn1   S    
C28   H5    S    
C6    C7    A    
N4    Zn1   S    
C29   C35   A    
N3    Zn2   S    
C32   C33   A    
C2    C3    A    
C4    C9    A    
C54   H24   S    
C42   H6    S    
C11   C13   A    
C5    C6    A    
O5    Zn2   S    
C51   H17   S    
C33   C35   A    
C10   N2    A    
C11   O24   S    
C44   O12   S    
C20   C21   A    
C24   N1    S    
C27   C28   A    
C14   C15   A    
O1    Zn1   S    
C50   H16   S    
C13   C14   A    
C34   O10   A    
C44   C48   A    
