data_mof_unit_64988.cif
_audit_creation_date              2012-12-10T18:08:01-0500
_audit_creation_method            fapswitch 2.2
_symmetry_space_group_name_H-M    P1
_symmetry_Int_Tables_number       1
_space_group_crystal_system       triclinic
_cell_length_a                    12.751896
_cell_length_b                    13.903993
_cell_length_c                    15.870373
_cell_angle_alpha                 90.233146
_cell_angle_beta                  92.696017
_cell_angle_gamma                 97.94257
_cell_volume                      2783.61660824

loop_
_atom_site_label
_atom_site_type_symbol
_atom_type_description
_atom_site_fract_x
_atom_site_fract_y
_atom_site_fract_z
_atom_type_partial_charge
C1    C     C_R   0.483570 0.315824 0.499127 0.812349
C2    C     C_R   0.516430 0.684176 0.500872 0.812349
C3    C     C_2   0.543509 0.978389 0.502266 -0.154356
C4    C     C_2   0.456491 0.021611 0.497734 -0.154356
C5    C     C_1   0.465653 0.125429 0.498202 0.020622
C6    C     C_1   0.534347 0.874571 0.501798 0.020622
C7    C     C_2   0.028253 0.473017 0.476168 0.381562
C8    C     C_2   0.971747 0.526983 0.523831 0.381562
C9    C     C_1   0.854585 0.519326 0.517040 0.239019
C10   C     C_1   0.145415 0.480674 0.482960 0.239019
C11   C     C_R   0.500729 0.500016 0.339497 0.821727
C12   C     C_R   0.499271 0.499984 0.660503 0.821727
C13   C     C_3   0.442386 0.417754 0.969969 -0.154477
C14   C     C_3   0.557614 0.582245 0.030031 -0.154478
C15   C     C_3   0.543352 0.423035 0.028920 -0.152159
C16   C     C_3   0.456648 0.576965 0.971080 -0.152159
C17   C     C_1   0.502117 0.500098 0.249828 -0.155977
C18   C     C_1   0.497883 0.499902 0.750171 -0.155977
C19   C     C_3   0.400300 0.494783 0.025175 -0.148935
C20   C     C_3   0.599700 0.505217 0.974825 -0.148935
C21   C     C_3   0.501262 0.500063 0.082591 0.177609
C22   C     C_3   0.498738 0.499937 0.917409 0.177609
C23   C     C_1   0.502197 0.500108 0.174278 -0.055709
C24   C     C_1   0.497803 0.499892 0.825722 -0.055709
C25   C     C_1   0.525814 0.787517 0.501359 -0.148342
C26   C     C_1   0.474186 0.212483 0.498641 -0.148343
Cu1   Cu    Cu3+1 0.395330 0.493960 0.494680 1.014353
Cu2   Cu    Cu3+1 0.604670 0.506040 0.505320 1.014353
H1    H     H_    0.578998 0.359883 0.054014 0.143771
H2    H     H_    0.421002 0.640117 0.945986 0.143771
H3    H     H_    0.395036 0.350262 0.943964 0.142115
H4    H     H_    0.604964 0.649738 0.056036 0.142115
N1    N     N_1   0.238040 0.484880 0.486690 -0.159799
N2    N     N_1   0.761960 0.515120 0.513310 -0.159799
O1    O     O_R   0.399110 0.356330 0.494860 -0.567524
O2    O     O_R   0.600890 0.643670 0.505140 -0.567524
O3    O     O_R   0.575890 0.366540 0.503840 -0.564562
O4    O     O_R   0.424110 0.633460 0.496160 -0.564562
O5    O     O_R   0.411620 0.494890 0.374590 -0.568794
O6    O     O_R   0.588380 0.505110 0.625410 -0.568794
O7    O     O_R   0.588400 0.505100 0.383570 -0.564842
O8    O     O_R   0.411600 0.494900 0.616430 -0.564843
H5    H     H_    0.681540 0.509499 0.952785 0.145405
H6    H     H_    0.318459 0.490501 0.047215 0.145405
H7    H     H_    0.378061 0.979337 0.493658 0.168107
H8    H     H_    0.621939 0.020662 0.506342 0.168107
F1    F     F_    0.024299 0.591621 0.580955 -0.671161
F2    F     F_    0.975701 0.408379 0.419045 -0.671161

loop_
_geom_bond_atom_site_label_1
_geom_bond_atom_site_label_2
_ccdc_geom_bond_type
C12   O6    A    
C7    C10   S    
C12   O8    A    
C11   O7    A    
C2    C25   S    
C2    O4    A    
C3    H8    S    
C1    O3    A    
C15   C20   S    
C3    C6    S    
C7    F2    S    
C21   C23   S    
C8    C9    S    
C8    F1    S    
Cu2   N2    S    
C7    C8    D    
Cu1   N1    S    
C11   O5    A    
Cu1   O8    S    
C1    O1    A    
C17   C23   T    
C13   C22   S    
Cu1   O5    S    
Cu2   O3    S    
C16   C19   S    
C18   C24   T    
C14   C21   S    
C19   C21   S    
C20   C22   S    
C9    N2    T    
C15   H1    S    
C10   N1    T    
C14   C16   S    
C4    H7    S    
C13   C15   S    
C1    C26   S    
C22   C24   S    
C6    C25   T    
C13   C19   S    
Cu1   O4    S    
C16   H2    S    
C5    C26   T    
C14   C20   S    
Cu2   O7    S    
C15   C21   S    
C20   H5    S    
C19   H6    S    
Cu2   O2    S    
C2    O2    A    
Cu1   Cu2   S    
Cu2   O6    S    
C11   C17   S    
C16   C22   S    
Cu1   O1    S    
C13   H3    S    
C3    C4    D    
C14   H4    S    
C4    C5    S    
C12   C18   S    
