data_mof_unit_18722.cif
_audit_creation_date              2012-12-11T14:52:28-0500
_audit_creation_method            fapswitch 2.2
_symmetry_space_group_name_H-M    P1
_symmetry_Int_Tables_number       1
_space_group_crystal_system       triclinic
_cell_length_a                    18.850141
_cell_length_b                    10.891734
_cell_length_c                    18.762764
_cell_angle_alpha                 89.981531
_cell_angle_beta                  91.149908
_cell_angle_gamma                 90.054736
_cell_volume                      3851.41889103

loop_
_atom_site_label
_atom_site_type_symbol
_atom_type_description
_atom_site_fract_x
_atom_site_fract_y
_atom_site_fract_z
_atom_type_partial_charge
C1    C     C_R   0.271848 0.042928 0.853321 0.558247
C2    C     C_R   0.711192 0.000636 0.138771 0.538589
C3    C     C_R   0.788898 0.500342 0.861247 0.538366
C4    C     C_R   0.225785 0.538122 0.144479 0.546988
C5    C     C_3   0.546085 0.726046 0.962182 -0.118502
C6    C     C_3   0.494387 0.723093 0.024846 -0.106309
C7    C     C_3   0.006663 0.224397 0.974768 -0.099299
C8    C     C_3   0.955025 0.224572 0.037509 -0.115744
C9    C     C_R   0.310255 0.552712 0.965236 -0.148201
C10   C     C_R   0.703715 0.510945 0.041472 -0.142895
C11   C     C_R   0.796408 0.011499 0.958616 -0.143326
C12   C     C_R   0.199325 0.028191 0.036860 -0.144758
C13   C     C_R   0.303354 0.539733 0.038605 -0.152262
C14   C     C_R   0.714828 0.481546 0.970124 -0.146145
C15   C     C_R   0.785383 0.982354 0.030015 -0.146346
C16   C     C_R   0.203587 0.011691 0.963500 -0.141202
C17   C     C_R   0.237635 0.562121 0.069484 0.034226
C18   C     C_R   0.774956 0.527382 0.935614 0.023924
C19   C     C_R   0.725216 0.027922 0.064463 0.023453
C20   C     C_R   0.251765 0.082002 0.924093 0.025724
C21   C     C_R   0.178239 0.590041 0.026077 -0.141517
C22   C     C_R   0.824886 0.597377 0.973563 -0.143318
C23   C     C_R   0.675174 0.097421 0.026425 -0.144311
C24   C     C_R   0.291951 0.173652 0.957625 -0.138250
C25   C     C_R   0.184739 0.600332 0.953408 -0.142820
C26   C     C_R   0.814279 0.625335 0.043748 -0.147967
C27   C     C_R   0.685632 0.124935 0.956150 -0.147879
C28   C     C_R   0.288839 0.188136 0.030324 -0.133870
C29   C     C_R   0.251120 0.586585 0.922712 0.031624
C30   C     C_R   0.753374 0.584280 0.078329 0.029367
C31   C     C_R   0.746604 0.084245 0.921644 0.029224
C32   C     C_R   0.243888 0.113655 0.070843 0.028866
C33   C     C_R   0.465739 0.727181 0.527906 -0.123212
C34   C     C_R   0.472868 0.731577 0.455212 -0.134171
C35   C     C_R   0.968926 0.223811 0.528232 -0.123510
C36   C     C_R   0.975416 0.227473 0.455466 -0.132862
C37   C     C_R   0.501908 0.835618 0.423887 0.030901
C38   C     C_R   0.485222 0.828250 0.570610 0.034127
C39   C     C_R   0.999250 0.334566 0.422838 0.031798
C40   C     C_R   0.983178 0.328711 0.569736 0.035429
C41   C     C_R   0.519000 0.939301 0.465724 -0.137116
C42   C     C_R   0.510500 0.935581 0.539178 -0.153396
C43   C     C_R   0.009692 0.442136 0.463233 -0.129150
C44   C     C_R   0.001230 0.439336 0.536734 -0.135032
C45   C     C_R   0.472441 0.821582 0.854366 0.550919
C46   C     C_R   0.560916 0.817117 0.137444 0.545034
C47   C     C_R   0.938979 0.317031 0.862538 0.545354
C48   C     C_R   0.027614 0.321527 0.145586 0.545245
C49   C     C_R   0.185766 0.621982 0.538674 -0.136910
C50   C     C_R   0.793005 0.685063 0.473948 -0.124603
C51   C     C_R   0.708287 0.187331 0.525750 -0.128595
C52   C     C_R   0.326523 0.081112 0.451358 -0.126429
C53   C     C_R   0.184760 0.624180 0.466185 -0.131639
C54   C     C_R   0.792439 0.679427 0.546602 -0.134050
C55   C     C_R   0.708794 0.180719 0.453093 -0.139238
C56   C     C_R   0.337707 0.052849 0.522389 -0.131238
C57   C     C_R   0.241260 0.573608 0.428670 0.038790
C58   C     C_R   0.747551 0.595915 0.579364 0.032882
C59   C     C_R   0.752562 0.095156 0.420768 0.033532
C60   C     C_R   0.282127 0.005589 0.562114 0.028785
C61   C     C_R   0.300216 0.524298 0.465110 -0.137830
C62   C     C_R   0.695051 0.533003 0.539770 -0.131524
C63   C     C_R   0.803847 0.030155 0.460778 -0.139485
C64   C     C_R   0.217663 0.973039 0.528113 -0.126706
C65   C     C_R   0.303138 0.529360 0.538773 -0.134535
C66   C     C_R   0.693787 0.542209 0.466283 -0.135940
C67   C     C_R   0.804777 0.039426 0.534226 -0.146057
C68   C     C_R   0.205767 0.004234 0.457167 -0.137100
C69   C     C_R   0.246957 0.583232 0.575226 0.039485
C70   C     C_R   0.744686 0.614820 0.433165 0.039519
C71   C     C_R   0.755187 0.114949 0.566897 0.041223
C72   C     C_R   0.258827 0.065633 0.420042 0.028969
C73   C     C_R   0.260807 0.635257 0.851473 0.548150
C74   C     C_R   0.739522 0.635840 0.148309 0.534049
C75   C     C_R   0.760455 0.135819 0.851662 0.534008
C76   C     C_R   0.237780 0.141905 0.146143 0.546723
C77   C     C_R   0.291632 0.994048 0.638845 0.570804
C78   C     C_R   0.730125 0.048975 0.352409 0.559914
C79   C     C_R   0.769859 0.549196 0.647660 0.560854
C80   C     C_R   0.227926 0.544407 0.355089 0.551999
C81   C     C_R   0.467695 0.823061 0.645450 0.539173
C82   C     C_R   0.529643 0.824302 0.352770 0.559296
C83   C     C_R   0.966725 0.323051 0.644907 0.561861
C84   C     C_R   0.028980 0.324180 0.352394 0.549515
C85   C     C_R   0.258949 0.633327 0.645046 0.542872
C86   C     C_R   0.739013 0.641122 0.358340 0.554446
C87   C     C_R   0.760950 0.141197 0.641687 0.553144
C88   C     C_R   0.241444 0.132586 0.355004 0.553689
C89   C     C_3   0.492995 0.924973 0.026979 -0.109885
C90   C     C_3   0.544450 0.927970 0.963662 -0.125864
C91   C     C_3   0.954236 0.426475 0.036734 -0.129439
C92   C     C_3   0.005578 0.426274 0.973315 -0.116726
C93   C     C_3   0.448689 0.824061 0.989232 -0.107885
C94   C     C_3   0.590655 0.826842 0.999938 -0.140934
C95   C     C_3   0.909181 0.324042 0.000168 -0.140579
C96   C     C_3   0.051198 0.326732 0.010633 -0.108158
C97   C     C_3   0.500724 0.827113 0.927301 0.053868
C98   C     C_3   0.538609 0.823887 0.061923 0.047657
C99   C     C_3   0.961161 0.323827 0.938100 0.047937
C100  C     C_3   0.999257 0.326986 0.072661 0.053624
Cr1   Cr    Cr6+3 0.229630 0.835900 0.747350 1.012614
Cr2   Cr    Cr6+3 0.770370 0.835900 0.252650 1.001865
Cr3   Cr    Cr6+3 0.729630 0.335900 0.747350 1.003586
Cr4   Cr    Cr6+3 0.270370 0.335900 0.252650 1.015051
Cr5   Cr    Cr6+3 0.387410 0.989850 0.750850 1.012876
Cr6   Cr    Cr6+3 0.612590 0.989850 0.249150 1.008811
Cr7   Cr    Cr6+3 0.887410 0.489850 0.750850 1.011365
Cr8   Cr    Cr6+3 0.112590 0.489850 0.249150 1.012160
Cr9   Cr    Cr6+3 0.385800 0.677120 0.749340 1.008539
Cr10  Cr    Cr6+3 0.614200 0.677120 0.250660 1.008917
Cr11  Cr    Cr6+3 0.885800 0.177120 0.749340 1.009264
Cr12  Cr    Cr6+3 0.114200 0.177120 0.250660 1.017740
H1    H     H_    0.389929 0.822934 0.983346 0.121879
H2    H     H_    0.649355 0.825698 0.005411 0.118956
H3    H     H_    0.850484 0.321110 0.994696 0.118644
H4    H     H_    0.109969 0.327674 0.016385 0.124058
H5    H     H_    0.140892 0.661518 0.565669 0.126937
H6    H     H_    0.831179 0.746048 0.450079 0.130398
H7    H     H_    0.671252 0.250566 0.549347 0.130318
H8    H     H_    0.369202 0.124683 0.422901 0.132786
H9    H     H_    0.137676 0.660928 0.439917 0.128590
H10   H     H_    0.831976 0.731524 0.576537 0.126376
H11   H     H_    0.670180 0.234146 0.422802 0.124348
H12   H     H_    0.388416 0.074792 0.547282 0.131530
H13   H     H_    0.350303 0.496992 0.566772 0.123098
H14   H     H_    0.654023 0.492086 0.435580 0.120091
H15   H     H_    0.843363 0.987321 0.565259 0.112027
H16   H     H_    0.153713 0.988757 0.433325 0.127523
H17   H     H_    0.362314 0.542677 0.942538 0.132509
H18   H     H_    0.655897 0.479713 0.066921 0.127446
H19   H     H_    0.844274 0.980553 0.933216 0.127833
H20   H     H_    0.162591 0.973126 0.066983 0.126872
H21   H     H_    0.349130 0.514217 0.071117 0.115601
H22   H     H_    0.676123 0.425334 0.941854 0.129183
H23   H     H_    0.824165 0.926498 0.058355 0.129166
H24   H     H_    0.172101 0.939858 0.938459 0.136523
H25   H     H_    0.125980 0.602441 0.047982 0.136646
H26   H     H_    0.872737 0.631175 0.949168 0.134975
H27   H     H_    0.627294 0.130980 0.050789 0.135784
H28   H     H_    0.328774 0.229912 0.928282 0.133566
H29   H     H_    0.138388 0.625783 0.921693 0.125631
H30   H     H_    0.853685 0.682849 0.070111 0.128158
H31   H     H_    0.646123 0.181997 0.929683 0.128786
H32   H     H_    0.321593 0.259097 0.054562 0.140359
H33   H     H_    0.444120 0.644151 0.550483 0.133472
H34   H     H_    0.459256 0.650897 0.423996 0.123917
H35   H     H_    0.951909 0.138139 0.551713 0.136220
H36   H     H_    0.966053 0.143895 0.425360 0.127694
H37   H     H_    0.542371 0.020441 0.442397 0.136637
H38   H     H_    0.524026 0.015252 0.571232 0.118778
H39   H     H_    0.027954 0.526136 0.438762 0.125199
H40   H     H_    0.009841 0.522171 0.567664 0.118064
O1    O     O_R   0.214270 0.709000 0.827470 -0.524131
O2    O     O_R   0.785730 0.709000 0.172530 -0.535045
O3    O     O_R   0.714270 0.209000 0.827470 -0.534690
O4    O     O_R   0.285730 0.209000 0.172530 -0.528541
O5    O     O_R   0.445950 0.919440 0.676520 -0.525573
O6    O     O_R   0.554050 0.919440 0.323480 -0.501200
O7    O     O_R   0.945950 0.419440 0.676520 -0.495962
O8    O     O_R   0.054050 0.419440 0.323480 -0.506961
O9    O     O_R   0.456730 0.717630 0.669840 -0.524838
O10   O     O_R   0.543270 0.717630 0.330160 -0.517011
O11   O     O_R   0.956730 0.217630 0.669840 -0.520800
O12   O     O_R   0.043270 0.217630 0.330160 -0.523745
O13   O     O_R   0.320620 0.625640 0.672920 -0.511240
O14   O     O_R   0.679380 0.625640 0.327080 -0.501047
O15   O     O_R   0.820620 0.125640 0.672920 -0.506020
O16   O     O_R   0.179380 0.125640 0.327080 -0.502627
O17   O     O_3   0.334280 0.834290 0.749180 -0.269838
O18   O     O_3   0.665720 0.834290 0.250820 -0.278317
O19   O     O_3   0.834280 0.334290 0.749180 -0.281053
O20   O     O_3   0.165720 0.334290 0.250820 -0.246188
O21   O     O_R   0.236160 0.958490 0.823130 -0.500466
O22   O     O_R   0.763840 0.958490 0.176870 -0.503701
O23   O     O_R   0.736160 0.458490 0.823130 -0.502823
O24   O     O_R   0.263840 0.458490 0.176870 -0.508115
O25   O     O_R   0.332080 0.075470 0.831280 -0.517327
O26   O     O_R   0.667920 0.075470 0.168720 -0.523094
O27   O     O_R   0.832080 0.575470 0.831280 -0.523629
O28   O     O_R   0.167920 0.575470 0.168720 -0.525703
O29   O     O_R   0.446300 0.918110 0.826620 -0.500229
O30   O     O_R   0.553700 0.918110 0.173380 -0.513069
O31   O     O_R   0.946300 0.418110 0.826620 -0.512558
O32   O     O_R   0.053700 0.418110 0.173380 -0.508888
O33   O     O_R   0.457110 0.716200 0.831760 -0.520926
O34   O     O_R   0.542890 0.716200 0.168240 -0.517079
O35   O     O_R   0.957110 0.216200 0.831760 -0.512936
O36   O     O_R   0.042890 0.216200 0.168240 -0.520565
O37   O     O_R   0.320980 0.624310 0.823030 -0.504608
O38   O     O_R   0.679020 0.624310 0.176970 -0.519005
O39   O     O_R   0.820980 0.124310 0.823030 -0.518890
O40   O     O_R   0.179020 0.124310 0.176970 -0.504403
O41   O     O_R   0.213890 0.710430 0.665540 -0.537710
O42   O     O_R   0.786110 0.710430 0.334460 -0.527445
O43   O     O_R   0.713890 0.210430 0.665540 -0.527280
O44   O     O_R   0.286110 0.210430 0.334460 -0.523296
O45   O     O_R   0.235810 0.959820 0.673020 -0.503320
O46   O     O_R   0.764190 0.959820 0.326980 -0.503329
O47   O     O_R   0.735810 0.459820 0.673020 -0.503016
O48   O     O_R   0.264190 0.459820 0.326980 -0.501985
O49   O     O_R   0.331700 0.076900 0.669350 -0.515910
O50   O     O_R   0.668300 0.076900 0.330650 -0.522855
O51   O     O_R   0.831700 0.576900 0.669350 -0.519615
O52   O     O_R   0.168300 0.576900 0.330650 -0.529235
H41   H     H_    0.343157 0.481127 0.436939 0.122694
H42   H     H_    0.658578 0.470453 0.564949 0.122904
H43   H     H_    0.839510 0.965956 0.435949 0.118757
H44   H     H_    0.174850 0.931338 0.557226 0.136574
H45   H     H_    0.471264 0.006357 0.054643 0.125630
H46   H     H_    0.561732 0.010917 0.934747 0.117561
H47   H     H_    0.936133 0.508207 0.066167 0.116745
H48   H     H_    0.025765 0.508948 0.945729 0.112741
H49   H     H_    0.567916 0.644875 0.934370 0.125972
H50   H     H_    0.473397 0.638818 0.050235 0.122259
H51   H     H_    0.028713 0.141309 0.949083 0.131537
H52   H     H_    0.934212 0.142226 0.065069 0.125637

loop_
_geom_bond_atom_site_label_1
_geom_bond_atom_site_label_2
_ccdc_geom_bond_type
Cr2   O18   S    
C49   C53   A    
C58   C62   A    
C55   C59   A    
C34   C37   A    
Cr4   O48   S    
C41   C42   A    
C88   O44   A    
Cr1   O21   S    
C35   C36   A    
C86   O14   A    
C21   H25   S    
C3    O23   A    
C45   O33   A    
C5    C94   S    
Cr10  O10   S    
C45   O29   A    
C7    C8    S    
Cr4   O24   S    
Cr7   O19   S    
C24   H28   S    
C13   H21   S    
C15   C19   A    
C7    C96   S    
C64   H44   S    
C1    O21   A    
C50   C54   A    
C7    C99   S    
C51   H7    S    
C37   C41   A    
C52   C72   A    
C64   C68   A    
C23   H27   S    
C80   O52   A    
Cr9   O17   S    
C39   C84   S    
C48   O36   A    
C83   O11   A    
Cr2   O46   S    
C5    C6    S    
C30   C74   S    
Cr1   O45   S    
C41   H37   S    
C94   C98   S    
Cr12  O16   S    
Cr5   O49   S    
C92   C96   S    
C47   C99   S    
Cr8   O28   S    
C3    C18   S    
C9    C13   A    
Cr6   O30   S    
C3    O27   A    
C73   O37   A    
C74   O38   A    
C11   C15   A    
C36   H36   S    
C87   O15   A    
C12   C16   A    
C15   H23   S    
Cr9   O37   S    
C88   O16   A    
Cr7   O31   S    
C27   H31   S    
Cr1   O17   S    
C2    O26   A    
C28   H32   S    
C23   C27   A    
C91   C100  S    
Cr2   O2    S    
C90   C97   S    
C67   C71   A    
C84   O12   A    
C9    C29   A    
Cr6   O26   S    
Cr4   O20   S    
C68   H16   S    
C46   C98   S    
C11   C31   A    
C58   C79   S    
C45   C97   S    
C49   C69   A    
C12   C32   A    
Cr3   O19   S    
Cr6   O18   S    
C57   C80   S    
C40   C83   S    
Cr9   O13   S    
C8    C95   S    
C1    O25   A    
C4    O28   A    
Cr12  O12   S    
C75   O39   A    
Cr2   O42   S    
C59   C78   S    
C96   H4    S    
C72   C88   S    
C48   O32   A    
Cr1   O41   S    
C90   C94   S    
C55   H11   S    
C53   H9    S    
C25   C29   A    
C48   C100  S    
Cr5   O5    S    
C60   C77   S    
C59   C63   A    
C81   O5    A    
Cr8   O32   S    
C27   C31   A    
C94   H2    S    
C16   H24   S    
C78   O50   A    
Cr11  O39   S    
C28   C32   A    
Cr11  O11   S    
C91   H47   S    
C10   C14   A    
C95   H3    S    
C91   C92   S    
Cr3   O43   S    
C62   C66   A    
C89   H45   S    
C82   O10   A    
C51   C55   A    
Cr9   O33   S    
Cr6   O6    S    
C76   O4    A    
C17   C21   A    
C66   H14   S    
C11   H19   S    
C68   C72   A    
C74   O2    A    
C65   H13   S    
C19   C23   A    
C43   C44   A    
C10   H18   S    
C63   C67   A    
Cr7   O51   S    
C76   O40   A    
C69   C85   S    
C67   H15   S    
Cr6   O50   S    
C6    C98   S    
C10   C30   A    
C31   C75   S    
C6    H50   S    
Cr1   O1    S    
C16   C20   A    
C6    C93   S    
C5    H49   S    
Cr3   O23   S    
C33   C34   A    
Cr4   O44   S    
C83   O7    A    
C82   O6    A    
Cr3   O47   S    
C46   O34   A    
C35   H35   S    
C33   H33   S    
Cr12  O40   S    
C54   H10   S    
C71   C87   S    
C4    C17   S    
C52   H8    S    
C47   O31   A    
C5    C97   S    
C26   C30   A    
C79   O51   A    
Cr8   O20   S    
C38   C81   S    
C4    O24   A    
Cr5   O17   S    
C49   H5    S    
C37   C82   S    
C92   H48   S    
Cr11  O15   S    
C47   O35   A    
C70   C86   S    
C93   C97   S    
C43   H39   S    
C90   H46   S    
Cr12  O36   S    
C54   C58   A    
Cr3   O3    S    
C21   C25   A    
Cr10  O34   S    
C1    C20   S    
C53   C57   A    
C12   H20   S    
C79   O47   A    
Cr7   O27   S    
C2    C19   S    
C50   H6    S    
C81   O9    A    
C14   C18   A    
C36   C39   A    
C25   H29   S    
C24   C28   A    
Cr5   O25   S    
C8    H52   S    
C77   O49   A    
C32   C76   S    
Cr7   O7    S    
C51   C71   A    
C57   C61   A    
C84   O8    A    
Cr8   O8    S    
C9    H17   S    
Cr2   O22   S    
C14   H22   S    
C22   H26   S    
Cr11  O35   S    
C33   C38   A    
C44   H40   S    
C13   C17   A    
C89   C98   S    
C60   C64   A    
C85   O13   A    
C46   O30   A    
C18   C22   A    
C35   C40   A    
C50   C70   A    
C87   O43   A    
Cr8   O52   S    
Cr9   O9    S    
C86   O42   A    
Cr10  O14   S    
C85   O41   A    
C8    C100  S    
Cr12  O20   S    
C65   C69   A    
C96   C100  S    
Cr10  O38   S    
C56   C60   A    
C93   H1    S    
C95   C99   S    
C61   C65   A    
C89   C93   S    
C42   H38   S    
C62   H42   S    
C2    O22   A    
C91   C95   S    
Cr4   O4    S    
C38   C42   A    
C75   O3    A    
C40   C44   A    
C29   C73   S    
C66   C70   A    
Cr10  O18   S    
C22   C26   A    
C39   C43   A    
C73   O1    A    
C34   H34   S    
C56   H12   S    
C63   H43   S    
C78   O46   A    
Cr5   O29   S    
C89   C90   S    
C26   H30   S    
C77   O45   A    
C20   C24   A    
C7    H51   S    
C52   C56   A    
C92   C99   S    
C61   H41   S    
Cr11  O19   S    
C80   O48   A    
