data_mof_unit_31241.cif
_audit_creation_date              2012-12-11T15:33:45-0500
_audit_creation_method            fapswitch 2.2
_symmetry_space_group_name_H-M    P1
_symmetry_Int_Tables_number       1
_space_group_crystal_system       triclinic
_cell_length_a                    26.794893
_cell_length_b                    7.201077
_cell_length_c                    22.843698
_cell_angle_alpha                 89.996921
_cell_angle_beta                  101.829976
_cell_angle_gamma                 89.997612
_cell_volume                      4314.12000137

loop_
_atom_site_label
_atom_site_type_symbol
_atom_type_description
_atom_site_fract_x
_atom_site_fract_y
_atom_site_fract_z
_atom_type_partial_charge
O1    O     O_R   0.207310 0.594030 0.676830 -0.527378
O2    O     O_R   0.792690 0.405970 0.323170 -0.530490
O3    O     O_R   0.292690 0.094030 0.823170 -0.527293
O4    O     O_R   0.707310 0.905970 0.176830 -0.530463
O5    O     O_R   0.197320 0.262370 0.795700 -0.541474
O6    O     O_R   0.802680 0.737630 0.204300 -0.540516
O7    O     O_R   0.302680 0.762370 0.704300 -0.541503
O8    O     O_R   0.697320 0.237630 0.295700 -0.540520
C1    C     C_R   0.184710 0.432449 0.812019 0.702255
C2    C     C_R   0.815257 0.567579 0.187942 0.698386
C3    C     C_R   0.315290 0.932449 0.687981 0.702061
C4    C     C_R   0.684742 0.067579 0.312058 0.698369
O9    O     O_R   0.201410 0.264250 0.675590 -0.535427
O10   O     O_R   0.798590 0.735750 0.324410 -0.533545
O11   O     O_R   0.298590 0.764250 0.824410 -0.535450
O12   O     O_R   0.701410 0.235750 0.175590 -0.533547
O13   O     O_R   0.296810 0.094940 0.702210 -0.539763
O14   O     O_R   0.703190 0.905060 0.297790 -0.539242
O15   O     O_R   0.203190 0.594940 0.797790 -0.539790
O16   O     O_R   0.796810 0.405060 0.202210 -0.539250
C5    C     C_R   0.189913 0.432306 0.652896 0.675060
C6    C     C_R   0.810236 0.567045 0.346941 0.677918
C7    C     C_R   0.310078 0.932287 0.847111 0.675133
C8    C     C_R   0.689765 0.067060 0.153059 0.677984
O17   O     O_3   0.281300 0.427390 0.758870 -0.373477
O18   O     O_3   0.718700 0.572610 0.241130 -0.373329
O19   O     O_3   0.218700 0.927390 0.741130 -0.373513
O20   O     O_3   0.781300 0.072610 0.258870 -0.373349
V1    V     V_3+5 0.244190 0.152150 0.748350 1.444557
V2    V     V_3+5 0.755810 0.847850 0.251650 1.438232
V3    V     V_3+5 0.255810 0.652150 0.751650 1.444447
V4    V     V_3+5 0.744190 0.347850 0.248350 1.438215
C9    C     C_R   0.657452 0.054186 0.092050 -0.138376
C10   C     C_R   0.342938 0.933511 0.908058 -0.135228
C11   C     C_R   0.842546 0.554113 0.407952 -0.138353
C12   C     C_R   0.157054 0.433621 0.591951 -0.135204
C13   C     C_R   0.647598 0.976913 0.986099 -0.047458
C14   C     C_R   0.358852 0.835483 0.012739 -0.049258
C15   C     C_R   0.852394 0.476517 0.513882 -0.047604
C16   C     C_R   0.141223 0.336491 0.487191 -0.049343
C17   C     C_R   0.679524 0.008610 0.043130 -0.055556
C18   C     C_R   0.325130 0.854351 0.956246 -0.056139
C19   C     C_R   0.820470 0.508436 0.456861 -0.055525
C20   C     C_R   0.174923 0.355120 0.543710 -0.056133
C21   C     C_R   0.604365 0.051846 0.085150 -0.210458
C22   C     C_R   0.394566 0.979715 0.915207 -0.207223
C23   C     C_R   0.895633 0.551772 0.414856 -0.210499
C24   C     C_R   0.105398 0.479371 0.584824 -0.207264
C25   C     C_R   0.571914 0.991610 0.031326 0.071781
C26   C     C_R   0.430634 0.934935 0.968123 0.071069
C27   C     C_R   0.928084 0.491342 0.468659 0.071850
C28   C     C_R   0.069367 0.434813 0.531858 0.071128
C29   C     C_R   0.592981 0.980932 0.979269 -0.001740
C30   C     C_R   0.411578 0.888023 0.019811 0.000513
C31   C     C_R   0.907014 0.480373 0.520714 -0.001832
C32   C     C_R   0.088459 0.388538 0.480143 0.000383
C33   C     C_R   0.518840 0.948926 0.027996 -0.013342
C34   C     C_R   0.484895 0.942456 0.971076 -0.015925
C35   C     C_R   0.981167 0.448783 0.471974 -0.013403
C36   C     C_R   0.015102 0.442015 0.528891 -0.015979
C37   C     C_R   0.506411 0.932509 0.918923 -0.046566
C38   C     C_R   0.499291 0.901706 0.079667 -0.045553
C39   C     C_R   0.993581 0.431474 0.581024 -0.046683
C40   C     C_R   0.000736 0.401987 0.420286 -0.045563
C41   C     C_R   0.558909 0.968626 0.922594 -0.097930
C42   C     C_R   0.446079 0.889356 0.076335 -0.105197
C43   C     C_R   0.941087 0.467606 0.577381 -0.097860
C44   C     C_R   0.053956 0.389995 0.423617 -0.105013
H1    H     H_    0.406276 0.047147 0.877983 0.147168
H2    H     H_    0.588880 0.094194 0.123169 0.146069
H3    H     H_    0.093636 0.546300 0.622099 0.146989
H4    H     H_    0.911117 0.594265 0.376850 0.145972
C45   C     C_R   0.629533 0.882035 0.367665 -0.122185
C46   C     C_R   0.369808 0.118067 0.631497 -0.102175
C47   C     C_R   0.870465 0.382033 0.132334 -0.122197
C48   C     C_R   0.130194 0.618067 0.868505 -0.102556
H5    H     H_    0.644417 0.754386 0.352919 0.122186
H6    H     H_    0.354187 0.245615 0.645304 0.115148
H7    H     H_    0.855580 0.254384 0.147078 0.122167
H8    H     H_    0.145816 0.745614 0.854699 0.115152
C49   C     C_R   0.593722 0.869111 0.404302 -0.102797
C50   C     C_R   0.405742 0.131078 0.595022 -0.100057
C51   C     C_R   0.906277 0.369109 0.095697 -0.102782
C52   C     C_R   0.094259 0.631078 0.904979 -0.100183
H9    H     H_    0.582324 0.732428 0.416375 0.139055
H10   H     H_    0.416490 0.267720 0.582130 0.135677
H11   H     H_    0.917674 0.232426 0.083622 0.139049
H12   H     H_    0.083512 0.767719 0.917873 0.135699
C53   C     C_R   0.573045 0.029684 0.425086 0.012551
C54   C     C_R   0.427325 0.970625 0.575383 0.016989
C55   C     C_R   0.926955 0.529682 0.074915 0.012567
C56   C     C_R   0.072675 0.470626 0.924617 0.017025
C57   C     C_R   0.589236 0.204000 0.407985 -0.093291
C58   C     C_R   0.411933 0.796360 0.593490 -0.100333
C59   C     C_R   0.910765 0.703997 0.092017 -0.093285
C60   C     C_R   0.088065 0.296362 0.906508 -0.100298
H13   H     H_    0.574256 0.330897 0.423111 0.142933
H14   H     H_    0.427658 0.669550 0.579303 0.143081
H15   H     H_    0.925747 0.830894 0.076892 0.142927
H16   H     H_    0.072338 0.169553 0.920692 0.143061
C61   C     C_R   0.625166 0.217076 0.371221 -0.098539
C62   C     C_R   0.375893 0.783204 0.630112 -0.126250
C63   C     C_R   0.874836 0.717074 0.128781 -0.098509
C64   C     C_R   0.124105 0.283206 0.869886 -0.125987
H17   H     H_    0.636822 0.353603 0.359328 0.120350
H18   H     H_    0.364936 0.646698 0.642879 0.117561
H19   H     H_    0.863181 0.853601 0.140675 0.120328
H20   H     H_    0.135060 0.146701 0.857116 0.117537
C65   C     C_R   0.645894 0.056113 0.350512 -0.039435
C66   C     C_R   0.354230 0.944032 0.649642 -0.027632
C67   C     C_R   0.854106 0.556111 0.149489 -0.039390
C68   C     C_R   0.145770 0.444032 0.850357 -0.027531
N1    N     N_R   0.514424 0.168744 0.484299 -0.261490
N2    N     N_R   0.486037 0.831603 0.516287 -0.262494
N3    N     N_R   0.985577 0.668742 0.015703 -0.261488
N4    N     N_R   0.013961 0.331603 0.983711 -0.262491
N5    N     N_R   0.480449 0.154671 0.519380 -0.267062
N6    N     N_R   0.520002 0.845675 0.481193 -0.267305
N7    N     N_R   0.019553 0.654670 0.980621 -0.267067
N8    N     N_R   0.979996 0.345675 0.018805 -0.267304
C69   C     C_R   0.465448 0.985823 0.536213 0.533848
C70   C     C_R   0.535000 0.014520 0.464356 0.535073
C71   C     C_R   0.034552 0.485823 0.963787 0.533859
C72   C     C_R   0.965000 0.514518 0.035644 0.535078
C73   C     C_2   0.576173 0.011910 0.866369 0.460198
H21   H     H_    0.570548 0.912916 0.829818 0.097564
O21   O     O_2   0.596367 0.160871 0.860501 -0.492365
C74   C     C_2   0.427299 0.897305 0.133082 0.468894
H22   H     H_    0.439433 0.794794 0.167881 0.092906
O22   O     O_2   0.398377 0.021099 0.141363 -0.484676
C75   C     C_2   0.923836 0.510416 0.633644 0.460476
H23   H     H_    0.929358 0.410950 0.670063 0.097552
O23   O     O_2   0.903764 0.659492 0.639687 -0.492270
C76   C     C_2   0.072729 0.398465 0.366874 0.468964
H24   H     H_    0.060712 0.295894 0.332069 0.092882
O24   O     O_2   0.101510 0.522747 0.358608 -0.484741
C77   C     C_2   0.271119 0.789158 0.945746 0.483016
H25   H     H_    0.241444 0.868270 0.916788 0.003864
O25   O     O_2   0.259696 0.642521 0.966414 -0.509945
C78   C     C_2   0.736168 0.990031 0.053526 0.466996
H26   H     H_    0.760300 0.083436 0.084312 0.007947
O26   O     O_2   0.756259 0.864980 0.030593 -0.510297
C79   C     C_2   0.228975 0.290359 0.554182 0.482645
H27   H     H_    0.258587 0.369324 0.583284 0.003881
O27   O     O_2   0.240509 0.144202 0.533318 -0.509830
C80   C     C_2   0.763820 0.490003 0.446462 0.466768
H28   H     H_    0.739704 0.583379 0.415641 0.007994
O28   O     O_2   0.743702 0.365109 0.469432 -0.510334
C81   C     C_2   0.671672 0.919975 0.935801 0.568630
H29   H     H_    0.657478 0.799204 0.909102 0.013296
O29   O     O_2   0.706343 0.010661 0.922765 -0.467107
C82   C     C_2   0.339881 0.741900 0.061919 0.572047
H30   H     H_    0.361638 0.629146 0.086396 0.010415
O30   O     O_2   0.300819 0.793899 0.076583 -0.462307
C83   C     C_2   0.828301 0.419573 0.564163 0.568611
H31   H     H_    0.842411 0.298547 0.590783 0.013251
O31   O     O_2   0.793704 0.510518 0.577267 -0.467086
C84   C     C_2   0.160282 0.243726 0.437937 0.572115
H32   H     H_    0.138644 0.130860 0.413385 0.010535
O32   O     O_2   0.199283 0.296522 0.423303 -0.462301
C85   C     C_2   0.476590 0.848120 0.862878 0.306620
H33   H     H_    0.452999 0.727285 0.865813 0.077084
O33   O     O_2   0.475866 0.916944 0.813856 -0.526688
C86   C     C_2   0.534313 0.828661 0.134175 0.299110
H34   H     H_    0.564892 0.734943 0.129129 0.075986
O34   O     O_2   0.531229 0.878943 0.184360 -0.526888
C87   C     C_2   0.023395 0.346432 0.636970 0.306971
H35   H     H_    0.047051 0.225880 0.633880 0.077063
O35   O     O_2   0.024041 0.414396 0.686091 -0.526641
C88   C     C_2   0.965740 0.328996 0.365751 0.299317
H36   H     H_    0.935155 0.235280 0.370769 0.075944
O36   O     O_2   0.968851 0.379294 0.315576 -0.526872

loop_
_geom_bond_atom_site_label_1
_geom_bond_atom_site_label_2
_ccdc_geom_bond_type
O17   V3    S    
C51   H11   S    
O1    C5    A    
N4    C71   A    
O19   V1    S    
C9    C21   A    
O3    C7    A    
C10   C18   A    
C56   C60   A    
O15   V3    S    
C74   H22   S    
C48   C52   A    
C85   H33   S    
C25   C33   A    
C33   C38   A    
C87   O35   D    
C5    C12   S    
O7    C3    A    
C6    C11   S    
C77   O25   D    
C35   C40   A    
C26   C30   A    
C36   C39   A    
C37   C85   S    
C40   C44   A    
C16   C84   S    
C86   H34   S    
O10   V2    S    
C14   C18   A    
C81   O29   D    
O4    C8    A    
C59   H15   S    
C83   O31   D    
C53   C70   S    
C58   H14   S    
C61   C65   A    
C79   H27   S    
O1    V3    S    
O13   V1    S    
O2    V4    S    
N6    C70   A    
C14   C82   S    
O3    V1    S    
N5    C69   A    
C17   C78   S    
C28   C36   A    
N2    C69   A    
C13   C17   A    
C1    O15   A    
C15   C31   A    
N1    C70   A    
C2    O16   A    
C16   C32   A    
O2    C6    A    
C12   C24   A    
C10   C22   A    
C11   C19   A    
C16   C20   A    
C80   O28   D    
C48   C68   A    
C13   C29   A    
C34   C37   A    
O11   C7    A    
C11   C23   A    
C35   C36   A    
O12   C8    A    
C3    C66   S    
C84   O32   D    
C86   O34   D    
C46   C50   A    
C45   C49   A    
C4    C65   S    
C85   O33   D    
C59   C63   A    
C54   C58   A    
O5    V1    S    
C61   H17   S    
C39   C43   A    
O7    V3    S    
C38   C42   A    
C28   C32   A    
O8    V4    S    
C52   H12   S    
C78   H26   S    
C56   C71   S    
C57   C61   A    
C87   H35   S    
C64   C68   A    
O18   V4    S    
C76   O24   D    
C50   H10   S    
C53   C57   A    
N4    N8    A    
C15   C83   S    
C26   C34   A    
O5    C1    A    
C31   C43   A    
C14   C30   A    
C21   C25   A    
O8    C4    A    
C7    C10   S    
O9    C5    A    
C2    C67   S    
O11   V3    S    
N2    N6    A    
N1    N5    A    
C22   H1    S    
O6    V2    S    
C82   O30   D    
N3    N7    A    
C55   C72   S    
C60   C64   A    
C84   H32   S    
C54   C69   S    
C12   C20   A    
C27   C35   A    
C88   H36   S    
C24   H3    S    
C75   H23   S    
C57   H13   S    
C64   H20   S    
C29   C41   A    
C80   H28   S    
O16   V4    S    
O9    V1    S    
C79   O27   D    
C3    O13   A    
N3    C72   A    
C21   H2    S    
C43   C75   S    
C48   H8    S    
C13   C81   S    
C75   O23   D    
C74   O22   D    
O6    C2    A    
C23   C27   A    
C45   C65   A    
C76   H24   S    
C30   C42   A    
C63   C67   A    
N7    C71   A    
O12   V4    S    
C51   C55   A    
C77   H25   S    
C22   C26   A    
C47   C67   A    
C8    C9    S    
C50   C54   A    
C9    C17   A    
O10   C6    A    
C44   C76   S    
C49   C53   A    
O20   V2    S    
C19   C80   S    
C32   C44   A    
C81   H29   S    
C47   C51   A    
C33   C34   A    
C73   H21   S    
C88   O36   D    
C1    C68   S    
C20   C79   S    
C25   C29   A    
C60   H16   S    
C39   C87   S    
C42   C74   S    
C62   H18   S    
C27   C31   A    
C40   C88   S    
O4    V2    S    
C23   H4    S    
C62   C66   A    
O14   V2    S    
C55   C59   A    
C37   C41   A    
C24   C28   A    
C38   C86   S    
C82   H30   S    
C58   C62   A    
C46   H6    S    
C15   C19   A    
C4    O14   A    
C83   H31   S    
C73   O21   D    
C45   H5    S    
C63   H19   S    
C52   C56   A    
C78   O26   D    
C46   C66   A    
C47   H7    S    
C49   H9    S    
N8    C72   A    
C41   C73   S    
C18   C77   S    
