data_mof_unit_47597.cif
_audit_creation_date              2012-12-11T15:09:48-0500
_audit_creation_method            fapswitch 2.2
_symmetry_space_group_name_H-M    P1
_symmetry_Int_Tables_number       1
_space_group_crystal_system       monoclinic
_cell_length_a                    20.930394
_cell_length_b                    7.128984
_cell_length_c                    14.007793
_cell_angle_alpha                 90.0
_cell_angle_beta                  98.222351
_cell_angle_gamma                 90.0
_cell_volume                      2068.65149814

loop_
_atom_site_label
_atom_site_type_symbol
_atom_type_description
_atom_site_fract_x
_atom_site_fract_y
_atom_site_fract_z
_atom_type_partial_charge
O1    O     O_R   0.447130 0.507140 0.597350 -0.531714
O2    O     O_R   0.552870 0.007140 0.402650 -0.531714
O3    O     O_R   0.578910 0.181280 0.586990 -0.538192
O4    O     O_R   0.421090 0.681280 0.413010 -0.538191
C1    C     C_R   0.604450 0.344474 0.607441 0.725292
C2    C     C_R   0.395550 0.844474 0.392559 0.725291
O5    O     O_R   0.449230 0.177860 0.608640 -0.549525
O6    O     O_R   0.550770 0.677860 0.391360 -0.549526
O7    O     O_R   0.422260 0.000770 0.424450 -0.533900
O8    O     O_R   0.577740 0.500770 0.575550 -0.533901
C3    C     C_R   0.433223 0.346478 0.634983 0.709131
C4    C     C_R   0.566777 0.846478 0.365017 0.709131
O9    O     O_3   0.491310 0.336980 0.439550 -0.375063
O10   O     O_3   0.508690 0.836980 0.560450 -0.375063
V1    V     V_3+5 0.501610 0.064760 0.511210 1.405041
V2    V     V_3+5 0.498390 0.564760 0.488790 1.405042
C5    C     C_R   0.620382 0.871783 0.120589 -0.170212
C6    C     C_R   0.379618 0.371782 0.879411 -0.170213
H1    H     H_    0.598129 0.871819 0.045847 0.178914
H2    H     H_    0.401870 0.371818 0.954153 0.178914
C7    C     C_R   0.608129 0.855514 0.289356 -0.156774
C8    C     C_R   0.391871 0.355514 0.710644 -0.156774
C9    C     C_R   0.920146 0.797459 0.301125 -0.203406
C10   C     C_R   0.079854 0.297459 0.698874 -0.203407
C11   C     C_R   0.882538 0.757183 0.373539 0.334341
C12   C     C_R   0.117461 0.257183 0.626461 0.334341
C13   C     C_R   0.815635 0.781369 0.354004 -0.178571
C14   C     C_R   0.184365 0.281369 0.645996 -0.178571
C15   C     C_R   0.784946 0.849267 0.263855 0.050523
C16   C     C_R   0.215054 0.349267 0.736145 0.050523
C17   C     C_R   0.823516 0.877472 0.189597 0.011987
C18   C     C_R   0.176484 0.377472 0.810403 0.011987
C19   C     C_R   0.716470 0.872155 0.242682 0.000636
C20   C     C_R   0.283530 0.372155 0.757318 0.000636
C21   C     C_R   0.687687 0.887967 0.144640 -0.005529
C22   C     C_R   0.312313 0.387966 0.855360 -0.005529
C23   C     C_R   0.726620 0.917644 0.071839 0.293327
C24   C     C_R   0.273380 0.417644 0.928161 0.293326
C25   C     C_R   0.793647 0.917016 0.095359 -0.245112
C26   C     C_R   0.206353 0.417015 0.904641 -0.245113
C27   C     C_R   0.675360 0.879512 0.315235 0.194800
C28   C     C_R   0.324640 0.379512 0.684765 0.194800
C29   C     C_R   0.580654 0.849204 0.191625 0.229959
C30   C     C_R   0.419346 0.349204 0.808375 0.229960
C31   C     C_R   0.891254 0.855544 0.209932 -0.110326
C32   C     C_R   0.108746 0.355544 0.790068 -0.110326
H3    H     H_    0.971976 0.778460 0.313673 0.110194
H4    H     H_    0.028024 0.278460 0.686327 0.110194
H5    H     H_    0.788297 0.731558 0.408512 0.160327
H6    H     H_    0.211703 0.231559 0.591488 0.160327
H7    H     H_    0.822147 0.941189 0.037818 0.122886
H8    H     H_    0.177853 0.441188 0.962182 0.122886
C33   C     C_1   0.166590 0.857106 0.168338 -0.197303
C34   C     C_1   0.833410 0.357106 0.831662 -0.197303
C35   C     C_1   0.218995 0.854822 0.219495 -0.000654
C36   C     C_1   0.781005 0.354822 0.780505 -0.000654
C37   C     C_1   0.280749 0.853376 0.279492 -0.005354
C38   C     C_1   0.719251 0.353376 0.720508 -0.005355
C39   C     C_1   0.333147 0.851048 0.330649 -0.203985
C40   C     C_1   0.666852 0.351048 0.669351 -0.203985
O11   O     O_R   0.922300 0.202240 0.924350 -0.534192
O12   O     O_R   0.077700 0.702240 0.075650 -0.534192
O13   O     O_R   0.050780 0.535130 0.891350 -0.541599
O14   O     O_R   0.949220 0.035130 0.108650 -0.541599
C41   C     C_R   0.067780 0.367823 0.865983 0.705164
C42   C     C_R   0.932220 0.867823 0.134016 0.705164
O15   O     O_R   0.921100 0.531560 0.912990 -0.537689
O16   O     O_R   0.078900 0.031560 0.087010 -0.537689
O17   O     O_R   0.947120 0.708470 0.097370 -0.536842
O18   O     O_R   0.052880 0.208470 0.902630 -0.536842
C43   C     C_R   0.895876 0.363563 0.893461 0.714967
C44   C     C_R   0.104124 0.863563 0.106539 0.714966
O19   O     O_3   0.008710 0.375800 0.060400 -0.374332
O20   O     O_3   0.991290 0.875800 0.939600 -0.374332
V3    V     V_3+5 0.998380 0.648080 0.988790 1.421061
V4    V     V_3+5 0.001620 0.148080 0.011210 1.421061
N1    N     N_2   0.512889 0.826044 0.163320 -0.526881
H9    H     H_    0.489232 0.752483 0.211080 0.249088
C45   C     C_3   0.479012 0.994860 0.128177 -0.542618
H10   H     H_    0.427324 0.961902 0.104493 0.195343
H11   H     H_    0.499457 0.052877 0.065429 0.215805
H12   H     H_    0.482347 0.101748 0.186457 0.199349
N2    N     N_2   0.487111 0.326043 0.836680 -0.526881
H13   H     H_    0.510768 0.252482 0.788920 0.249088
C46   C     C_3   0.520988 0.494859 0.871823 -0.542618
H14   H     H_    0.572676 0.461901 0.895508 0.195343
H15   H     H_    0.500543 0.552875 0.934572 0.215805
H16   H     H_    0.517653 0.601748 0.813544 0.199349
N3    N     N_2   0.698704 0.948943 0.974230 -0.531059
H17   H     H_    0.726212 0.898899 0.924214 0.259730
C47   C     C_3   0.677642 0.139924 0.953679 -0.546017
H18   H     H_    0.653191 0.149544 0.878082 0.204454
H19   H     H_    0.719782 0.236454 0.962955 0.198272
H20   H     H_    0.642825 0.184473 0.002127 0.208258
N4    N     N_2   0.301296 0.448942 0.025770 -0.531059
H21   H     H_    0.273788 0.398897 0.075786 0.259730
C48   C     C_3   0.322358 0.639922 0.046321 -0.546017
H22   H     H_    0.346809 0.649543 0.121918 0.204455
H23   H     H_    0.280218 0.736453 0.037046 0.198272
H24   H     H_    0.357175 0.684472 0.997874 0.208258
N5    N     N_2   0.700471 0.930176 0.412042 -0.539400
H25   H     H_    0.677493 0.872551 0.465446 0.249897
C49   C     C_3   0.714479 0.127777 0.426261 -0.505387
H26   H     H_    0.737054 0.152176 0.501900 0.190371
H27   H     H_    0.669271 0.211224 0.412087 0.195446
H28   H     H_    0.748730 0.175751 0.377641 0.206256
N6    N     N_2   0.299529 0.430177 0.587958 -0.539399
H29   H     H_    0.322507 0.372552 0.534553 0.249897
C50   C     C_3   0.285521 0.627778 0.573740 -0.505387
H30   H     H_    0.262946 0.652177 0.498100 0.190371
H31   H     H_    0.330729 0.711225 0.587914 0.195446
H32   H     H_    0.251270 0.675752 0.622360 0.206256
N7    N     N_2   0.909706 0.685676 0.465741 -0.529767
H33   H     H_    0.892276 0.742852 0.524555 0.254872
C51   C     C_3   0.975474 0.617260 0.481664 -0.553354
H34   H     H_    0.985887 0.555735 0.555009 0.198936
H35   H     H_    0.010141 0.732595 0.476735 0.197170
H36   H     H_    0.982236 0.507984 0.427517 0.212962
N8    N     N_2   0.090294 0.185677 0.534259 -0.529768
H37   H     H_    0.107724 0.242852 0.475445 0.254873
C52   C     C_3   0.024526 0.117260 0.518336 -0.553355
H38   H     H_    0.014114 0.055735 0.444991 0.198936
H39   H     H_    0.989859 0.232595 0.523265 0.197170
H40   H     H_    0.017764 0.007984 0.572483 0.212962

loop_
_geom_bond_atom_site_label_1
_geom_bond_atom_site_label_2
_ccdc_geom_bond_type
C25   H7    S    
O13   C41   A    
N5    H25   S    
C9    C31   A    
C13   C15   A    
O19   V3    S    
C33   C35   T    
N4    H21   S    
O1    C3    A    
C30   N2    S    
O2    C4    A    
C2    O7    A    
C48   H22   S    
N1    H9    S    
O5    C3    A    
O20   V4    S    
C21   C23   A    
C10   C12   A    
C11   N7    S    
C50   H31   S    
C29   N1    S    
C37   C39   T    
C42   O17   A    
C38   C40   T    
C51   H34   S    
C15   C19   A    
O6    V2    S    
C52   H40   S    
C5    H1    S    
C7    C29   A    
C14   H6    S    
C8    C30   A    
C34   C43   S    
C27   N5    S    
C14   C16   A    
C51   H35   S    
C20   C28   A    
C24   N4    S    
O15   C43   A    
N6    H29   S    
N3    C47   S    
C28   N6    S    
C6    H2    S    
O6    C4    A    
O11   C43   A    
N8    C52   S    
C41   O18   A    
N5    C49   S    
N6    C50   S    
C48   H23   S    
N1    C45   S    
O11   V4    S    
C34   C36   T    
C9    H3    S    
O20   V3    S    
C16   C20   A    
C46   H15   S    
C10   H4    S    
C12   N8    S    
C32   C41   S    
O4    C2    A    
C50   H32   S    
C47   H18   S    
C45   H11   S    
C46   H14   S    
C4    C7    S    
O14   C42   A    
O4    V2    S    
C5    C29   A    
C16   C18   A    
C6    C30   A    
C47   H19   S    
N2    H13   S    
O16   C44   A    
C51   H36   S    
O14   V4    S    
O12   C44   A    
C49   H27   S    
O1    V2    S    
O2    V1    S    
C52   H38   S    
C7    C27   A    
N2    C46   S    
C35   C37   S    
O18   V4    S    
O19   V4    S    
O12   V3    S    
C11   C13   A    
C49   H26   S    
C48   H24   S    
O3    V1    S    
N7    H33   S    
C46   H16   S    
C1    C40   S    
C18   C32   A    
C2    C39   S    
O3    C1    A    
C45   H12   S    
N8    H37   S    
N4    C48   S    
O16   V4    S    
C3    C8    S    
C12   C14   A    
C23   N3    S    
C19   C27   A    
C22   C24   A    
O7    V1    S    
C10   C32   A    
C1    O8    A    
C15   C17   A    
C26   H8    S    
C50   H30   S    
C47   H20   S    
C24   C26   A    
C8    C28   A    
O13   V3    S    
O5    V1    S    
C19   C21   A    
C36   C38   S    
O17   V3    S    
C49   H28   S    
C20   C22   A    
C18   C26   A    
C52   H39   S    
C45   H10   S    
C9    C11   A    
O15   V3    S    
C23   C25   A    
C17   C31   A    
O9    V2    S    
C31   C42   S    
C17   C25   A    
O10   V1    S    
O8    V2    S    
C5    C21   A    
N3    H17   S    
C33   C44   S    
C6    C22   A    
C13   H5    S    
N7    C51   S    
