data_mof_unit_48954.cif
_audit_creation_date              2013-03-05T15:40:53-0500
_audit_creation_method            fapswitch 2.2
_symmetry_space_group_name_H-M    P1
_symmetry_Int_Tables_number       1
_space_group_crystal_system       triclinic
_cell_length_a                    27.902416
_cell_length_b                    18.853334
_cell_length_c                    16.855226
_cell_angle_alpha                 90.538412
_cell_angle_beta                  62.84063
_cell_angle_gamma                 90.351135
_cell_volume                      7888.74113008

loop_
_atom_site_label
_atom_site_type_symbol
_atom_site_description
_atom_site_fract_x
_atom_site_fract_y
_atom_site_fract_z
_atom_type_partial_charge
O1    O     O_R   0.255040 0.869590 0.478480 -0.502001
O2    O     O_R   0.744960 0.130410 0.521520 -0.513538
O3    O     O_R   0.744960 0.869590 0.521520 -0.514301
O4    O     O_R   0.255040 0.130410 0.478480 -0.504599
O5    O     O_R   0.755040 0.369590 0.478480 -0.497092
O6    O     O_R   0.244960 0.630410 0.521520 -0.514019
O7    O     O_R   0.244960 0.369590 0.521520 -0.510164
O8    O     O_R   0.755040 0.630410 0.478480 -0.515807
O9    O     O_R   0.182050 0.796550 0.624440 -0.553487
O10   O     O_R   0.817950 0.203450 0.375560 -0.580655
O11   O     O_R   0.817950 0.796550 0.375560 -0.562629
O12   O     O_R   0.182050 0.203450 0.624440 -0.555232
O13   O     O_R   0.682050 0.296550 0.624440 -0.568601
O14   O     O_R   0.317950 0.703450 0.375560 -0.565268
O15   O     O_R   0.317950 0.296550 0.375560 -0.576647
O16   O     O_R   0.682050 0.703450 0.624440 -0.568252
Cu1   Cu    Cu3+1 0.209920 0.785290 0.495070 1.066162
Cu2   Cu    Cu3+1 0.790080 0.214710 0.504930 1.051098
Cu3   Cu    Cu3+1 0.790080 0.785290 0.504930 1.056487
Cu4   Cu    Cu3+1 0.209920 0.214710 0.495070 1.074768
Cu5   Cu    Cu3+1 0.709920 0.285290 0.495070 1.074143
Cu6   Cu    Cu3+1 0.290080 0.714710 0.504930 1.052451
Cu7   Cu    Cu3+1 0.290080 0.285290 0.504930 1.055931
Cu8   Cu    Cu3+1 0.709920 0.714710 0.495070 1.054058
C1    C     C_R   0.297380 0.733783 0.328370 0.785460
C2    C     C_R   0.704118 0.268750 0.671628 0.781802
C3    C     C_R   0.703012 0.733112 0.672108 0.766449
C4    C     C_R   0.291217 0.277985 0.331737 0.790293
C5    C     C_R   0.790155 0.219429 0.333647 0.807112
C6    C     C_R   0.202796 0.766115 0.672353 0.780682
C7    C     C_R   0.204692 0.230579 0.671708 0.798057
C8    C     C_R   0.797153 0.766704 0.327893 0.792378
O17   O     O_R   0.250530 0.763330 0.367210 -0.580965
O18   O     O_R   0.749470 0.236670 0.632790 -0.591156
O19   O     O_R   0.749470 0.763330 0.632790 -0.594365
O20   O     O_R   0.250530 0.236670 0.367210 -0.583816
O21   O     O_R   0.750530 0.263330 0.367210 -0.568250
O22   O     O_R   0.249470 0.736670 0.632790 -0.590985
O23   O     O_R   0.249470 0.263330 0.632790 -0.590340
O24   O     O_R   0.750530 0.736670 0.367210 -0.584313
O25   O     O_R   0.177260 0.690030 0.513710 -0.604206
O26   O     O_R   0.822740 0.309970 0.486290 -0.610730
O27   O     O_R   0.822740 0.690030 0.486290 -0.602684
O28   O     O_R   0.177260 0.309970 0.513710 -0.605653
O29   O     O_R   0.677260 0.190030 0.513710 -0.605964
O30   O     O_R   0.322740 0.809970 0.486290 -0.608934
O31   O     O_R   0.322740 0.190030 0.486290 -0.610054
O32   O     O_R   0.677260 0.809970 0.513710 -0.607613
C9    C     C_R   0.196068 0.631919 0.528951 0.798998
C10   C     C_R   0.803477 0.367977 0.472613 0.843139
C11   C     C_R   0.800172 0.630838 0.483189 0.817893
C12   C     C_R   0.196412 0.368365 0.527675 0.811096
C13   C     C_R   0.695959 0.131906 0.528863 0.811535
C14   C     C_R   0.303044 0.868248 0.473927 0.824095
C15   C     C_R   0.302896 0.131692 0.474436 0.834716
C16   C     C_R   0.696465 0.868453 0.527318 0.813445
C17   C     C_R   0.028518 0.626677 0.567009 0.030573
C18   C     C_R   0.957149 0.372258 0.478010 0.031336
C19   C     C_R   0.929301 0.622897 0.559258 0.032443
C20   C     C_R   0.040781 0.370386 0.527120 0.036210
C21   C     C_R   0.540747 0.128779 0.526025 0.043296
C22   C     C_R   0.462937 0.871669 0.455397 0.035610
C23   C     C_R   0.459520 0.129639 0.470158 0.031352
C24   C     C_R   0.546108 0.870789 0.506517 0.026446
C25   C     C_R   0.997444 0.689243 0.582808 -0.076382
C26   C     C_R   0.981577 0.307119 0.479632 -0.073574
C27   C     C_R   0.946855 0.686621 0.582867 -0.065562
C28   C     C_R   0.021519 0.305792 0.508730 -0.064643
C29   C     C_R   0.518981 0.193999 0.516713 -0.074423
C30   C     C_R   0.485955 0.806517 0.461411 -0.073017
C31   C     C_R   0.479715 0.194521 0.485876 -0.072713
C32   C     C_R   0.526502 0.805974 0.489294 -0.072459
C33   C     C_R   0.961510 0.561789 0.539113 0.014502
C34   C     C_R   0.017656 0.435044 0.522345 0.011741
C35   C     C_R   0.009721 0.562867 0.547042 0.017122
C36   C     C_R   0.973160 0.435337 0.504562 0.014613
C37   C     C_R   0.480210 0.064989 0.481904 0.013978
C38   C     C_R   0.525304 0.935528 0.495666 0.016369
C39   C     C_R   0.522654 0.064670 0.505405 0.016261
C40   C     C_R   0.482304 0.935840 0.473538 0.015049
C41   C     C_R   0.458836 0.000525 0.468744 -0.004524
C42   C     C_R   0.545895 0.999934 0.511077 -0.002528
C43   C     C_R   0.944777 0.498790 0.513166 -0.003163
C44   C     C_R   0.038144 0.499357 0.537948 -0.004600
C45   C     C_R   0.388410 0.935900 0.449480 -0.006971
C46   C     C_R   0.612142 0.064476 0.542004 0.017405
C47   C     C_R   0.614494 0.934797 0.533724 0.000888
C48   C     C_R   0.387780 0.065346 0.453381 -0.002012
C49   C     C_R   0.883262 0.435901 0.470105 -0.009583
C50   C     C_R   0.110246 0.564826 0.551399 0.005117
C51   C     C_R   0.112101 0.434746 0.544224 -0.000913
C52   C     C_R   0.868123 0.561058 0.512870 -0.003561
C53   C     C_R   0.334434 0.935196 0.460684 -0.213733
C54   C     C_R   0.662679 0.065300 0.544347 -0.189320
C55   C     C_R   0.663864 0.934871 0.540746 -0.226698
C56   C     C_R   0.334243 0.065257 0.462021 -0.221992
C57   C     C_R   0.834542 0.434752 0.462874 -0.202867
C58   C     C_R   0.162967 0.565292 0.545690 -0.222734
C59   C     C_R   0.163579 0.434800 0.543039 -0.201179
C60   C     C_R   0.826514 0.563096 0.485579 -0.227783
C61   C     C_R   0.307135 0.000104 0.471695 0.260647
C62   C     C_R   0.684790 0.000421 0.552173 0.261375
C63   C     C_R   0.810901 0.499140 0.459066 0.258616
C64   C     C_R   0.186031 0.500081 0.550343 0.266360
C65   C     C_R   0.411610 0.000599 0.457047 0.075807
C66   C     C_R   0.591141 0.999735 0.528561 0.068107
C67   C     C_R   0.898904 0.498782 0.497974 0.072603
C68   C     C_R   0.087240 0.499762 0.543753 0.066272
C69   C     C_R   0.586034 0.872120 0.534970 -0.185203
C70   C     C_R   0.417918 0.127861 0.445234 -0.193446
C71   C     C_R   0.419547 0.873945 0.434827 -0.191009
C72   C     C_R   0.581340 0.126334 0.553296 -0.159015
C73   C     C_R   0.082856 0.371884 0.550218 -0.160155
C74   C     C_R   0.880580 0.619209 0.553811 -0.188787
C75   C     C_R   0.916245 0.375605 0.452065 -0.182544
C76   C     C_R   0.077936 0.626423 0.570750 -0.187556
H1    H     H_    0.591334 0.824092 0.563605 0.186973
H2    H     H_    0.410136 0.175774 0.419196 0.182111
H3    H     H_    0.410618 0.826903 0.407431 0.181053
H4    H     H_    0.588528 0.173263 0.583149 0.176460
H5    H     H_    0.090516 0.323630 0.575640 0.183493
H6    H     H_    0.852233 0.661639 0.583819 0.180025
H7    H     H_    0.911276 0.331077 0.415931 0.179232
H8    H     H_    0.088678 0.673551 0.595482 0.178845
C77   C     C_R   0.213753 0.753909 0.963094 0.032065
C78   C     C_R   0.779906 0.239225 0.051771 0.027554
C79   C     C_R   0.783365 0.759626 0.043291 0.029419
C80   C     C_R   0.239767 0.201089 0.935829 0.034382
C81   C     C_R   0.722562 0.274881 0.955500 0.028780
C82   C     C_R   0.272137 0.721089 0.058686 0.028324
C83   C     C_R   0.293182 0.240996 0.036941 0.030854
C84   C     C_R   0.719205 0.736101 0.954964 0.028695
C85   C     C_R   0.253428 0.700733 0.931940 0.027248
C86   C     C_R   0.725436 0.261539 0.097342 0.025536
C87   C     C_R   0.734423 0.721803 0.085829 0.025159
C88   C     C_R   0.287001 0.242586 0.897587 0.024383
C89   C     C_R   0.775788 0.248193 0.910797 0.027415
C90   C     C_R   0.234693 0.777116 0.087660 0.023155
C91   C     C_R   0.244759 0.201810 0.076108 0.018913
C92   C     C_R   0.768416 0.773339 0.912223 0.019577
C93   C     C_R   0.278484 0.679237 0.984664 0.055688
C94   C     C_R   0.698572 0.285461 0.048688 0.058732
C95   C     C_R   0.701050 0.713105 0.043478 0.055059
C96   C     C_R   0.317673 0.253837 0.944602 0.051154
C97   C     C_R   0.806353 0.236816 0.957970 0.052466
C98   C     C_R   0.201447 0.787655 0.045439 0.057859
C99   C     C_R   0.223248 0.172924 0.021346 0.055189
C100  C     C_R   0.801773 0.782033 0.954568 0.053830
C101  C     C_R   0.140197 0.818256 0.952914 0.058713
C102  C     C_R   0.859244 0.185143 0.056453 0.054346
C103  C     C_R   0.862553 0.813928 0.047198 0.055603
C104  C     C_R   0.163488 0.142171 0.926913 0.054804
C105  C     C_R   0.641090 0.320490 0.951256 0.063734
C106  C     C_R   0.339753 0.649154 0.075975 0.050991
C107  C     C_R   0.364865 0.308629 0.050265 0.049261
C108  C     C_R   0.639048 0.683957 0.952010 0.055977
C109  C     C_R   0.113047 0.840807 0.902756 -0.165888
C110  C     C_R   0.879916 0.146432 0.107393 -0.160654
C111  C     C_R   0.888816 0.839151 0.097355 -0.174109
C112  C     C_R   0.125746 0.139087 0.890979 -0.154141
C113  C     C_R   0.613605 0.341779 0.901754 -0.176616
C114  C     C_R   0.377558 0.642889 0.110518 -0.159160
C115  C     C_R   0.381525 0.350572 0.104556 -0.155491
C116  C     C_R   0.611945 0.660163 0.902474 -0.176914
C117  C     C_R   0.128752 0.810844 0.817284 -0.103678
C118  C     C_R   0.851202 0.148879 0.201422 -0.128373
C119  C     C_R   0.872065 0.812261 0.184254 -0.109555
C120  C     C_R   0.135681 0.180210 0.815222 -0.103656
C121  C     C_R   0.630335 0.312693 0.816032 -0.112797
C122  C     C_R   0.369440 0.683596 0.186592 -0.104679
C123  C     C_R   0.351023 0.347838 0.198352 -0.126408
C124  C     C_R   0.628411 0.687771 0.816016 -0.110845
C125  C     C_R   0.176713 0.770975 0.773397 -0.171922
C126  C     C_R   0.806844 0.193226 0.242105 -0.171030
C127  C     C_R   0.823592 0.772980 0.227810 -0.175160
C128  C     C_R   0.184693 0.216957 0.769378 -0.164599
C129  C     C_R   0.680746 0.278045 0.770787 -0.158406
C130  C     C_R   0.323094 0.725495 0.229219 -0.180359
C131  C     C_R   0.308819 0.299123 0.237476 -0.170340
C132  C     C_R   0.677163 0.726438 0.772096 -0.167992
C133  C     C_R   0.201441 0.743641 0.826234 0.011445
C134  C     C_R   0.778695 0.211939 0.194000 0.003819
C135  C     C_R   0.797433 0.748250 0.176542 0.001436
C136  C     C_R   0.217694 0.230161 0.813829 0.006262
C137  C     C_R   0.711093 0.261626 0.818977 0.006795
C138  C     C_R   0.296626 0.747707 0.178665 0.002913
C139  C     C_R   0.285159 0.270139 0.184710 -0.002658
C140  C     C_R   0.704222 0.749781 0.822682 -0.002823
C141  C     C_R   0.185398 0.772499 0.913302 0.065519
C142  C     C_R   0.806508 0.213721 0.100596 0.066610
C143  C     C_R   0.814283 0.774548 0.089541 0.064949
C144  C     C_R   0.207164 0.190728 0.891410 0.061586
C145  C     C_R   0.692045 0.287060 0.907689 0.060051
C146  C     C_R   0.302937 0.706178 0.104366 0.063999
C147  C     C_R   0.315049 0.271890 0.090772 0.062448
C148  C     C_R   0.687679 0.722618 0.909301 0.064350
C149  C     C_R   0.121913 0.835753 0.044253 -0.172122
C150  C     C_R   0.887484 0.193326 0.963386 -0.164580
C151  C     C_R   0.884617 0.822453 0.954107 -0.160400
C152  C     C_R   0.158910 0.099745 0.999139 -0.165202
C153  C     C_R   0.617857 0.328071 0.044634 -0.163032
C154  C     C_R   0.337280 0.600639 0.014018 -0.165422
C155  C     C_R   0.394377 0.305168 0.956338 -0.171592
C156  C     C_R   0.617563 0.674578 0.044919 -0.158628
C157  C     C_R   0.153685 0.826031 0.086726 -0.220599
C158  C     C_R   0.861560 0.218446 0.915099 -0.198264
C159  C     C_R   0.854533 0.808502 0.909172 -0.207712
C160  C     C_R   0.184849 0.118703 0.049764 -0.215133
C161  C     C_R   0.646352 0.313685 0.091456 -0.208816
C162  C     C_R   0.308269 0.616001 0.967916 -0.200856
C163  C     C_R   0.370201 0.281614 0.904413 -0.205916
C164  C     C_R   0.648278 0.686882 0.089125 -0.206353
C165  C     C_R   0.240055 0.687144 0.799775 -0.035524
C166  C     C_R   0.722436 0.220201 0.235354 0.014529
C167  C     C_R   0.756970 0.694862 0.205156 -0.017890
C168  C     C_R   0.260418 0.281412 0.786685 -0.017534
C169  C     C_R   0.758686 0.218659 0.785847 -0.024940
C170  C     C_R   0.265639 0.810547 0.197192 -0.003618
C171  C     C_R   0.231255 0.244625 0.220894 0.005855
C172  C     C_R   0.745627 0.802093 0.793731 -0.019883
C173  C     C_R   0.266397 0.669464 0.849698 -0.236071
C174  C     C_R   0.697099 0.249404 0.189398 -0.226379
C175  C     C_R   0.723471 0.686731 0.164958 -0.238050
C176  C     C_R   0.297409 0.280745 0.821095 -0.248395
C177  C     C_R   0.793418 0.222054 0.824379 -0.250100
C178  C     C_R   0.233455 0.822976 0.154949 -0.238659
C179  C     C_R   0.214373 0.203544 0.168946 -0.239932
C180  C     C_R   0.779530 0.808580 0.833277 -0.232045
H9    H     H_    0.081720 0.852883 0.088117 0.190555
H10   H     H_    0.929748 0.180511 0.926591 0.176593
H11   H     H_    0.926263 0.836293 0.913144 0.181931
H12   H     H_    0.135403 0.051832 0.019174 0.183071
H13   H     H_    0.575863 0.340061 0.085192 0.176336
H14   H     H_    0.356630 0.549466 0.001306 0.171873
H15   H     H_    0.435841 0.321990 0.921196 0.179309
H16   H     H_    0.575842 0.661563 0.086541 0.184144
H17   H     H_    0.137906 0.843530 0.155389 0.152781
H18   H     H_    0.885416 0.222875 0.843690 0.151025
H19   H     H_    0.874177 0.816245 0.837814 0.157063
H20   H     H_    0.176162 0.089001 0.109533 0.152305
H21   H     H_    0.626057 0.325108 0.162061 0.150086
H22   H     H_    0.308438 0.576183 0.921351 0.145631
H23   H     H_    0.393184 0.284671 0.832619 0.154932
H24   H     H_    0.629005 0.678452 0.160342 0.152877
H25   H     H_    0.297923 0.630029 0.822226 0.147287
H26   H     H_    0.653679 0.252679 0.224543 0.142725
H27   H     H_    0.692449 0.646343 0.190764 0.151622
H28   H     H_    0.329776 0.319457 0.796424 0.148938
H29   H     H_    0.830232 0.191456 0.793139 0.147118
H30   H     H_    0.210369 0.871629 0.170662 0.149409
H31   H     H_    0.173400 0.183471 0.199518 0.154422
H32   H     H_    0.811080 0.848262 0.807224 0.159607
O33   O     O_R   0.051640 0.926880 0.885090 -0.561107
O34   O     O_R   0.948360 0.073120 0.114910 -0.567429
O35   O     O_R   0.948360 0.926880 0.114910 -0.567595
O36   O     O_R   0.051640 0.073120 0.885090 -0.559573
O37   O     O_R   0.551640 0.426880 0.885090 -0.563006
O38   O     O_R   0.448360 0.573120 0.114910 -0.568822
O39   O     O_R   0.448360 0.426880 0.114910 -0.575800
O40   O     O_R   0.551640 0.573120 0.885090 -0.559477
Cu9   Cu    Cu3+1 0.495240 0.500000 0.924150 0.998097
Cu10  Cu    Cu3+1 0.504760 0.500000 0.075850 0.990493
Cu11  Cu    Cu3+1 0.995240 0.000000 0.924150 1.010875
Cu12  Cu    Cu3+1 0.004760 1.000000 0.075850 0.981444
C181  C     C_R   0.929060 0.898940 0.063870 0.784483
C182  C     C_R   0.076374 0.093400 0.931546 0.798693
C183  C     C_R   0.071842 0.899780 0.935418 0.779019
C184  C     C_R   0.926568 0.097416 0.066440 0.799091
C185  C     C_R   0.426667 0.402365 0.065979 0.769008
C186  C     C_R   0.571156 0.600894 0.936024 0.801921
C187  C     C_R   0.571553 0.399520 0.935516 0.793328
C188  C     C_R   0.424455 0.594231 0.068714 0.785213
O41   O     O_R   0.940620 0.926560 0.986760 -0.592107
O42   O     O_R   0.059380 0.073440 0.013240 -0.598185
O43   O     O_R   0.059380 0.926560 0.013240 -0.613854
O44   O     O_R   0.940620 0.073440 0.986760 -0.585908
O45   O     O_R   0.440620 0.426560 0.986760 -0.602539
O46   O     O_R   0.559380 0.573440 0.013240 -0.589706
O47   O     O_R   0.559380 0.426560 0.013240 -0.592569
O48   O     O_R   0.440620 0.573440 0.986760 -0.589470
C189  C     C_1   0.549315 0.738714 0.496594 0.240672
N1    N     N_1   0.567533 0.685183 0.502361 -0.246812
C190  C     C_1   0.458261 0.261818 0.475291 0.228647
N2    N     N_1   0.441129 0.315411 0.466912 -0.256570
C191  C     C_1   0.466200 0.739660 0.443995 0.243206
N3    N     N_1   0.450431 0.686357 0.430321 -0.238657
C192  C     C_1   0.538474 0.260839 0.534698 0.240717
N4    N     N_1   0.554049 0.314080 0.548948 -0.241314
C193  C     C_1   0.044484 0.238330 0.514860 0.257399
N5    N     N_1   0.062814 0.184628 0.519727 -0.246578
C194  C     C_1   0.914651 0.750726 0.602236 0.235780
N6    N     N_1   0.889019 0.801774 0.617603 -0.276622
C195  C     C_1   0.963842 0.241040 0.456354 0.232953
N7    N     N_1   0.949676 0.188419 0.437852 -0.254408
C196  C     C_1   0.018394 0.757378 0.593381 0.241959
N8    N     N_1   0.035018 0.812084 0.600702 -0.234321
N9    N     N_R   0.249740 0.999936 0.503628 0.154950
O49   O     O_R   0.217768 0.000019 0.588991 -0.350012
O50   O     O_R   0.229480 0.000724 0.447669 -0.309051
N10   N     N_R   0.720452 0.001676 0.591392 0.143835
O51   O     O_R   0.701063 0.022928 0.673842 -0.369851
O52   O     O_R   0.772388 0.999531 0.541557 -0.297951
N11   N     N_R   0.773111 0.498468 0.423200 0.148340
O53   O     O_R   0.787782 0.468833 0.345448 -0.352487
O54   O     O_R   0.721839 0.504052 0.477160 -0.308804
N12   N     N_R   0.223257 0.499660 0.586238 0.145521
O55   O     O_R   0.274993 0.499117 0.534276 -0.298003
O56   O     O_R   0.204427 0.486754 0.670799 -0.370632
C197  C     C_1   0.092183 0.814632 0.778114 0.329504
N13   N     N_1   0.062588 0.817387 0.747618 -0.256896
C198  C     C_1   0.860599 0.098413 0.257753 0.342803
N14   N     N_1   0.867708 0.058201 0.302812 -0.215629
C199  C     C_1   0.907476 0.819170 0.225713 0.342902
N15   N     N_1   0.935832 0.824400 0.258581 -0.263118
C200  C     C_1   0.094163 0.189150 0.786752 0.326599
N16   N     N_1   0.061096 0.196572 0.764107 -0.278268
C201  C     C_1   0.593029 0.312956 0.777822 0.324795
N17   N     N_1   0.563154 0.312877 0.747642 -0.269767
C202  C     C_1   0.409631 0.686946 0.218713 0.331121
N18   N     N_1   0.441729 0.689951 0.244199 -0.271628
C203  C     C_1   0.357245 0.401474 0.255728 0.324847
N19   N     N_1   0.361885 0.444240 0.301524 -0.214099
C204  C     C_1   0.592535 0.682086 0.775309 0.338830
N20   N     N_1   0.563843 0.677866 0.742980 -0.253148
C205  C     C_1   0.251528 0.637322 0.728793 0.292612
N21   N     N_1   0.263674 0.597138 0.670949 -0.131331
C206  C     C_1   0.689062 0.177272 0.310510 0.251548
N22   N     N_1   0.662042 0.140787 0.368339 -0.290033
C207  C     C_1   0.756602 0.636158 0.258961 0.279546
N23   N     N_1   0.755452 0.588634 0.302245 -0.151035
C208  C     C_1   0.262034 0.346341 0.741323 0.287438
N24   N     N_1   0.265231 0.398892 0.704662 -0.154608
C209  C     C_1   0.766511 0.154722 0.733610 0.307904
N25   N     N_1   0.774716 0.103355 0.691537 -0.147777
C210  C     C_1   0.273462 0.868928 0.246251 0.263273
N26   N     N_1   0.280149 0.915957 0.284671 -0.233142
C211  C     C_1   0.188524 0.277748 0.298257 0.282766
N27   N     N_1   0.154101 0.304848 0.359295 -0.278128
C212  C     C_1   0.747647 0.861396 0.739538 0.295908
N28   N     N_1   0.750708 0.909390 0.695665 -0.140949

loop_
_geom_bond_atom_site_label_1
_geom_bond_atom_site_label_2
_geom_bond_distance
_ccdc_geom_bond_type
C150  C158  1.399593 A    
Cu2   Cu5   2.679726 S    
C194  N6    1.157365 T    
C123  C131  1.397964 A    
C70   H2    1.073599 S    
C211  N27   1.155867 T    
N11   O54   1.302727 A    
C46   C66   1.411309 A    
C209  N25   1.155324 T    
O33   C183  1.321589 A    
C183  O43   1.292174 A    
C122  C130  1.402171 A    
O37   Cu9   1.968263 S    
C179  H31   1.084581 S    
C77   C98   1.414244 A    
Cu6   O22   1.964554 S    
C27   C194  1.453538 S    
C104  C152  1.418883 A    
C153  C161  1.381318 A    
C90   C178  1.407579 A    
C82   C93   1.411429 A    
C151  H11   1.078112 S    
C166  C174  1.384048 A    
C169  C209  1.443513 S    
O3    Cu3   1.970770 S    
C50   C76   1.415993 A    
C102  C110  1.439316 A    
C19   C33   1.406070 A    
C55   C62   1.412331 A    
C121  C201  1.452760 S    
C187  O47   1.294151 A    
C152  C160  1.390887 A    
C28   C193  1.453216 S    
C33   C35   1.411218 A    
C36   C43   1.408144 A    
O25   C9    1.295045 A    
C17   C76   1.408832 A    
C105  C153  1.408303 A    
C37   C39   1.409925 A    
C135  C167  1.420727 A    
C118  C126  1.388607 A    
C75   H7    1.077480 S    
C204  N20   1.157940 T    
C3    C132  1.506481 S    
C162  H22   1.079429 S    
C53   C61   1.410766 A    
C72   H4    1.076019 S    
C1    C130  1.494630 S    
C81   C94   1.410969 A    
C3    O19   1.287599 A    
Cu12  O42   1.971479 S    
C81   C89   1.416670 A    
C105  C113  1.428154 A    
C168  C176  1.395966 A    
C61   N9    1.437857 S    
C102  C142  1.418371 A    
C38   C42   1.412006 A    
N11   O53   1.302507 A    
O34   C184  1.308035 A    
O12   Cu4   1.965517 S    
N12   O55   1.302616 A    
O13   Cu5   1.962117 S    
C158  H18   1.080976 S    
C57   C63   1.400984 A    
C23   C31   1.416249 A    
C109  C117  1.413513 A    
C82   C90   1.408493 A    
C106  C114  1.424478 A    
C8    O24   1.289629 A    
N10   O51   1.300124 A    
C127  C135  1.435610 A    
C128  C136  1.447334 A    
C83   C147  1.423343 A    
O2    C13   1.315838 A    
C80   C99   1.406020 A    
C87   C175  1.396943 A    
C101  C141  1.419294 A    
C166  C206  1.435290 S    
C175  H27   1.082908 S    
C156  H16   1.077799 S    
Cu3   O19   1.970155 S    
Cu9   O48   1.970667 S    
O10   Cu2   1.962117 S    
Cu10  O47   1.970670 S    
C111  C119  1.416652 A    
C112  C120  1.414664 A    
C210  N26   1.156648 T    
C130  C138  1.425450 A    
O5    Cu5   1.962549 S    
C54   C62   1.407398 A    
C104  C144  1.418503 A    
C203  N19   1.157985 T    
C172  C212  1.434911 S    
C152  H12   1.075407 S    
C33   C43   1.410613 A    
C96   C163  1.404320 A    
C16   C55   1.505774 S    
C49   C75   1.408022 A    
C112  C182  1.497948 S    
C126  C134  1.410279 A    
O15   C4    1.311257 A    
C18   C36   1.407185 A    
C138  C170  1.416964 A    
C22   C30   1.415270 A    
C34   C36   1.403977 A    
C22   C40   1.408940 A    
O7    C12   1.310574 A    
C139  C147  1.413769 A    
Cu2   O26   1.970741 S    
C62   N10   1.423958 S    
Cu9   Cu10  2.688599 S    
C38   C40   1.409713 A    
C35   C44   1.408330 A    
C71   H3    1.075423 S    
C78   C142  1.424388 A    
C124  C204  1.452126 S    
C89   C177  1.393504 A    
C100  C159  1.404108 A    
C19   C27   1.415401 A    
C45   C53   1.429751 A    
C22   C71   1.404255 A    
C86   C174  1.403396 A    
C47   C55   1.435419 A    
C113  C121  1.406682 A    
O33   Cu11  1.968263 S    
O16   C3    1.310326 A    
C87   C95   1.416462 A    
O29   C13   1.293137 A    
C188  O48   1.299395 A    
N9    O50   1.302527 A    
C155  C163  1.395100 A    
O38   Cu10  1.968260 S    
C165  C173  1.390077 A    
C98   C157  1.392646 A    
C107  C155  1.413256 A    
C121  C129  1.417527 A    
Cu4   O28   1.975532 S    
C78   C97   1.407208 A    
Cu5   O29   1.970740 S    
C7    C128  1.501664 S    
C8    C127  1.506811 S    
C41   C65   1.418625 A    
C92   C180  1.394847 A    
Cu7   O31   1.975533 S    
Cu8   O32   1.975532 S    
C84   C148  1.429129 A    
C161  H21   1.079225 S    
C107  C115  1.431436 A    
C30   C32   1.409469 A    
C79   C143  1.427562 A    
C80   C144  1.429383 A    
C103  C111  1.425332 A    
C195  N7    1.157419 T    
N12   O56   1.299240 A    
C88   C176  1.391842 A    
Cu4   Cu7   2.664519 S    
C171  C211  1.444432 S    
C30   C191  1.452951 S    
C184  O44   1.292981 A    
C193  N5    1.157405 T    
C185  O45   1.295080 A    
C20   C28   1.415976 A    
O9    C6    1.325184 A    
O26   C10   1.289619 A    
C181  O41   1.300908 A    
O11   C8    1.308428 A    
O12   C7    1.320375 A    
C49   C67   1.409573 A    
O13   C2    1.321131 A    
C116  C124  1.416245 A    
Cu11  O41   1.971478 S    
C115  C123  1.413873 A    
C119  C127  1.417081 A    
C2    C129  1.500073 S    
C11   C60   1.487440 S    
C120  C128  1.407464 A    
C13   C54   1.509271 S    
C24   C38   1.403567 A    
C138  C146  1.412188 A    
C34   C44   1.410276 A    
O40   Cu9   1.963412 S    
C39   C42   1.409870 A    
C95   C164  1.403019 A    
C149  H9    1.073141 S    
C73   H5    1.072499 S    
C134  C142  1.402579 A    
O1    Cu1   1.962549 S    
C31   C190  1.452930 S    
O14   Cu6   1.962117 S    
C50   C68   1.412907 A    
C48   C65   1.408862 A    
C24   C69   1.399586 A    
C90   C98   1.419168 A    
O7    Cu7   1.970770 S    
O8    Cu8   1.970773 S    
C170  C178  1.399180 A    
C42   C66   1.421436 A    
O40   C186  1.312484 A    
C99   C160  1.396310 A    
C83   C91   1.410588 A    
Cu9   O45   1.971478 S    
C190  N2    1.157417 T    
C133  C165  1.435538 A    
C32   C189  1.453504 S    
C94   C161  1.403288 A    
C51   C59   1.427363 A    
C21   C72   1.404512 A    
C169  C177  1.392165 A    
C48   C56   1.433195 A    
C149  C157  1.384131 A    
C5    C126  1.474519 S    
C69   H1    1.072264 S    
Cu11  Cu12  2.688599 S    
O11   Cu3   1.965517 S    
C115  C185  1.487275 S    
C89   C97   1.424800 A    
C108  C148  1.413059 A    
C79   C87   1.411099 A    
C80   C88   1.409185 A    
C136  C168  1.435392 A    
C131  C139  1.431058 A    
C77   C85   1.406901 A    
O6    Cu6   1.962547 S    
C129  C137  1.452045 A    
C172  C180  1.388111 A    
C91   C179  1.398830 A    
C207  N23   1.151802 T    
C14   C53   1.491074 S    
C132  C140  1.437822 A    
C133  C141  1.427696 A    
C176  H28   1.084416 S    
Cu3   O27   1.975533 S    
C25   C27   1.411685 A    
C85   C173  1.389008 A    
C136  C144  1.419077 A    
C17   C35   1.407639 A    
O37   C187  1.319128 A    
O38   C188  1.301089 A    
O39   C185  1.305883 A    
C159  H19   1.081116 S    
C79   C100  1.409482 A    
C48   C70   1.414431 A    
C124  C132  1.417213 A    
C84   C95   1.410647 A    
C59   C64   1.407322 A    
C125  C133  1.452144 A    
C200  N16   1.157855 T    
C56   C61   1.409742 A    
C160  H20   1.083159 S    
Cu1   O17   1.964552 S    
C106  C154  1.406784 A    
N10   O52   1.302304 A    
C140  C172  1.423341 A    
C163  H23   1.082272 S    
C196  N8    1.156790 T    
C15   C56   1.489654 S    
O35   C181  1.310928 A    
C60   C63   1.415838 A    
C64   N12   1.420865 S    
C167  C175  1.389481 A    
C208  N24   1.153912 T    
C155  H15   1.078592 S    
C191  N3    1.157339 T    
C86   C94   1.417778 A    
C153  H13   1.077242 S    
C212  N28   1.151906 T    
C114  C122  1.415259 A    
C37   C41   1.410260 A    
C114  C188  1.486980 S    
O30   C14   1.291862 A    
C157  H17   1.082367 S    
Cu6   O30   1.970741 S    
O4    C15   1.305669 A    
O5    C10   1.309856 A    
C110  C118  1.412691 A    
C165  C205  1.431457 S    
C178  H30   1.083230 S    
C116  C186  1.507466 S    
C76   H8    1.075596 S    
C51   C68   1.413987 A    
C168  C208  1.438944 S    
C17   C25   1.417702 A    
C82   C146  1.421797 A    
C47   C69   1.414615 A    
C84   C92   1.411357 A    
C85   C93   1.421344 A    
Cu1   Cu6   2.679726 S    
C123  C203  1.456257 S    
C186  O46   1.299968 A    
Cu3   Cu8   2.664519 S    
C206  N22   1.151950 T    
C88   C96   1.420980 A    
C174  H26   1.080531 S    
O10   C5    1.303198 A    
O27   C11   1.290337 A    
C199  N15   1.157929 T    
C182  O42   1.293814 A    
C19   C74   1.404994 A    
C44   C68   1.417226 A    
O14   C1    1.310902 A    
C205  N21   1.151971 T    
C4    C131  1.490442 S    
C107  C147  1.417283 A    
C202  N18   1.157595 T    
Cu4   O20   1.970153 S    
C45   C71   1.411128 A    
Cu5   O21   1.964552 S    
O35   Cu12  1.963412 S    
C4    O20   1.277224 A    
O36   Cu11  1.963412 S    
C5    O21   1.287992 A    
C171  C179  1.395597 A    
C101  C109  1.436945 A    
C93   C162  1.408330 A    
C102  C150  1.407136 A    
C83   C96   1.407855 A    
C180  H32   1.082905 S    
C26   C28   1.408122 A    
C198  N14   1.158067 T    
C104  C112  1.435299 A    
O2    Cu2   1.962547 S    
N9    O49   1.301607 A    
O39   Cu10  1.963412 S    
C92   C100  1.415964 A    
C139  C171  1.422932 A    
C197  N13   1.156440 T    
C113  C187  1.510003 S    
C91   C99   1.414605 A    
C137  C169  1.434984 A    
C21   C39   1.407599 A    
C58   C64   1.410469 A    
C154  H14   1.079394 S    
C117  C125  1.414633 A    
Cu10  O46   1.971479 S    
C20   C34   1.402746 A    
C29   C31   1.410931 A    
C25   C196  1.450915 S    
C46   C54   1.428539 A    
C9    C58   1.505001 S    
C122  C202  1.451713 S    
C18   C26   1.414718 A    
C192  N4    1.157366 T    
C7    O23   1.273788 A    
C6    C125  1.518214 S    
C63   N11   1.434952 S    
C117  C197  1.448762 S    
O16   Cu8   1.965517 S    
C156  C164  1.385929 A    
C20   C73   1.395471 A    
C154  C162  1.387183 A    
C45   C65   1.409241 A    
C78   C86   1.418764 A    
C97   C158  1.414424 A    
C2    O18   1.281140 A    
C109  C183  1.512428 S    
Cu12  O43   1.970670 S    
C110  C184  1.485707 S    
C170  C210  1.444854 S    
C119  C199  1.452103 S    
C103  C151  1.410139 A    
C26   C195  1.453058 S    
C189  N1    1.157424 T    
C118  C198  1.456997 S    
C51   C73   1.412731 A    
C49   C57   1.419231 A    
C74   H6    1.075281 S    
C46   C72   1.412005 A    
O1    C14   1.306588 A    
O3    C16   1.311463 A    
C52   C67   1.410394 A    
C103  C143  1.412363 A    
C151  C159  1.386150 A    
C105  C145  1.416686 A    
C120  C200  1.453308 S    
Cu2   O18   1.964554 S    
O8    C11   1.297427 A    
C140  C148  1.415208 A    
O9    Cu1   1.962117 S    
C18   C75   1.398189 A    
C108  C156  1.410628 A    
C52   C60   1.431563 A    
O31   C15   1.282810 A    
C23   C37   1.405576 A    
C21   C29   1.416059 A    
O32   C16   1.286737 A    
O36   C182  1.311533 A    
C10   C57   1.491224 S    
C177  H29   1.083043 S    
C29   C192  1.452811 S    
C137  C145  1.418565 A    
C40   C41   1.408020 A    
C135  C143  1.413734 A    
C81   C145  1.435114 A    
C150  H10   1.080123 S    
O4    Cu4   1.970773 S    
C111  C181  1.505976 S    
C12   C59   1.505498 S    
C23   C70   1.403379 A    
C164  H24   1.081018 S    
C167  C207  1.434490 S    
O28   C12   1.286779 A    
C47   C66   1.412297 A    
C173  H25   1.081969 S    
Cu7   O23   1.970155 S    
O15   Cu7   1.965517 S    
Cu8   O24   1.970153 S    
C43   C67   1.415330 A    
C24   C32   1.416659 A    
O6    C9    1.312232 A    
C201  N17   1.157878 T    
Cu1   O25   1.970740 S    
O34   Cu12  1.968260 S    
C106  C146  1.412509 A    
C108  C116  1.426693 A    
Cu11  O44   1.970667 S    
C1    O17   1.291724 A    
C134  C166  1.405842 A    
C77   C141  1.438129 A    
C6    O22   1.287618 A    
C52   C74   1.413876 A    
C50   C58   1.429663 A    
C101  C149  1.419411 A    
