data_mof_unit_38179.cif
_audit_creation_date              2013-03-05T15:44:34-0500
_audit_creation_method            fapswitch 2.2
_symmetry_space_group_name_H-M    P1
_symmetry_Int_Tables_number       1
_space_group_crystal_system       triclinic
_cell_length_a                    8.323789
_cell_length_b                    17.464836
_cell_length_c                    19.189978
_cell_angle_alpha                 95.296204
_cell_angle_beta                  94.379309
_cell_angle_gamma                 95.464275
_cell_volume                      2754.96180561

loop_
_atom_site_label
_atom_site_type_symbol
_atom_site_description
_atom_site_fract_x
_atom_site_fract_y
_atom_site_fract_z
_atom_type_partial_charge
P1    P     P_3+3 0.970290 0.672580 0.555000 0.426149
O1    O     O_2   0.143190 0.684560 0.534150 -0.373619
O2    O     O_3   0.882350 0.590230 0.535560 -0.433068
O3    O     O_3   0.372640 0.639320 0.408320 -0.362860
O4    O     O_2   0.279988 0.773584 0.460897 -0.384539
O5    O     O_3   0.002367 0.683406 0.646843 -0.607224
O6    O     O_3   0.346166 0.768501 0.331547 -0.568052
H1    H     H_    0.493681 0.691333 0.285846 0.067134
C1    C     C_3   0.403514 0.766030 0.211959 0.196403
H2    H     H_    0.294034 0.724658 0.195246 0.106539
H3    H     H_    0.369505 0.826394 0.213277 0.073565
P2    P     P_3+3 0.347000 0.441860 0.341200 0.500582
P3    P     P_3+3 0.924149 0.599575 0.282036 0.507251
O7    O     O_2   0.176230 0.464730 0.330450 -0.348025
O8    O     O_3   0.952380 0.601530 0.373300 -0.381826
O9    O     O_2   0.054292 0.553005 0.249922 -0.353333
O10   O     O_3   0.314566 0.340994 0.323123 -0.600120
O11   O     O_3   0.970707 0.693493 0.259505 -0.540978
C2    C     C_3   0.933135 0.745994 0.314444 0.364480
H4    H     H_    0.016119 0.743507 0.362203 0.104251
H5    H     H_    0.806126 0.733001 0.327275 -0.025686
C3    C     C_3   0.955458 0.828109 0.293164 0.133921
H6    H     H_    0.086000 0.844207 0.286325 0.088976
C4    C     C_3   0.895748 0.290857 0.312496 0.441473
H7    H     H_    0.013931 0.294047 0.341099 0.013284
C5    C     C_3   0.839987 0.206523 0.286670 -1.083020
H8    H     H_    0.722713 0.201857 0.254182 0.268144
H9    H     H_    0.930869 0.181603 0.254202 0.219707
H10   H     H_    0.826205 0.172048 0.331842 0.284220
Ba1   Ba    Ba6+2 0.157360 0.537160 0.466280 1.575799
C6    C     C_3   0.870764 0.714357 0.676780 0.404535
H11   H     H_    0.834681 0.678424 0.718900 0.128190
H12   H     H_    0.762134 0.713961 0.639452 0.087307
C7    C     C_3   0.922983 0.796287 0.710121 -1.035110
H13   H     H_    0.029744 0.796526 0.748608 0.266460
H14   H     H_    0.822543 0.819035 0.737863 0.244803
H15   H     H_    0.955304 0.834546 0.669227 0.256564
C8    C     C_3   0.310211 0.306451 0.386155 0.298172
H16   H     H_    0.211801 0.326559 0.416157 0.049145
H17   H     H_    0.420400 0.323735 0.419975 0.181079
C9    C     C_3   0.290013 0.218217 0.371072 -0.755031
H18   H     H_    0.176345 0.198551 0.337922 0.170766
H19   H     H_    0.283185 0.191603 0.421061 0.214727
P4    P     P_3+3 0.840010 0.327410 0.444950 0.510321
O12   O     O_2   0.667110 0.315390 0.465830 -0.347474
O13   O     O_3   0.927950 0.409760 0.464380 -0.395154
O14   O     O_3   0.437660 0.360670 0.591630 -0.346812
O15   O     O_3   0.781910 0.322403 0.354120 -0.502376
P5    P     P_3+3 0.886572 0.396328 0.719121 0.464882
O16   O     O_3   0.379150 0.537830 0.583060 -0.370800
O17   O     O_3   0.857920 0.398470 0.626650 -0.400507
O18   O     O_2   0.759802 0.445279 0.750995 -0.386378
O19   O     O_3   0.828927 0.302719 0.740181 -0.512677
Ba2   Ba    Ba6+2 0.652820 0.462830 0.533660 1.576242
P6    P     P_3+3 0.405017 0.740658 0.414029 0.443773
C10   C     C_3   0.465523 0.752502 0.286082 0.235064
H20   H     H_    0.576536 0.792745 0.301947 0.095060
O20   O     O_3   0.431150 0.462160 0.416880 -0.398793
C11   C     C_3   0.415822 0.702058 0.645030 0.371012
H21   H     H_    0.441718 0.685748 0.589878 0.125402
H22   H     H_    0.287265 0.688470 0.652660 0.147742
C12   C     C_3   0.454435 0.789135 0.661017 -1.001130
H23   H     H_    0.579359 0.807512 0.648657 0.245688
H24   H     H_    0.369088 0.818943 0.628238 0.250627
H25   H     H_    0.441470 0.806638 0.717269 0.265075
P7    P     P_3+3 0.461401 0.563626 0.671802 0.446117
O21   O     O_2   0.634060 0.535220 0.669530 -0.339821
O22   O     O_3   0.507933 0.663672 0.691993 -0.602336
H26   H     H_    0.924288 0.868203 0.337297 0.062535
C13   C     C_3   0.855140 0.249860 0.683387 0.485914
H27   H     H_    0.774207 0.257369 0.636358 0.160757
H28   H     H_    0.982818 0.257323 0.670346 0.024619
C14   C     C_3   0.817774 0.167760 0.702437 -0.952367
H29   H     H_    0.688704 0.157153 0.712843 0.295241
H30   H     H_    0.842459 0.125863 0.658378 0.221486
H31   H     H_    0.894096 0.158373 0.750225 0.254542
P8    P     P_3+3 0.400728 0.259609 0.587312 0.448075
C15   C     C_3   0.345077 0.260112 0.719002 0.440467
H32   H     H_    0.253159 0.294907 0.695883 -0.019505
O23   O     O_2   0.526336 0.224790 0.541696 -0.384711
O24   O     O_3   0.453148 0.233431 0.671272 -0.540579
H33   H     H_    0.172104 0.209469 0.785754 0.234532
C16   C     C_3   0.254550 0.190133 0.746326 -0.916394
H34   H     H_    0.341408 0.153919 0.770882 0.274240
H35   H     H_    0.181543 0.154276 0.702110 0.231199
H36   H     H_    0.772976 0.152734 0.451184 0.197547
H37   H     H_    0.592826 0.897063 0.437548 0.158428
C17   C     C_R   0.708075 0.723722 0.478538 -0.469816
C18   C     C_R   0.860673 0.747248 0.512907 0.300808
C19   C     C_R   0.920072 0.826689 0.518883 -0.300505
C20   C     C_R   0.824693 0.881802 0.491022 0.076421
C21   C     C_R   0.669173 0.856012 0.458062 -0.279097
C22   C     C_R   0.611324 0.777137 0.452087 0.216797
C23   C     C_R   0.889401 0.171925 0.479358 -0.268325
C24   C     C_R   0.946807 0.251609 0.486781 0.230171
C25   C     C_R   0.192889 0.222731 0.550989 0.225388
C26   C     C_R   0.137579 0.143473 0.543137 -0.284650
C27   C     C_R   0.983917 0.117165 0.508434 0.078224
C28   C     C_1   0.927339 0.034092 0.501827 0.001148
C29   C     C_1   0.882229 0.964755 0.497145 -0.005155
C30   C     C_R   0.093800 0.275856 0.525974 -0.459346
H38   H     H_    0.214797 0.102519 0.563185 0.156707
H39   H     H_    0.038341 0.845445 0.545760 0.157510
H40   H     H_    0.661363 0.663363 0.474704 0.173150
H41   H     H_    0.136996 0.336709 0.533025 0.191033
C31   C     C_R   0.618191 0.527295 0.298791 -0.389239
C32   C     C_R   0.464592 0.490003 0.276856 0.340403
C33   C     C_R   0.408850 0.483341 0.205334 -0.264120
C34   C     C_R   0.506729 0.514297 0.155534 0.030131
C35   C     C_R   0.662890 0.550648 0.178972 -0.199294
C36   C     C_R   0.718446 0.556470 0.250208 0.282369
C37   C     C_R   0.486131 0.568431 0.038210 -0.181947
C38   C     C_R   0.433607 0.562405 0.966636 -0.196916
C39   C     C_R   0.343077 0.494840 0.933594 0.193548
C40   C     C_R   0.304786 0.433954 0.974732 -0.130092
C41   C     C_R   0.356109 0.440363 0.046591 -0.161193
C42   C     C_R   0.448211 0.507638 0.079303 0.170152
C43   C     C_R   0.139534 0.447287 0.829943 -0.347212
C44   C     C_R   0.093669 0.438220 0.757505 0.121758
C45   C     C_R   0.347088 0.512157 0.736701 0.161602
C46   C     C_R   0.393187 0.521039 0.808986 -0.348467
C47   C     C_R   0.291610 0.487286 0.856530 0.053949
C48   C     C_R   0.201868 0.467936 0.712121 0.215269
H42   H     H_    0.508028 0.553514 0.827640 0.170575
H43   H     H_    0.463019 0.611225 0.937397 0.119021
H44   H     H_    0.555706 0.621186 0.061598 0.148412
H45   H     H_    0.289550 0.454160 0.188819 0.147503
H46   H     H_    0.237977 0.380471 0.951083 0.140748
H47   H     H_    0.326956 0.391741 0.076129 0.124571
H48   H     H_    0.055661 0.424836 0.865320 0.174796
H49   H     H_    0.742856 0.572866 0.141957 0.136541
H50   H     H_    0.662252 0.531082 0.353654 0.164921
C49   C     C_2   0.427611 0.189922 0.333729 0.746370
H51   H     H_    0.451820 0.209303 0.283123 0.019901
O25   O     O_2   0.510884 0.144053 0.359257 -0.609050
O26   O     O_3   0.525802 0.754360 0.166190 -0.573464
C50   C     C_3   0.474601 0.774785 0.099265 -0.226930
H52   H     H_    0.456249 0.837212 0.101269 0.137311
H53   H     H_    0.362277 0.738463 0.076641 0.126526
H54   H     H_    0.570796 0.764673 0.063554 0.155676
C51   C     C_2   0.440771 0.312558 0.777375 0.585173
H55   H     H_    0.496947 0.367708 0.765585 0.053084
O27   O     O_2   0.455519 0.294977 0.837525 -0.585472
O28   O     O_3   0.160992 0.456341 0.641774 -0.661268
C52   C     C_3   0.069896 0.516222 0.624306 0.178793
H56   H     H_    0.145023 0.570598 0.622467 0.100207
H57   H     H_    0.975054 0.529717 0.660155 0.090610
H58   H     H_    0.011036 0.495237 0.572508 0.226802
O29   O     O_3   0.848380 0.835318 0.233697 -0.557655
C53   C     C_3   0.934594 0.842987 0.173826 -0.042046
H59   H     H_    0.004271 0.792636 0.162544 0.125729
H60   H     H_    0.016707 0.897732 0.180202 0.084841
H61   H     H_    0.846657 0.845261 0.127825 0.144971
C54   C     C_2   0.916323 0.335997 0.250179 0.622239
H62   H     H_    0.009891 0.323587 0.215600 -0.046498
O30   O     O_2   0.829657 0.386540 0.237764 -0.584008

loop_
_geom_bond_atom_site_label_1
_geom_bond_atom_site_label_2
_geom_bond_distance
_ccdc_geom_bond_type
P7    O22   1.753966 S    
C9    H18   1.106209 S    
C7    H15   1.108818 S    
C14   H30   1.110609 S    
C14   H29   1.109102 S    
C2    H4    1.111464 S    
O6    P6    1.746660 S    
P6    C22   1.844576 S    
H1    C10   1.114984 S    
C9    C49   1.495755 S    
C52   H56   1.091158 S    
C34   C42   1.496581 S    
C41   C42   1.407511 A    
C31   H50   1.082077 S    
Ba1   Ba2   4.569518 S    
C5    H8    1.109389 S    
O16   Ba2   2.910739 S    
P3    O11   1.750150 S    
C2    H5    1.110926 S    
C4    C5    1.526543 S    
O11   C2    1.405897 S    
C51   O27   1.221756 D    
C37   C42   1.406256 A    
C7    H13   1.110727 S    
O2    Ba2   2.786945 S    
C38   H43   1.082262 S    
C31   C32   1.394493 A    
C23   C27   1.421154 A    
C40   C41   1.403222 A    
C33   C34   1.414123 A    
P1    O1    1.523534 D    
C43   C47   1.420511 A    
C35   C36   1.400629 A    
C21   C22   1.406662 A    
C46   H42   1.081931 S    
C12   H24   1.110870 S    
H36   C23   1.080961 S    
C52   H57   1.113762 S    
C43   C44   1.403563 A    
O29   C53   1.410308 S    
C15   C16   1.529603 S    
C41   H47   1.082554 S    
C28   C29   1.226239 T    
C4    C54   1.503522 S    
P5    O17   1.776666 S    
C53   H61   1.109031 S    
P2    O10   1.754657 S    
C24   C30   1.394278 A    
C32   C33   1.405547 A    
C6    H12   1.108939 S    
C13   H27   1.109655 S    
C20   C29   1.473060 S    
C1    H2    1.114705 S    
C3    H26   1.110668 S    
C37   H44   1.080767 S    
C26   H38   1.083196 S    
C45   C48   1.395705 A    
P2    O20   1.558134 S    
O5    C6    1.404906 S    
Ba1   O16   2.790997 S    
C3    O29   1.416012 S    
C11   H21   1.112928 S    
P7    C45   1.867943 S    
H37   C21   1.083282 S    
C9    H19   1.106860 S    
O6    C10   1.402340 S    
O7    Ba1   2.812603 S    
O19   C13   1.405933 S    
C37   C38   1.400547 A    
C17   H40   1.082174 S    
P4    O13   1.549890 S    
C26   C27   1.411401 A    
C31   C36   1.396686 A    
C30   H41   1.081830 S    
C8    H16   1.102404 S    
C50   H54   1.109204 S    
C11   H22   1.097636 S    
P1    O5    1.752234 S    
C4    O15   1.404716 S    
C2    C3    1.525435 S    
C4    H7    1.083311 S    
C8    C9    1.532186 S    
C15   C51   1.504527 S    
C20   C21   1.410676 A    
C15   H32   1.112651 S    
O26   C50   1.410043 S    
Ba2   O21   2.812873 S    
C40   H46   1.082581 S    
P1    O2    1.549914 S    
C48   O28   1.358459 S    
O2    Ba1   2.916856 S    
C12   H23   1.108467 S    
C43   H48   1.082310 S    
C11   O22   1.397629 S    
C50   H53   1.113228 S    
C16   H34   1.111249 S    
P8    O24   1.749836 S    
P5    O18   1.546709 D    
C25   C26   1.407235 A    
O13   Ba2   2.917705 S    
C13   C14   1.521690 S    
C46   C47   1.420191 A    
C6    C7    1.521780 S    
C35   H49   1.082626 S    
C1    C10   1.522715 S    
C1    H3    1.115891 S    
C54   H62   1.085554 S    
O14   Ba2   2.773180 S    
C16   H35   1.110000 S    
P2    O7    1.516965 D    
O12   Ba2   2.793271 S    
H33   C16   1.110738 S    
P3    O8    1.745906 S    
O3    P6    1.756671 S    
C49   H51   1.084363 S    
C14   H31   1.109074 S    
C53   H60   1.112412 S    
C10   H20   1.111025 S    
O14   P8    1.755680 S    
C52   H58   1.089299 S    
C45   C46   1.401123 A    
O8    Ba1   2.762131 S    
C38   C39   1.407804 A    
Ba2   O20   2.790399 S    
P8    O23   1.546548 D    
C17   C22   1.394467 A    
C11   C12   1.521825 S    
P1    C18   1.869246 S    
C12   H25   1.110639 S    
P2    Ba1   3.371172 S    
C3    H6    1.116862 S    
C54   O30   1.220734 D    
O4    P6    1.544049 D    
C6    H11   1.110052 S    
P4    O12   1.523785 D    
O28   C52   1.399283 S    
P2    C32   1.846396 S    
O16   P7    1.786988 S    
C39   C40   1.408685 A    
C44   C48   1.397561 A    
C50   H52   1.112824 S    
P8    C25   1.847802 S    
C5    H9    1.111079 S    
Ba1   O13   2.786337 S    
O1    Ba1   2.792783 S    
O17   Ba2   2.762768 S    
P3    C36   1.838866 S    
P4    C24   1.870437 S    
C51   H55   1.080824 S    
C8    H17   1.083415 S    
C15   O24   1.411445 S    
C19   C20   1.420697 A    
P5    C44   1.875057 S    
P5    O19   1.751724 S    
Ba1   O20   2.911590 S    
P1    Ba1   3.358543 S    
P7    O21   1.566797 D    
C7    H14   1.110142 S    
O10   C8    1.401982 S    
C33   H45   1.082601 S    
C23   C24   1.418361 A    
C19   H39   1.082734 S    
C39   C47   1.498132 S    
C1    O26   1.411413 S    
P4    Ba2   3.359019 S    
C17   C18   1.392790 A    
C5    H10   1.107020 S    
C27   C28   1.472971 S    
P3    O9    1.546611 D    
C34   C35   1.412726 A    
C49   O25   1.220064 D    
C53   H59   1.112518 S    
C13   H28   1.108755 S    
C18   C19   1.419113 A    
C25   C30   1.392500 A    
O3    Ba1   2.773698 S    
P4    O15   1.764855 S    
