data_mof_unit_7424.cif
_audit_creation_date              2012-10-26T20:07:04-0400
_audit_creation_method            fapswitch 2.2
_symmetry_space_group_name_H-M    P1
_symmetry_Int_Tables_number       1
_space_group_crystal_system       triclinic
_cell_length_a                    10.832991
_cell_length_b                    9.507047
_cell_length_c                    27.814836
_cell_angle_alpha                 90.000029
_cell_angle_beta                  89.917047
_cell_angle_gamma                 90.038612
_cell_volume                      2864.63948071

loop_
_atom_site_label
_atom_site_type_symbol
_atom_type_description
_atom_site_fract_x
_atom_site_fract_y
_atom_site_fract_z
_atom_type_partial_charge
C1    C     C_R   0.262023 0.499973 0.499976 0.554029
C2    C     C_R   0.395221 0.538308 0.872807 0.030647
C3    C     C_R   0.500978 0.500275 0.354464 0.006091
C4    C     C_R   0.499363 0.500263 0.645560 0.005106
C5    C     C_R   0.392824 0.533851 0.974572 0.033363
C6    C     C_R   0.616549 0.492272 0.025691 0.031399
C7    C     C_R   0.616066 0.484911 0.974580 -0.027250
C8    C     C_R   0.390977 0.524379 0.025509 -0.026074
C9    C     C_R   0.504721 0.509257 0.949252 0.023416
C10   C     C_R   0.503177 0.508331 0.050936 0.023771
C11   C     C_R   0.286415 0.569833 0.947939 -0.142137
C12   C     C_R   0.737977 0.500027 0.500024 0.554010
C13   C     C_R   0.727001 0.485377 0.052636 -0.144407
C14   C     C_R   0.287981 0.571791 0.898133 -0.114104
C15   C     C_R   0.725372 0.486172 0.102516 -0.114721
C16   C     C_R   0.500194 0.500022 0.407407 0.553921
C17   C     C_R   0.499828 0.500021 0.592601 0.554085
C18   C     C_R   0.279671 0.528416 0.051865 -0.137400
C19   C     C_R   0.723462 0.453214 0.947835 -0.135950
C20   C     C_R   0.063767 0.372153 0.499973 -0.133324
C21   C     C_R   0.936233 0.627848 0.500027 -0.133745
C22   C     C_R   0.936068 0.372184 0.500019 -0.133325
C23   C     C_R   0.502030 0.507045 0.102066 -0.074535
C24   C     C_R   0.063932 0.627816 0.499981 -0.133759
C25   C     C_R   0.871800 0.500033 0.500033 0.022593
C26   C     C_R   0.128200 0.499968 0.499967 0.022592
C27   C     C_R   0.423045 0.074399 0.470286 0.010864
C28   C     C_R   0.576952 0.925600 0.529716 0.010923
C29   C     C_R   0.576952 0.074517 0.529716 0.010968
C30   C     C_R   0.423048 0.925482 0.470284 0.011111
C31   C     C_R   0.392618 0.512548 0.178476 0.404599
C32   C     C_R   0.608080 0.471521 0.821477 0.402991
C33   C     C_R   0.612075 0.493365 0.177987 0.394432
C34   C     C_R   0.504695 0.508144 0.898118 -0.075034
C35   C     C_R   0.395512 0.535989 0.822437 0.396665
C36   C     C_R   0.488235 0.627452 0.278922 -0.064129
C37   C     C_R   0.493376 0.628280 0.721082 -0.064052
C38   C     C_R   0.487539 0.627167 0.329040 -0.141576
C39   C     C_R   0.493667 0.627962 0.670966 -0.144081
C40   C     C_R   0.515491 0.373876 0.328816 -0.143174
C41   C     C_R   0.504644 0.373011 0.671244 -0.143101
C42   C     C_R   0.516869 0.374621 0.278668 -0.054810
C43   C     C_R   0.504625 0.373684 0.721391 -0.054486
C44   C     C_R   0.503097 0.501330 0.253653 0.244165
C45   C     C_R   0.389486 0.517535 0.127732 0.024923
C46   C     C_R   0.499024 0.501275 0.746431 0.239610
C47   C     C_3   0.105261 0.666312 0.118574 0.022158
C48   C     C_3   0.152590 0.778093 0.153786 -0.248271
C49   C     C_3   0.085654 0.917780 0.146841 -0.474157
C50   C     C_3   0.919045 0.536914 0.878656 0.023655
C51   C     C_3   0.882573 0.667240 0.849147 -0.257602
C52   C     C_3   0.981016 0.781763 0.851961 -0.475768
C53   C     C_R   0.613641 0.477382 0.872211 0.024078
C54   C     C_R   0.277859 0.531887 0.102123 0.276084
C55   C     C_R   0.724506 0.454791 0.897531 0.278679
C56   C     C_R   0.613888 0.494961 0.127610 0.025321
Cu1   Cu    Cu3+1 0.500000 0.640660 0.500000 0.942310
Cu2   Cu    Cu3+1 0.500000 0.359340 0.500000 0.942488
H1    H     H_    0.526206 0.274612 0.347445 0.128813
H2    H     H_    0.475901 0.726077 0.347819 0.126057
H3    H     H_    0.489486 0.727245 0.740298 0.124282
H4    H     H_    0.477285 0.725605 0.259644 0.115402
H5    H     H_    0.204225 0.599947 0.879491 0.137107
H6    H     H_    0.812597 0.479696 0.121397 0.166580
H7    H     H_    0.200733 0.600931 0.964557 0.092196
H8    H     H_    0.817172 0.482241 0.036312 0.100522
H9    H     H_    0.191043 0.524694 0.034380 0.108688
H10   H     H_    0.808551 0.422978 0.964884 0.113735
H11   H     H_    0.111741 0.272212 0.499947 0.129309
H12   H     H_    0.509177 0.273056 0.652651 0.127683
H13   H     H_    0.888259 0.727788 0.500054 0.129260
H14   H     H_    0.887965 0.272251 0.500039 0.129314
H15   H     H_    0.112035 0.727750 0.499961 0.129245
H16   H     H_    0.005208 0.649943 0.125379 0.157554
H17   H     H_    0.112718 0.705466 0.080940 0.098023
H18   H     H_    0.137709 0.741347 0.191272 0.216508
H19   H     H_    0.253097 0.794993 0.148168 0.160301
H20   H     H_    0.101161 0.958218 0.109849 0.154540
H21   H     H_    0.121604 0.996214 0.172889 0.170263
H22   H     H_    0.985007 0.904391 0.153058 0.160528
H23   H     H_    0.361434 0.130563 0.446496 0.109507
H24   H     H_    0.009185 0.498207 0.865085 0.173723
H25   H     H_    0.933671 0.565618 0.917035 0.095107
H26   H     H_    0.869784 0.637245 0.810889 0.220553
H27   H     H_    0.794231 0.710907 0.862925 0.152929
H28   H     H_    0.000296 0.809513 0.890017 0.145799
H29   H     H_    0.948029 0.877325 0.832975 0.170651
H30   H     H_    0.067389 0.745788 0.834336 0.180859
H31   H     H_    0.638558 0.869434 0.553507 0.108695
H32   H     H_    0.638555 0.130775 0.553509 0.108802
H33   H     H_    0.361447 0.869223 0.446489 0.107632
H34   H     H_    0.528029 0.276812 0.259198 0.124023
H35   H     H_    0.509023 0.275167 0.740850 0.130059
H36   H     H_    0.489496 0.727620 0.652180 0.129318
N1    N     N_R   0.502650 0.501986 0.202156 -0.410112
N2    N     N_R   0.500698 0.502272 0.797976 -0.408477
N3    N     N_R   0.500000 0.852070 0.500000 -0.224760
N4    N     N_R   0.500000 0.147930 0.500000 -0.225095
O1    O     O_R   0.319640 0.618740 0.500000 -0.508239
O2    O     O_2   0.708577 0.435453 0.795597 -0.450808
O3    O     O_2   0.291126 0.565665 0.798008 -0.507456
O4    O     O_2   0.718830 0.483593 0.202734 -0.490801
O5    O     O_3   0.165408 0.535671 0.126120 -0.515688
O6    O     O_3   0.833121 0.425534 0.873025 -0.514008
O7    O     O_R   0.680360 0.381260 0.500000 -0.508222
O8    O     O_R   0.680360 0.618740 0.500000 -0.507662
O9    O     O_R   0.319640 0.381260 0.500000 -0.507613
O10   O     O_R   0.500020 0.618770 0.430260 -0.503687
O11   O     O_R   0.499980 0.381230 0.569740 -0.503632
O12   O     O_R   0.499980 0.618770 0.569740 -0.504343
O13   O     O_R   0.500020 0.381230 0.430260 -0.504129
O14   O     O_2   0.287092 0.516941 0.204219 -0.448911

loop_
_geom_bond_atom_site_label_1
_geom_bond_atom_site_label_2
_ccdc_geom_bond_type
C2    C35   A    
C28   N3    A    
C27   N4    A    
C50   O6    S    
C23   C45   A    
Cu2   O11   S    
C48   H18   S    
Cu2   N4    S    
C17   O12   A    
C1    O1    A    
C23   C56   A    
C35   N2    A    
C30   N3    A    
C29   N4    A    
C21   H13   S    
C28   C29   A    
C24   C26   A    
C5    C11   A    
C12   O7    A    
C11   C14   A    
C24   H15   S    
C4    C41   A    
Cu1   O1    S    
C49   H20   S    
Cu2   O9    S    
Cu1   O12   S    
C3    C38   A    
C22   C25   A    
C15   H6    S    
C28   H31   S    
C2    C34   A    
C33   C56   A    
C40   C42   A    
Cu1   O8    S    
C40   H1    S    
C27   C30   A    
C41   C43   A    
C51   H27   S    
C42   C44   A    
C36   H4    S    
C33   N1    A    
C22   H14   S    
C29   H32   S    
C50   H25   S    
C13   H8    S    
C53   C55   A    
C47   O5    S    
Cu2   O13   S    
C54   O5    S    
C52   H30   S    
C16   O10   A    
C18   H9    S    
C55   O6    S    
C8    C18   A    
C33   O4    S    
C48   H19   S    
C39   H36   S    
C5    C9    A    
C47   C48   S    
C4    C39   A    
C27   H23   S    
C31   O14   S    
Cu1   N3    S    
C50   C51   S    
C19   H10   S    
C1    O9    A    
C38   H2    S    
C4    C17   S    
C48   C49   S    
C32   N2    A    
C20   C22   A    
C3    C40   A    
C7    C19   A    
C13   C15   A    
C9    C34   A    
C20   H11   S    
C36   C44   A    
C32   C53   A    
C49   H21   S    
C50   H24   S    
C19   C55   A    
C7    C9    A    
C21   C25   A    
C52   H29   S    
C47   H16   S    
C30   H33   S    
C35   O3    S    
C17   O11   A    
C45   C54   A    
C5    C8    A    
C37   H3    S    
C6    C7    A    
C10   C23   A    
C49   H22   S    
C12   C25   S    
Cu2   O7    S    
C15   C56   A    
C52   H28   S    
C47   H17   S    
C51   C52   S    
C37   C39   A    
C44   N1    S    
C6    C13   A    
C12   O8    A    
Cu1   Cu2   S    
C1    C26   S    
C20   C26   A    
C31   N1    A    
C14   H5    S    
C36   C38   A    
C43   H35   S    
C42   H34   S    
C2    C14   A    
C43   C46   A    
C6    C10   A    
C18   C54   A    
C32   O2    S    
Cu1   O10   S    
C46   N2    S    
C34   C53   A    
C8    C10   A    
C31   C45   A    
C21   C24   A    
C37   C46   A    
C51   H26   S    
C3    C16   S    
C11   H7    S    
C16   O13   A    
C41   H12   S    
