data_mof_unit_16374.cif
_audit_creation_date              2012-12-10T16:47:51-0500
_audit_creation_method            fapswitch 2.2
_symmetry_space_group_name_H-M    P1
_symmetry_Int_Tables_number       1
_space_group_crystal_system       triclinic
_cell_length_a                    7.809742
_cell_length_b                    8.565843
_cell_length_c                    10.697533
_cell_angle_alpha                 91.494332
_cell_angle_beta                  85.493227
_cell_angle_gamma                 93.540966
_cell_volume                      711.896400797

loop_
_atom_site_label
_atom_site_type_symbol
_atom_type_description
_atom_site_fract_x
_atom_site_fract_y
_atom_site_fract_z
_atom_type_partial_charge
Br1   Br    Br    0.961631 0.692875 0.647302 -0.429919
C1    C     C_R   0.545521 0.794535 0.496859 0.973676
C2    C     C_2   0.569479 0.958008 0.494993 -0.370836
C3    C     C_R   0.383568 0.654314 0.090020 0.135464
C4    C     C_R   0.204732 0.619698 0.104844 -0.140066
C5    C     C_R   0.091336 0.724603 0.064574 -0.127390
C6    C     C_R   0.155118 0.864645 0.009407 -0.081570
C7    C     C_R   0.332465 0.900357 0.994692 -0.138779
C8    C     C_R   0.446395 0.795995 0.034984 -0.129752
C9    C     C_2   0.430472 0.041937 0.504947 -0.371255
C10   C     C_R   0.500582 0.493655 0.736865 0.938816
C11   C     C_R   0.454454 0.205445 0.503065 0.942858
C12   C     C_R   0.500042 0.508087 0.262659 0.864713
C13   C     C_2   0.638688 0.489350 0.058245 -0.254111
C14   C     C_2   0.506145 0.542627 0.132039 -0.139078
C15   C     C_2   0.645957 0.497797 0.924112 -0.170638
C16   C     C_2   0.501019 0.472203 0.867513 -0.303494
H1    H     H_    0.739687 0.426969 0.095761 0.174228
H2    H     H_    0.381704 0.009022 0.952131 0.134830
H3    H     H_    0.583530 0.825423 0.023348 0.136769
H4    H     H_    0.770040 0.521893 0.872948 0.209890
H5    H     H_    0.379372 0.437629 0.918487 0.157747
H6    H     H_    0.700898 0.008745 0.485442 0.191485
H7    H     H_    0.299055 0.991172 0.514530 0.202296
H8    H     H_    0.012803 0.380386 0.406739 0.152083
H9    H     H_    0.153198 0.510600 0.145599 0.129434
H10   H     H_    0.953964 0.697223 0.075845 0.139425
H11   H     H_    0.067093 0.945499 0.978092 0.133005
N1    N     N_2   0.950320 0.457950 0.466680 -0.125137
N2    N     N_2   0.049680 0.542050 0.533320 0.055744
O1    O     O_R   0.389250 0.738570 0.508180 -0.594242
O2    O     O_R   0.678390 0.711630 0.486820 -0.583292
O3    O     O_R   0.355470 0.513470 0.691600 -0.596005
O4    O     O_R   0.644610 0.486520 0.670240 -0.583207
O5    O     O_R   0.321610 0.288370 0.513180 -0.638091
O6    O     O_R   0.610750 0.261430 0.491820 -0.617805
O7    O     O_R   0.355390 0.513480 0.329760 -0.640012
O8    O     O_R   0.644530 0.486530 0.308400 -0.631391
Zn1   Zn    Zn3+2 0.306940 0.517990 0.514260 1.003105
Zn2   Zn    Zn3+2 0.693060 0.482010 0.485740 0.990502

loop_
_geom_bond_atom_site_label_1
_geom_bond_atom_site_label_2
_ccdc_geom_bond_type
O5    Zn1   S    
C15   H4    S    
C11   O6    A    
C13   H1    S    
C8    H3    S    
C2    H6    S    
C16   H5    S    
O6    Zn2   S    
C3    C14   S    
O2    Zn2   S    
C1    C2    S    
C6    C7    A    
O7    Zn1   S    
C2    C9    D    
O3    Zn1   S    
C11   O5    A    
O8    Zn2   S    
C12   O8    A    
N1    N2    D    
C9    C11   S    
O4    Zn2   S    
C3    C4    A    
N1    Zn2   S    
Br1   N2    S    
O1    Zn1   S    
N2    Zn1   S    
C5    C6    A    
C12   C14   S    
H8    N1    S    
C4    C5    A    
C13   C15   S    
C7    H2    S    
C15   C16   D    
C4    H9    S    
C10   O3    A    
C1    O2    A    
C13   C14   D    
C1    O1    A    
C9    H7    S    
C3    C8    A    
C12   O7    A    
C10   O4    A    
C10   C16   S    
C6    H11   S    
C5    H10   S    
C7    C8    A    
