data_mof_unit_39001.cif
_audit_creation_date              2012-12-10T17:56:21-0500
_audit_creation_method            fapswitch 2.2
_symmetry_space_group_name_H-M    P1
_symmetry_Int_Tables_number       1
_space_group_crystal_system       triclinic
_cell_length_a                    12.983787
_cell_length_b                    10.821142
_cell_length_c                    9.641892
_cell_angle_alpha                 89.701758
_cell_angle_beta                  96.213504
_cell_angle_gamma                 92.30537
_cell_volume                      1345.63148414

loop_
_atom_site_label
_atom_site_type_symbol
_atom_type_description
_atom_site_fract_x
_atom_site_fract_y
_atom_site_fract_z
_atom_type_partial_charge
C1    C     C_R   0.499855 0.262451 0.500150 0.783326
C2    C     C_R   0.500145 0.737549 0.499850 0.783325
C3    C     C_R   0.500050 0.871596 0.499773 -0.034462
C4    C     C_R   0.499951 0.128404 0.500227 -0.034462
C5    C     C_R   0.431639 0.425529 0.065223 0.463897
C6    C     C_R   0.568361 0.574471 0.934777 0.463895
C7    C     C_R   0.429564 0.427275 0.917879 0.127978
C8    C     C_R   0.570436 0.572723 0.082121 0.127979
C9    C     C_R   0.301238 0.501158 0.473720 0.814738
C10   C     C_R   0.698762 0.498842 0.526280 0.814737
C11   C     C_R   0.811302 0.502172 0.541631 -0.129772
C12   C     C_R   0.188698 0.497828 0.458369 -0.129773
C13   C     C_R   0.030517 0.391485 0.360192 0.157260
C14   C     C_R   0.969483 0.608515 0.639808 0.157260
C15   C     C_R   0.137100 0.411382 0.367030 -0.272633
C16   C     C_R   0.862900 0.588618 0.632970 -0.272634
C17   C     C_R   0.133312 0.573480 0.539858 0.125762
C18   C     C_R   0.866688 0.426520 0.460141 0.125761
C19   C     C_R   0.026109 0.546334 0.545445 0.057136
C20   C     C_R   0.973891 0.453666 0.454555 0.057136
C21   C     C_R   0.502682 0.064675 0.374534 -0.138191
C22   C     C_R   0.497318 0.935325 0.625466 -0.138191
C23   C     C_R   0.502692 0.936841 0.374308 -0.186598
C24   C     C_R   0.497308 0.063159 0.625692 -0.186598
Cu1   Cu    Cu3+1 0.500000 0.500020 0.640660 0.989605
Cu2   Cu    Cu3+1 0.500000 0.499980 0.359340 0.989604
H1    H     H_    0.819904 0.643288 0.698702 0.218306
H2    H     H_    0.180096 0.356712 0.301298 0.218306
H3    H     H_    0.504914 0.113253 0.276335 0.186675
H4    H     H_    0.495086 0.886747 0.723665 0.186676
H5    H     H_    0.504840 0.889472 0.276041 0.162940
H6    H     H_    0.495161 0.110528 0.723959 0.162938
N1    N     N_R   0.500030 0.500030 0.852080 -0.249507
N2    N     N_R   0.499970 0.499970 0.147920 -0.249508
O1    O     O_R   0.499990 0.319660 0.618740 -0.607948
O2    O     O_R   0.500010 0.680340 0.381260 -0.607949
O3    O     O_R   0.499990 0.319630 0.381170 -0.540284
O4    O     O_R   0.500010 0.680370 0.618830 -0.540284
O5    O     O_R   0.349000 0.499990 0.599490 -0.597587
O6    O     O_R   0.651000 0.500010 0.400510 -0.597589
O7    O     O_R   0.348990 0.499960 0.361920 -0.524942
O8    O     O_R   0.651010 0.500040 0.638080 -0.524942
N3    N     N_3   0.816896 0.318611 0.390221 -0.529377
H7    H     H_    0.739932 0.304485 0.409920 0.210866
H8    H     H_    0.853754 0.241501 0.434815 0.224081
N4    N     N_3   0.183104 0.681389 0.609778 -0.529376
H9    H     H_    0.260068 0.695516 0.590079 0.210866
H10   H     H_    0.146245 0.758499 0.565185 0.224081
N5    N     N_3   0.981080 0.308949 0.255216 -0.544978
H11   H     H_    0.013614 0.222377 0.270068 0.224180
H12   H     H_    0.997344 0.342346 0.157634 0.241161
N6    N     N_3   0.018920 0.691050 0.744784 -0.544977
H13   H     H_    0.002657 0.657653 0.842366 0.241161
H14   H     H_    0.986387 0.777623 0.729932 0.224180
Cl1   Cl    Cl    0.344858 0.322354 0.139654 -0.621144
Cl2   Cl    Cl    0.655142 0.677646 0.860346 -0.621144
N7    N     N_3   0.347477 0.355663 0.841391 -0.529324
H15   H     H_    0.290006 0.413644 0.798922 0.260979
H16   H     H_    0.374363 0.299783 0.767182 0.257861
N8    N     N_3   0.652527 0.644331 0.158610 -0.529320
H17   H     H_    0.709998 0.586346 0.201071 0.260975
H18   H     H_    0.625645 0.700206 0.232827 0.257864

loop_
_geom_bond_atom_site_label_1
_geom_bond_atom_site_label_2
_ccdc_geom_bond_type
C12   C17   A    
Cu1   O8    S    
N3    H7    S    
C24   H6    S    
Cu2   O3    S    
C8    N8    S    
Cu1   O4    S    
C10   O8    A    
N3    H8    S    
C11   C16   A    
C2    O4    A    
C9    O7    A    
C19   C20   A    
C12   C15   A    
C1    O3    A    
C1    C4    S    
C5    N2    A    
C16   H1    S    
C13   C15   A    
C2    C3    S    
C15   H2    S    
C17   N4    S    
C11   C18   A    
C6    N1    A    
C8    N2    A    
C18   N3    S    
Cu1   O5    S    
C7    N7    S    
C4    C21   A    
C7    N1    A    
Cu2   O6    S    
N7    H15   S    
C21   H3    S    
Cu1   O1    S    
C13   N5    S    
N8    H18   S    
C17   C19   A    
N6    H14   S    
C22   C24   A    
C21   C23   A    
C4    C24   A    
C9    C12   S    
C14   C16   A    
N7    H16   S    
Cu1   N1    S    
C10   C11   S    
N4    H10   S    
C9    O5    A    
N6    H13   S    
C1    O1    A    
C18   C20   A    
C10   O6    A    
N5    H11   S    
C2    O2    A    
C5    C7    A    
N4    H9    S    
C3    C22   A    
C6    C8    A    
C22   H4    S    
C13   C20   A    
Cu2   N2    S    
Cu1   Cu2   S    
C3    C23   A    
C14   C19   A    
C5    Cl1   S    
C14   N6    S    
Cu2   O2    S    
Cu2   O7    S    
C6    Cl2   S    
N8    H17   S    
N5    H12   S    
C23   H5    S    
