data_mof_unit_43722.cif
_audit_creation_date              2013-03-05T15:50:23-0500
_audit_creation_method            fapswitch 2.2
_symmetry_space_group_name_H-M    P1
_symmetry_Int_Tables_number       1
_space_group_crystal_system       triclinic
_cell_length_a                    18.480685
_cell_length_b                    25.965014
_cell_length_c                    18.15391
_cell_angle_alpha                 89.897431
_cell_angle_beta                  89.915308
_cell_angle_gamma                 89.616853
_cell_volume                      8710.95821533

loop_
_atom_site_label
_atom_site_type_symbol
_atom_site_description
_atom_site_fract_x
_atom_site_fract_y
_atom_site_fract_z
_atom_type_partial_charge
Zn1   Zn    Zn3+2 0.249990 0.293780 0.913250 1.034673
Zn2   Zn    Zn3+2 0.249990 0.706220 0.086750 1.052244
Zn3   Zn    Zn3+2 0.249990 0.706220 0.913250 1.077136
Zn4   Zn    Zn3+2 0.249990 0.293780 0.086750 1.035146
Zn5   Zn    Zn3+2 0.749990 0.793780 0.413250 1.054962
Zn6   Zn    Zn3+2 0.749990 0.206220 0.586750 1.024609
Zn7   Zn    Zn3+2 0.749990 0.206220 0.413250 1.058182
Zn8   Zn    Zn3+2 0.749990 0.793780 0.586750 1.058439
Zn9   Zn    Zn3+2 0.336760 0.206240 0.000000 0.968845
Zn10  Zn    Zn3+2 0.336760 0.793760 0.000000 0.957245
Zn11  Zn    Zn3+2 0.836760 0.706240 0.500000 0.951580
Zn12  Zn    Zn3+2 0.836760 0.293760 0.500000 0.978530
Zn13  Zn    Zn3+2 0.163250 0.206230 0.000000 0.966852
Zn14  Zn    Zn3+2 0.163250 0.793770 0.000000 0.969858
Zn15  Zn    Zn3+2 0.663250 0.706230 0.500000 0.966353
Zn16  Zn    Zn3+2 0.663250 0.293770 0.500000 0.967713
O1    O     O_3   0.249990 0.250010 0.000000 -0.509443
O2    O     O_3   0.249990 0.749990 0.000000 -0.522464
O3    O     O_3   0.749990 0.750010 0.500000 -0.519293
O4    O     O_3   0.749990 0.249990 0.500000 -0.515909
O5    O     O_R   0.335430 0.280650 0.146160 -0.620904
O6    O     O_R   0.335430 0.719350 0.853840 -0.603626
O7    O     O_R   0.335430 0.719350 0.146160 -0.607383
O8    O     O_R   0.335430 0.280650 0.853840 -0.617665
O9    O     O_R   0.835430 0.780650 0.646160 -0.615710
O10   O     O_R   0.835430 0.219350 0.353840 -0.630872
O11   O     O_R   0.835430 0.219350 0.646160 -0.650186
O12   O     O_R   0.835430 0.780650 0.353840 -0.611159
O13   O     O_R   0.164550 0.280640 0.853840 -0.641516
O14   O     O_R   0.164550 0.719360 0.146160 -0.626682
O15   O     O_R   0.164550 0.719360 0.853840 -0.598271
O16   O     O_R   0.164550 0.280640 0.146160 -0.652306
O17   O     O_R   0.664550 0.780640 0.353840 -0.615712
O18   O     O_R   0.664550 0.219360 0.646160 -0.635961
O19   O     O_R   0.664550 0.219360 0.353840 -0.602155
O20   O     O_R   0.664550 0.780640 0.646160 -0.617044
O21   O     O_R   0.396160 0.219380 0.914560 -0.639740
O22   O     O_R   0.396160 0.780620 0.085440 -0.641011
O23   O     O_R   0.396160 0.780620 0.914560 -0.640467
O24   O     O_R   0.396160 0.219380 0.085440 -0.643797
O25   O     O_R   0.896160 0.719380 0.414560 -0.641281
O26   O     O_R   0.896160 0.280620 0.585440 -0.626501
O27   O     O_R   0.896160 0.280620 0.414560 -0.635204
O28   O     O_R   0.896160 0.719380 0.585440 -0.649209
O29   O     O_R   0.103840 0.219370 0.085450 -0.635529
O30   O     O_R   0.103840 0.780630 0.914550 -0.647419
O31   O     O_R   0.103840 0.780630 0.085450 -0.634369
O32   O     O_R   0.103840 0.219370 0.914550 -0.647542
O33   O     O_R   0.603840 0.719370 0.585450 -0.637120
O34   O     O_R   0.603840 0.280630 0.414550 -0.646297
O35   O     O_R   0.603840 0.280630 0.585450 -0.630149
O36   O     O_R   0.603840 0.719370 0.414550 -0.638149
O37   O     O_R   0.310730 0.133160 0.000000 -0.637123
O38   O     O_R   0.310730 0.866840 0.000000 -0.642051
O39   O     O_R   0.810730 0.633160 0.500000 -0.645039
O40   O     O_R   0.810730 0.366840 0.500000 -0.625217
O41   O     O_R   0.249970 0.366860 0.060720 -0.589163
O42   O     O_R   0.249970 0.633140 0.939280 -0.577291
O43   O     O_R   0.249970 0.633140 0.060720 -0.606546
O44   O     O_R   0.249970 0.366860 0.939280 -0.612931
O45   O     O_R   0.749970 0.866860 0.560720 -0.580098
O46   O     O_R   0.749970 0.133140 0.439280 -0.582112
O47   O     O_R   0.749970 0.133140 0.560720 -0.604347
O48   O     O_R   0.749970 0.866860 0.439280 -0.598639
O49   O     O_R   0.189290 0.133150 0.000000 -0.643702
O50   O     O_R   0.189290 0.866850 0.000000 -0.629874
O51   O     O_R   0.689290 0.633150 0.500000 -0.634816
O52   O     O_R   0.689290 0.366850 0.500000 -0.647427
C1    C     C_R   0.390349 0.250632 0.139360 0.788502
C2    C     C_R   0.389436 0.750029 0.859694 0.769574
C3    C     C_R   0.389642 0.749708 0.140015 0.784712
C4    C     C_R   0.388458 0.249293 0.859000 0.779772
C5    C     C_R   0.889226 0.749732 0.640263 0.785248
C6    C     C_R   0.889914 0.248976 0.360305 0.761093
C7    C     C_R   0.889431 0.248998 0.640855 0.812832
C8    C     C_R   0.889418 0.749632 0.359746 0.778895
C9    C     C_R   0.109890 0.251937 0.860046 0.819856
C10   C     C_R   0.111375 0.751065 0.141035 0.802083
C11   C     C_R   0.110537 0.750191 0.859561 0.812070
C12   C     C_R   0.110973 0.250756 0.141182 0.828316
C13   C     C_R   0.611495 0.749401 0.358986 0.816003
C14   C     C_R   0.612822 0.251962 0.642705 0.808252
C15   C     C_R   0.610494 0.250063 0.359866 0.817733
C16   C     C_R   0.613415 0.747338 0.642447 0.793488
C17   C     C_R   0.249952 0.109566 0.998227 0.807227
C18   C     C_R   0.250179 0.890805 0.000159 0.806615
C19   C     C_R   0.750821 0.609408 0.503179 0.801198
C20   C     C_R   0.749194 0.390712 0.501301 0.801040
C21   C     C_R   0.248976 0.391329 0.000018 1.040268
C22   C     C_R   0.250033 0.608821 0.999823 1.029288
C23   C     C_R   0.748945 0.891230 0.500227 1.025667
C24   C     C_R   0.748601 0.108739 0.500007 1.025250
C25   C     C_3   0.193104 0.470995 0.058594 0.058652
C26   C     C_3   0.227910 0.529655 0.920679 0.056564
C27   C     C_3   0.194285 0.531286 0.059493 0.051804
C28   C     C_3   0.225216 0.469644 0.920764 0.037017
C29   C     C_3   0.708999 0.970680 0.572366 0.056204
C30   C     C_3   0.707701 0.029438 0.429563 0.053583
C31   C     C_3   0.706553 0.031002 0.571808 0.044749
C32   C     C_3   0.706348 0.969237 0.429895 0.045683
H1    H     H_    0.212435 0.459305 0.113680 0.212988
H2    H     H_    0.272552 0.539371 0.882384 0.197988
H3    H     H_    0.215881 0.542257 0.113584 0.186615
H4    H     H_    0.266500 0.456341 0.881081 0.176211
H5    H     H_    0.743926 0.960420 0.619775 0.199242
H6    H     H_    0.741062 0.039654 0.381149 0.204891
H7    H     H_    0.737649 0.043692 0.620227 0.174534
H8    H     H_    0.737594 0.956680 0.381246 0.179316
C33   C     C_3   0.330173 0.468754 0.015860 0.256009
C34   C     C_3   0.329797 0.531196 0.020833 0.243349
C35   C     C_3   0.830434 0.968579 0.496542 0.255888
C36   C     C_3   0.830047 0.030633 0.504697 0.273269
C37   C     C_3   0.248479 0.448970 0.999788 -0.407248
C38   C     C_3   0.249624 0.551441 0.999372 -0.400438
C39   C     C_3   0.747752 0.948703 0.500712 -0.399169
C40   C     C_3   0.747326 0.051181 0.500491 -0.394538
H9    H     H_    0.877205 0.239903 0.983828 0.192629
H10   H     H_    0.951021 0.608449 0.095211 0.199980
H11   H     H_    0.881770 0.703433 0.973374 0.191751
H12   H     H_    0.082527 0.073740 0.232301 0.185935
H13   H     H_    0.393642 0.825502 0.460985 0.171488
H14   H     H_    0.424408 0.134231 0.564863 0.160730
H15   H     H_    0.383344 0.195345 0.468668 0.148297
H16   H     H_    0.440299 0.879608 0.579838 0.169665
C41   C     C_R   0.135254 0.288345 0.702107 0.037700
C42   C     C_R   0.108533 0.832715 0.260361 0.094206
C43   C     C_R   0.143693 0.778586 0.703464 0.129083
C44   C     C_R   0.071926 0.345141 0.238290 0.090797
C45   C     C_R   0.643337 0.709031 0.205972 0.099339
C46   C     C_R   0.632100 0.302562 0.791612 0.040400
C47   C     C_R   0.645877 0.282953 0.205673 0.108211
C48   C     C_R   0.614174 0.668674 0.766793 0.069093
C49   C     C_R   0.159892 0.274792 0.630805 0.330472
C50   C     C_R   0.099816 0.870763 0.315893 0.359750
C51   C     C_R   0.161170 0.778524 0.627588 0.383804
C52   C     C_R   0.030760 0.391455 0.247577 0.367025
C53   C     C_R   0.655946 0.697563 0.130562 0.383548
C54   C     C_R   0.630810 0.339271 0.850020 0.318349
C55   C     C_R   0.662523 0.286149 0.129548 0.372578
C56   C     C_R   0.615566 0.638327 0.832102 0.360378
C57   C     C_R   0.598776 0.698254 0.081148 -0.232076
C58   C     C_R   0.566894 0.346319 0.889714 -0.192210
C59   C     C_R   0.606965 0.283648 0.078137 -0.235476
C60   C     C_R   0.561051 0.643843 0.884230 -0.187393
C61   C     C_R   0.112286 0.250257 0.582768 -0.243567
C62   C     C_R   0.048367 0.864217 0.370778 -0.161983
C63   C     C_R   0.106001 0.775504 0.576076 -0.236619
C64   C     C_R   0.956818 0.387567 0.263635 -0.217901
C65   C     C_R   0.530234 0.712675 0.103593 -0.169717
C66   C     C_R   0.506903 0.316599 0.875279 -0.185297
C67   C     C_R   0.536367 0.275268 0.100268 -0.183090
C68   C     C_R   0.506128 0.679407 0.874461 -0.181243
C69   C     C_R   0.041138 0.241500 0.603870 -0.163482
C70   C     C_R   0.000883 0.823520 0.368286 -0.180764
C71   C     C_R   0.035148 0.769717 0.598863 -0.184993
C72   C     C_R   0.926926 0.340164 0.280527 -0.167546
C73   C     C_R   0.516725 0.730332 0.175924 0.046259
C74   C     C_R   0.505425 0.282434 0.815139 0.037620
C75   C     C_R   0.519177 0.264065 0.174474 0.046325
C76   C     C_R   0.504450 0.712359 0.812592 0.037116
C77   C     C_R   0.018050 0.251443 0.676683 0.050776
C78   C     C_R   0.001135 0.788507 0.309046 0.022602
C79   C     C_R   0.017709 0.760467 0.673838 0.049645
C80   C     C_R   0.968075 0.294673 0.272772 0.060624
C81   C     C_R   0.069239 0.266785 0.729211 0.007502
C82   C     C_R   0.056562 0.791221 0.254773 0.020609
C83   C     C_R   0.072998 0.763157 0.727488 0.017794
C84   C     C_R   0.034903 0.296781 0.236523 0.006182
C85   C     C_R   0.573503 0.729310 0.228815 0.012952
C86   C     C_R   0.565935 0.278869 0.767755 0.021787
C87   C     C_R   0.574551 0.266443 0.228600 0.017588
C88   C     C_R   0.560106 0.708974 0.758487 0.014223
C89   C     C_R   0.446793 0.748414 0.195542 -0.096779
C90   C     C_R   0.444693 0.251041 0.803173 -0.095507
C91   C     C_R   0.447299 0.251220 0.194981 -0.106169
C92   C     C_R   0.447192 0.748301 0.804475 -0.091240
C93   C     C_R   0.945508 0.244592 0.698026 -0.126689
C94   C     C_R   0.947273 0.750204 0.305144 -0.093632
C95   C     C_R   0.945704 0.750303 0.695787 -0.099848
C96   C     C_R   0.945519 0.247687 0.303289 -0.100456
C97   C     C_R   0.432190 0.767708 0.266540 0.075578
C98   C     C_R   0.439003 0.219989 0.740022 0.081051
C99   C     C_R   0.429866 0.237329 0.267952 0.076281
C100  C     C_R   0.445490 0.783055 0.744812 0.079738
C101  C     C_R   0.927430 0.239094 0.774232 0.090398
C102  C     C_R   0.949414 0.711650 0.250863 0.083070
C103  C     C_R   0.927985 0.739421 0.769905 0.058039
C104  C     C_R   0.982446 0.201220 0.285821 0.035172
C105  C     C_R   0.980322 0.250340 0.827638 0.066157
C106  C     C_R   0.003445 0.713273 0.196238 0.043874
C107  C     C_R   0.983273 0.738772 0.823315 0.070286
C108  C     C_R   0.038728 0.202079 0.233091 0.077621
C109  C     C_R   0.487643 0.768148 0.319586 0.063475
C110  C     C_R   0.495328 0.220366 0.687535 0.064435
C111  C     C_R   0.484528 0.237294 0.321947 0.065468
C112  C     C_R   0.501495 0.782382 0.692395 0.060043
C113  C     C_R   0.052175 0.259343 0.805356 -0.149265
C114  C     C_R   0.056812 0.752289 0.198566 -0.091929
C115  C     C_R   0.055099 0.751288 0.802393 -0.104764
C116  C     C_R   0.061908 0.249940 0.204851 -0.152217
C117  C     C_R   0.557234 0.748471 0.301225 -0.101517
C118  C     C_R   0.557896 0.250343 0.700638 -0.107905
C119  C     C_R   0.556005 0.251974 0.302393 -0.105966
C120  C     C_R   0.558300 0.745935 0.699324 -0.092186
C121  C     C_R   0.363416 0.788311 0.285093 -0.176680
C122  C     C_R   0.377654 0.188749 0.727767 -0.096579
C123  C     C_R   0.359074 0.221359 0.287757 -0.161817
C124  C     C_R   0.388337 0.818723 0.736284 -0.106010
C125  C     C_R   0.859435 0.221225 0.800000 -0.163605
C126  C     C_R   0.898434 0.671132 0.250010 -0.131702
C127  C     C_R   0.856273 0.727282 0.791709 -0.154164
C128  C     C_R   0.965551 0.154016 0.320317 -0.109376
C129  C     C_R   0.349618 0.808613 0.354639 -0.098002
C130  C     C_R   0.372625 0.158242 0.664995 -0.102728
C131  C     C_R   0.342655 0.206864 0.359608 -0.110904
C132  C     C_R   0.386362 0.853158 0.677271 -0.059568
C133  C     C_R   0.842350 0.220533 0.874862 -0.147211
C134  C     C_R   0.899536 0.634134 0.194586 -0.052263
C135  C     C_R   0.839814 0.715644 0.864688 -0.039907
C136  C     C_R   0.000261 0.108365 0.299684 -0.020925
C137  C     C_R   0.891536 0.238422 0.926016 -0.043935
C138  C     C_R   0.950844 0.636788 0.138878 0.001006
C139  C     C_R   0.894373 0.713660 0.916955 -0.084342
C140  C     C_R   0.054535 0.109056 0.246898 -0.151039
C141  C     C_R   0.404102 0.809317 0.407066 -0.057400
C142  C     C_R   0.428097 0.158341 0.613272 -0.094264
C143  C     C_R   0.396204 0.206888 0.412948 -0.075081
C144  C     C_R   0.441708 0.852940 0.625738 -0.059876
C145  C     C_R   0.959907 0.253323 0.902901 -0.093718
C146  C     C_R   0.002391 0.675663 0.139478 -0.131531
C147  C     C_R   0.965377 0.724400 0.896733 -0.130116
C148  C     C_R   0.074714 0.155414 0.214738 -0.160448
C149  C     C_R   0.472408 0.789668 0.390043 -0.113370
C150  C     C_R   0.488574 0.189245 0.623773 -0.090045
C151  C     C_R   0.466463 0.221175 0.394602 -0.108415
C152  C     C_R   0.498712 0.818079 0.632799 -0.091208
H17   H     H_    0.607626 0.688113 0.024032 0.182794
H18   H     H_    0.564288 0.373199 0.935189 0.233485
H19   H     H_    0.618323 0.288306 0.019988 0.190284
H20   H     H_    0.561215 0.620253 0.933513 0.222884
H21   H     H_    0.129114 0.240084 0.527491 0.189107
H22   H     H_    0.043579 0.891874 0.415154 0.235032
H23   H     H_    0.117618 0.778664 0.517736 0.193831
H24   H     H_    0.923457 0.421688 0.270218 0.196182
H25   H     H_    0.488302 0.711015 0.062206 0.162069
H26   H     H_    0.461099 0.321118 0.911738 0.194171
H27   H     H_    0.495971 0.276159 0.057328 0.171746
H28   H     H_    0.465326 0.681154 0.917216 0.168151
H29   H     H_    0.005238 0.224550 0.563690 0.169567
H30   H     H_    0.962735 0.820426 0.413264 0.180298
H31   H     H_    0.994965 0.771628 0.555875 0.175533
H32   H     H_    0.871629 0.339390 0.300347 0.152241
H33   H     H_    0.319988 0.789609 0.245736 0.123329
H34   H     H_    0.333049 0.187600 0.766418 0.109667
H35   H     H_    0.315635 0.219102 0.248122 0.126200
H36   H     H_    0.344411 0.819315 0.774888 0.115069
H37   H     H_    0.818674 0.205583 0.764912 0.194013
H38   H     H_    0.857536 0.667439 0.292299 0.115357
H39   H     H_    0.812055 0.726116 0.752966 0.141481
H40   H     H_    0.926572 0.152186 0.364310 0.200086
H41   H     H_    0.789946 0.207012 0.893001 0.164421
H42   H     H_    0.860182 0.603494 0.194585 0.146840
H43   H     H_    0.784599 0.707469 0.880556 0.192068
H44   H     H_    0.985968 0.072261 0.325190 0.237148
H45   H     H_    0.296675 0.824318 0.367546 0.176689
H46   H     H_    0.325546 0.134388 0.656549 0.141662
H47   H     H_    0.288295 0.195036 0.373729 0.147052
H48   H     H_    0.341533 0.879770 0.670865 0.137328
H49   H     H_    0.996342 0.267746 0.944527 0.159937
H50   H     H_    0.041062 0.675876 0.094758 0.160476
H51   H     H_    0.005643 0.720796 0.939560 0.147440
H52   H     H_    0.120697 0.154211 0.177941 0.141880
H53   H     H_    0.512988 0.792265 0.432705 0.139614
H54   H     H_    0.530234 0.187765 0.581901 0.148994
H55   H     H_    0.506088 0.218843 0.438209 0.136974
H56   H     H_    0.540015 0.819421 0.590564 0.145711
H57   H     H_    0.176586 0.040465 0.748178 0.167521
H58   H     H_    0.203081 0.950164 0.747164 0.163559
H59   H     H_    0.807825 0.540110 0.755061 0.216128
H60   H     H_    0.752257 0.457408 0.760303 0.232082
C153  C     C_R   0.282735 0.054412 0.127965 -0.211307
C154  C     C_R   0.288953 0.947672 0.127925 -0.164142
C155  C     C_R   0.721879 0.554554 0.371254 -0.196917
C156  C     C_R   0.711100 0.447985 0.372549 -0.198844
C157  C     C_R   0.302955 0.028575 0.192508 0.246301
C158  C     C_R   0.307612 0.974395 0.192125 0.277142
C159  C     C_R   0.700093 0.529024 0.307141 0.225175
C160  C     C_R   0.692777 0.475139 0.308362 0.226101
C161  C     C_R   0.269117 0.973775 0.062200 0.019972
C162  C     C_R   0.267422 0.027718 0.061673 0.026588
C163  C     C_R   0.731671 0.473709 0.438004 0.023663
C164  C     C_R   0.735454 0.527641 0.437933 0.036199
C165  C     C_R   0.252626 0.946850 0.996947 -0.091049
C166  C     C_R   0.249528 0.054223 0.995735 -0.085845
C167  C     C_R   0.744946 0.446576 0.504151 -0.090822
C168  C     C_R   0.754025 0.553665 0.503772 -0.090026
C169  C     C_R   0.240427 0.973234 0.929097 0.023002
C170  C     C_R   0.233287 0.027895 0.928742 0.012967
C171  C     C_R   0.752234 0.472938 0.572352 0.022720
C172  C     C_R   0.768443 0.526374 0.570697 0.019947
C173  C     C_R   0.238417 0.946821 0.860366 0.202394
C174  C     C_R   0.212909 0.053026 0.860212 0.204957
C175  C     C_R   0.741088 0.448723 0.642473 0.153571
C176  C     C_R   0.795236 0.549709 0.637313 0.126096
C177  C     C_R   0.209229 0.970907 0.798536 -0.156436
C178  C     C_R   0.195549 0.022982 0.798928 -0.144086
C179  C     C_R   0.760125 0.474637 0.706762 -0.090118
C180  C     C_R   0.790036 0.522965 0.703876 -0.128446
H61   H     H_    0.279577 0.096021 0.130596 0.134687
H62   H     H_    0.291644 0.906066 0.129659 0.131866
H63   H     H_    0.727583 0.595947 0.368253 0.135083
H64   H     H_    0.706673 0.406500 0.371339 0.138584
C181  C     C_3   0.319255 0.060734 0.259613 -0.852679
H65   H     H_    0.364773 0.087107 0.247221 0.246536
H66   H     H_    0.270860 0.084221 0.274135 0.232129
H67   H     H_    0.334198 0.037638 0.308661 0.266553
C182  C     C_3   0.333252 0.944439 0.258507 -0.828994
H68   H     H_    0.336030 0.902430 0.247523 0.217853
H69   H     H_    0.388467 0.957020 0.274003 0.262024
H70   H     H_    0.295778 0.950744 0.305460 0.287121
C183  C     C_3   0.685304 0.560811 0.239122 -0.836561
H71   H     H_    0.643469 0.590426 0.251508 0.252328
H72   H     H_    0.736037 0.579695 0.221644 0.229830
H73   H     H_    0.665957 0.538197 0.191557 0.275899
C184  C     C_3   0.664323 0.446192 0.242724 -0.828173
H74   H     H_    0.655363 0.405131 0.255459 0.233530
H75   H     H_    0.610979 0.462260 0.226022 0.276552
H76   H     H_    0.703163 0.448871 0.196177 0.261918
N1    N     N_R   0.120286 0.448198 0.052321 0.284660
O53   O     O_R   0.068288 0.470097 0.015237 -0.214888
O54   O     O_R   0.107655 0.403824 0.082982 -0.375012
N2    N     N_R   0.162654 0.554098 0.888793 0.277355
O55   O     O_R   0.097873 0.541340 0.909708 -0.230845
O56   O     O_R   0.169215 0.583344 0.830874 -0.312999
N3    N     N_R   0.122039 0.556087 0.062189 0.275648
O57   O     O_R   0.107274 0.597753 0.025104 -0.408567
O58   O     O_R   0.079930 0.545042 0.117511 -0.295938
N4    N     N_R   0.158258 0.448682 0.887700 0.281043
O59   O     O_R   0.124438 0.409453 0.915669 -0.337939
O60   O     O_R   0.144105 0.460355 0.819401 -0.327155
N5    N     N_R   0.638557 0.946500 0.588137 0.264712
O61   O     O_R   0.579274 0.961578 0.555852 -0.261248
O62   O     O_R   0.633545 0.913923 0.642457 -0.352700
N6    N     N_R   0.636514 0.053722 0.415673 0.266387
O63   O     O_R   0.577911 0.037987 0.448259 -0.250468
O64   O     O_R   0.630185 0.087321 0.362732 -0.344894
N7    N     N_R   0.634503 0.053615 0.588005 0.289557
O65   O     O_R   0.612891 0.096221 0.556981 -0.385297
O66   O     O_R   0.603439 0.041047 0.649857 -0.311849
N8    N     N_R   0.634585 0.946798 0.413847 0.289178
O67   O     O_R   0.612880 0.904619 0.445506 -0.380602
O68   O     O_R   0.603452 0.959410 0.352016 -0.313312
C185  C     C_3   0.281868 0.898877 0.846052 -0.898189
H77   H     H_    0.335861 0.901708 0.872376 0.268909
H78   H     H_    0.253215 0.864059 0.865043 0.227090
H79   H     H_    0.292509 0.895244 0.786512 0.215453
C186  C     C_3   0.209571 0.110547 0.846144 -0.871448
H80   H     H_    0.161697 0.127631 0.873611 0.275482
H81   H     H_    0.260863 0.129381 0.861982 0.216148
H82   H     H_    0.202904 0.119831 0.786731 0.211926
C187  C     C_3   0.699761 0.399291 0.652556 -0.792369
H83   H     H_    0.649485 0.400379 0.619313 0.259016
H84   H     H_    0.734323 0.365686 0.638472 0.211746
H85   H     H_    0.681268 0.394154 0.710121 0.256151
C188  C     C_3   0.836305 0.599782 0.641117 -0.777469
H86   H     H_    0.881560 0.599167 0.600910 0.275829
H87   H     H_    0.799817 0.633232 0.632952 0.211897
H88   H     H_    0.861797 0.605791 0.695825 0.236460
N9    N     N_R   0.362919 0.447644 0.084583 0.249584
O69   O     O_R   0.431940 0.453992 0.095585 -0.267089
O70   O     O_R   0.325865 0.425782 0.136752 -0.348235
N10   N     N_R   0.387443 0.552027 0.971927 0.237797
O71   O     O_R   0.454758 0.540994 0.986806 -0.263357
O72   O     O_R   0.374936 0.585323 0.919810 -0.400916
N11   N     N_R   0.348538 0.550589 0.096158 0.223909
O73   O     O_R   0.327892 0.528193 0.156812 -0.328823
O74   O     O_R   0.385541 0.592894 0.102730 -0.333220
N12   N     N_R   0.377381 0.448669 0.955207 0.218425
O75   O     O_R   0.386680 0.472506 0.892714 -0.345804
O76   O     O_R   0.405317 0.402724 0.961435 -0.407370
N13   N     N_R   0.878821 0.946214 0.553945 0.240463
O77   O     O_R   0.855977 0.918097 0.608413 -0.360453
O78   O     O_R   0.948071 0.954818 0.549657 -0.274237
N14   N     N_R   0.877691 0.052691 0.447150 0.224663
O79   O     O_R   0.853187 0.077118 0.389792 -0.424348
O80   O     O_R   0.947269 0.045182 0.452191 -0.316233
N15   N     N_R   0.861821 0.048507 0.576048 0.217111
O81   O     O_R   0.892245 0.093589 0.579145 -0.356229
O82   O     O_R   0.856607 0.022730 0.637431 -0.353045
N16   N     N_R   0.862124 0.950589 0.425116 0.219586
O83   O     O_R   0.890980 0.904824 0.421797 -0.394333
O84   O     O_R   0.856624 0.976153 0.363581 -0.350826
C189  C     C_3   0.163317 0.338399 0.733540 -0.585408
H89   H     H_    0.126099 0.354191 0.776081 0.263308
H90   H     H_    0.218243 0.333383 0.757163 0.277154
H91   H     H_    0.166338 0.368013 0.689402 0.231671
C190  C     C_3   0.175772 0.836380 0.212908 -0.858761
H92   H     H_    0.204643 0.799090 0.212189 0.206816
H93   H     H_    0.161824 0.849886 0.156749 0.266895
H94   H     H_    0.216395 0.863228 0.235298 0.240618
C191  C     C_3   0.194277 0.807188 0.753228 -0.875460
H95   H     H_    0.163208 0.829734 0.794465 0.226141
H96   H     H_    0.233112 0.780349 0.779614 0.264403
H97   H     H_    0.225023 0.836262 0.721456 0.232794
C192  C     C_3   0.151360 0.346125 0.258620 -0.638677
H98   H     H_    0.171642 0.307335 0.274690 0.212280
H99   H     H_    0.184448 0.361527 0.212617 0.301869
H100  H     H_    0.159495 0.370674 0.307933 0.236496
C193  C     C_3   0.703210 0.694564 0.259184 -0.856098
H101  H     H_    0.735934 0.728652 0.273288 0.278064
H102  H     H_    0.681593 0.674627 0.308364 0.202955
H103  H     H_    0.741161 0.666209 0.235148 0.234729
C194  C     C_3   0.703812 0.279100 0.770678 -0.802507
H104  H     H_    0.698883 0.236607 0.769941 0.238721
H105  H     H_    0.723535 0.294345 0.717383 0.227850
H106  H     H_    0.745250 0.285854 0.813137 0.273652
C195  C     C_3   0.702141 0.304196 0.258126 -0.838082
H107  H     H_    0.677052 0.324103 0.305623 0.193971
H108  H     H_    0.739887 0.273430 0.276177 0.280262
H109  H     H_    0.735158 0.334412 0.231077 0.242691
C196  C     C_3   0.665000 0.653050 0.705202 -0.831527
H110  H     H_    0.633494 0.644195 0.655080 0.260484
H111  H     H_    0.706019 0.683234 0.695385 0.197619
H112  H     H_    0.694537 0.616741 0.716186 0.264505
N17   N     N_R   0.231379 0.288087 0.605660 0.209592
O85   O     O_R   0.245505 0.290898 0.535505 -0.383894
O86   O     O_R   0.284596 0.291642 0.652185 -0.388076
N18   N     N_R   0.141879 0.917143 0.316401 0.194408
O87   O     O_R   0.163504 0.936570 0.378568 -0.387161
O88   O     O_R   0.146888 0.944832 0.256798 -0.395483
N19   N     N_R   0.234745 0.783100 0.602676 0.200069
O89   O     O_R   0.249257 0.805184 0.540000 -0.419109
O90   O     O_R   0.286141 0.758600 0.637208 -0.374265
N20   N     N_R   0.063069 0.442121 0.246634 0.241787
O91   O     O_R   0.024953 0.482434 0.265139 -0.344475
O92   O     O_R   0.129563 0.449137 0.225762 -0.354449
N21   N     N_R   0.727160 0.685707 0.102980 0.186313
O93   O     O_R   0.781678 0.714534 0.120954 -0.404216
O94   O     O_R   0.735703 0.651562 0.051228 -0.377728
N22   N     N_R   0.694014 0.367972 0.872313 0.222272
O95   O     O_R   0.748213 0.375001 0.827757 -0.414360
O96   O     O_R   0.694705 0.391810 0.935334 -0.299825
N23   N     N_R   0.735807 0.292362 0.103813 0.200430
O97   O     O_R   0.788986 0.268915 0.137116 -0.395527
O98   O     O_R   0.748582 0.315234 0.041346 -0.343884
N24   N     N_R   0.672121 0.601380 0.846633 0.203070
O99   O     O_R   0.656546 0.557067 0.876053 -0.312143
O100  O     O_R   0.739604 0.614980 0.842071 -0.419141

loop_
_geom_bond_atom_site_label_1
_geom_bond_atom_site_label_2
_geom_bond_distance
_ccdc_geom_bond_type
C127  H39   1.079584 S    
C186  H80   1.105620 S    
N17   O85   1.301707 A    
C163  C164  1.402558 A    
N21   O93   1.301449 A    
C47   C87   1.449076 A    
O26   C7    1.303728 A    
C166  C170  1.429436 A    
C190  H93   1.107752 S    
O30   C11   1.279705 A    
C111  C119  1.421637 A    
C109  C117  1.420109 A    
N10   O71   1.303303 A    
C108  C148  1.418238 A    
C170  C174  1.452794 A    
Zn12  O26   1.930130 S    
C73   C85   1.423433 A    
C145  H49   1.081923 S    
C74   C90   1.408873 A    
C98   C110  1.410213 A    
C112  C120  1.414270 A    
C63   C71   1.381688 A    
N1    O53   1.301239 A    
Zn3   O15   1.941478 S    
C29   H5    1.107638 S    
C122  C130  1.392551 A    
C59   C67   1.383089 A    
C176  C188  1.511572 S    
C191  H96   1.106046 S    
C194  H105  1.106853 S    
C45   C193  1.514896 S    
C32   C39   1.586673 S    
C110  C150  1.418985 A    
O11   C7    1.267901 A    
H57   C178  1.083989 S    
C185  H78   1.105119 S    
C31   N7    1.480943 S    
O34   C15   1.277372 A    
C185  H77   1.109926 S    
C133  C137  1.383503 A    
C50   C62   1.387244 A    
C187  H85   1.107113 S    
C21   C37   1.496640 S    
C36   N14   1.482099 S    
C59   H19   1.082717 S    
C44   C192  1.514589 S    
C80   C84   1.399899 A    
Zn1   O44   1.956296 S    
C25   H1    1.103790 S    
C31   C40   1.586971 S    
C14   C118  1.461325 S    
C71   H31   1.078916 S    
Zn2   O43   1.956301 S    
C167  C171  1.422795 A    
C128  C136  1.395525 A    
C6    C96   1.457741 S    
C161  C165  1.411303 A    
Zn5   O48   1.956296 S    
C69   C77   1.412116 A    
C106  C146  1.421143 A    
Zn6   O47   1.956301 S    
C102  C106  1.407029 A    
C182  H70   1.109153 S    
C163  C167  1.412102 A    
C82   C114  1.437601 A    
Zn7   O46   1.954659 S    
H15   C143  1.081064 S    
O16   C12   1.265464 A    
C56   N24   1.438334 S    
C125  H37   1.069875 S    
C62   C70   1.378922 A    
C63   H23   1.083402 S    
Zn16  O4    1.958948 S    
Zn12  O4    1.971654 S    
Zn1   O13   1.945863 S    
C76   C88   1.423551 A    
C43   C83   1.436084 A    
C26   C28   1.559309 S    
C24   C40   1.494845 S    
Zn4   O16   1.942595 S    
C75   C87   1.421489 A    
C103  C127  1.419851 A    
C186  H82   1.111607 S    
C28   H4    1.102787 S    
N13   O77   1.299720 A    
C101  C125  1.420692 A    
C33   N12   1.496222 S    
C188  H88   1.111576 S    
C28   N4    1.483295 S    
C47   C195  1.518108 S    
C77   C93   1.407279 A    
N15   O81   1.303303 A    
C46   C54   1.427100 A    
C31   H7    1.102967 S    
C91   C99   1.409709 A    
C105  C113  1.408461 A    
C92   C100  1.408778 A    
N24   O100  1.300930 A    
C153  H61   1.082688 S    
N14   O80   1.302564 A    
N11   O73   1.302151 A    
C160  C184  1.507216 S    
C32   N8    1.481649 S    
C155  C164  1.418456 A    
C189  H89   1.110612 S    
C174  C178  1.398843 A    
C30   H6    1.105766 S    
C33   N9    1.489471 S    
Zn10  O22   1.930130 S    
C125  C133  1.394896 A    
C192  H98   1.110957 S    
O25   C8    1.272385 A    
Zn13  O29   1.928755 S    
C104  C128  1.411968 A    
Zn6   O4    1.940451 S    
Zn10  O2    1.971654 S    
C55   N23   1.441992 S    
O29   C12   1.307649 A    
Zn15  O33   1.928755 S    
N8    O67   1.301364 A    
C7    C93   1.471541 S    
C86   C118  1.435426 A    
N3    O57   1.300809 A    
C94   C102  1.406282 A    
C45   C53   1.420094 A    
C42   C50   1.421000 A    
C107  C147  1.422545 A    
C183  H71   1.109839 S    
O37   C17   1.283493 A    
C10   C114  1.450914 S    
O48   C23   1.275627 A    
C193  H101  1.105966 S    
C188  H86   1.109305 S    
C2    C92   1.463731 S    
C77   C81   1.404279 A    
H14   C142  1.082408 S    
C196  H110  1.106323 S    
H10   C138  1.082551 S    
C99   C123  1.420612 A    
C97   C121  1.416091 A    
C35   C36   1.618244 S    
Zn16  O35   1.930369 S    
C90   C98   1.407204 A    
C191  H95   1.108423 S    
H59   C180  1.083523 S    
H13   C141  1.082551 S    
N19   O90   1.300806 A    
C22   C38   1.489966 S    
C132  C144  1.385116 A    
Zn7   O10   1.942551 S    
O33   C16   1.278381 A    
C181  H66   1.110808 S    
C129  H45   1.082978 S    
C60   H20   1.083335 S    
C182  H69   1.110270 S    
C184  H75   1.110327 S    
C132  H48   1.081502 S    
C55   C59   1.390469 A    
C66   C74   1.408398 A    
C175  C187  1.508662 S    
Zn5   O17   1.945863 S    
C34   C38   1.616779 S    
C108  C116  1.412384 A    
H12   C140  1.082967 S    
C165  C169  1.425851 A    
N1    O54   1.301048 A    
O28   C5    1.276359 A    
C195  H108  1.106543 S    
C27   H3    1.099247 S    
N5    O62   1.301649 A    
C189  H91   1.111129 S    
C32   H8    1.103074 S    
Zn8   O3    1.943751 S    
C133  H41   1.082948 S    
C164  C168  1.417795 A    
N2    O55   1.300268 A    
C192  H100  1.110889 S    
O38   C18   1.276753 A    
C30   N6    1.476902 S    
C74   C86   1.412477 A    
C70   H30   1.081207 S    
C71   C79   1.418687 A    
C135  C139  1.386205 A    
O5    C1    1.281489 A    
C98   C122  1.416550 A    
C67   C75   1.413813 A    
O32   C9    1.305564 A    
C41   C81   1.431880 A    
N19   O89   1.301607 A    
C183  H73   1.106250 S    
Zn15  O51   1.954474 S    
C62   H22   1.083298 S    
C161  C162  1.400767 A    
Zn11  O28   1.933704 S    
C29   N5    1.476505 S    
C193  H103  1.103489 S    
C26   H2    1.108178 S    
C52   C64   1.401091 A    
H58   C177  1.084286 S    
Zn7   O4    1.943752 S    
C196  H112  1.104221 S    
N4    O60   1.302365 A    
C79   C95   1.414908 A    
C29   C39   1.589033 S    
C156  H64   1.081054 S    
C52   N20   1.448396 S    
C36   C40   1.617660 S    
C191  H97   1.108444 S    
C121  H33   1.075645 S    
N18   O87   1.301496 A    
O8    C4    1.273329 A    
C66   H26   1.079656 S    
C162  C166  1.418125 A    
C70   C78   1.409430 A    
C57   H17   1.082174 S    
C157  C181  1.509990 S    
N15   O82   1.302652 A    
O50   C18   1.289377 A    
C101  C105  1.410086 A    
C1    C91   1.459767 S    
C51   C63   1.387210 A    
C19   C168  1.448214 S    
C142  C150  1.393745 A    
Zn13  O1    1.971349 S    
C104  C108  1.412803 A    
C20   C167  1.453133 S    
N12   O75   1.303079 A    
C60   C68   1.379088 A    
C173  C185  1.499741 S    
C190  H92   1.102471 S    
C16   C120  1.449899 S    
C171  C175  1.433980 A    
O52   C20   1.272528 A    
N10   O72   1.300409 A    
C131  C143  1.385588 A    
O39   C19   1.272111 A    
O36   C13   1.282084 A    
C78   C94   1.413740 A    
C47   C55   1.417750 A    
C121  C129  1.391586 A    
C176  C180  1.396124 A    
O13   C9    1.264121 A    
N6    O63   1.301140 A    
C138  C146  1.392621 A    
Zn1   O8    1.939520 S    
C158  C182  1.508382 S    
Zn2   O7    1.945817 S    
C64   H24   1.082661 S    
C169  C173  1.425522 A    
Zn3   O6    1.942551 S    
O18   C14   1.274194 A    
O31   C10   1.274043 A    
O6    C2    1.285790 A    
N9    O70   1.299786 A    
C51   N19   1.437922 S    
C194  H104  1.107800 S    
C151  H55   1.080538 S    
N20   O91   1.302071 A    
C127  C135  1.391992 A    
Zn14  O30   1.933957 S    
Zn15  O3    1.971349 S    
C187  H84   1.107944 S    
Zn11  O3    1.959253 S    
O41   C21   1.271118 A    
C43   C191  1.501916 S    
Zn16  O34   1.933957 S    
C8    C94   1.457042 S    
C44   C52   1.428793 A    
C67   H27   1.080262 S    
C155  H63   1.081908 S    
C95   C103  1.412832 A    
C196  H111  1.108009 S    
C27   C38   1.585185 S    
O15   C11   1.279582 A    
C110  C118  1.418806 A    
C34   N10   1.489607 S    
C93   C101  1.429854 A    
N22   O95   1.300138 A    
C159  C183  1.508314 S    
Zn8   O20   1.942595 S    
C88   C120  1.439341 A    
C96   C104  1.418336 A    
C78   C82   1.422222 A    
C48   C56   1.422573 A    
C99   C111  1.408643 A    
C4    C90   1.451415 S    
C97   C109  1.407426 A    
C42   C190  1.514395 S    
C80   C96   1.404556 A    
C153  C162  1.419666 A    
H60   C179  1.079310 S    
C89   C97   1.408719 A    
C186  H81   1.108083 S    
Zn8   O9    1.941436 S    
N17   O86   1.301190 A    
C111  C151  1.422994 A    
Zn7   O19   1.941478 S    
C109  C149  1.423699 A    
C139  C147  1.391943 A    
N21   O94   1.301642 A    
C153  C157  1.399188 A    
C174  C186  1.515624 S    
C26   N2    1.477405 S    
C130  H46   1.082612 S    
C155  C159  1.401401 A    
C179  C180  1.375454 A    
O7    C3    1.283535 A    
C156  C160  1.401644 A    
C11   C115  1.459524 S    
C15   C119  1.451665 S    
C54   C58   1.393936 A    
C190  H94   1.106226 S    
N7    O65   1.301167 A    
O19   C15   1.278609 A    
C13   C117  1.452320 S    
C112  C152  1.424139 A    
C100  C112  1.404962 A    
C128  H40   1.075934 S    
Zn9   O24   1.933704 S    
Zn6   O18   1.939562 S    
Zn10  O23   1.928505 S    
C105  C145  1.419034 A    
C171  C172  1.421651 A    
C35   N13   1.488775 S    
C157  C158  1.408869 A    
C81   C113  1.430437 A    
C25   N1    1.478392 S    
C159  C160  1.406659 A    
C149  H53   1.081379 S    
C123  C131  1.390580 A    
C135  H43   1.082172 S    
C25   C37   1.582759 S    
Zn15  O36   1.930384 S    
N8    O68   1.302425 A    
C18   C165  1.457287 S    
C46   C194  1.503496 S    
Zn4   O1    1.943751 S    
C194  H106  1.102431 S    
C30   C32   1.563493 S    
C102  C126  1.417032 A    
C28   C37   1.589671 S    
Zn9   O37   1.960669 S    
N12   O76   1.301502 A    
O12   C8    1.282534 A    
C185  H79   1.102444 S    
Zn11  O39   1.960669 S    
C106  C114  1.419300 A    
N3    O58   1.302361 A    
H16   C144  1.082703 S    
C58   H18   1.082802 S    
C53   C57   1.387014 A    
C65   H25   1.081272 S    
C84   C116  1.432603 A    
Zn1   O1    1.940453 S    
C56   C60   1.388078 A    
C131  H47   1.082754 S    
C42   C82   1.451910 A    
C150  H54   1.081670 S    
N16   O84   1.302158 A    
C72   H32   1.083209 S    
N16   O83   1.300663 A    
Zn5   O3    1.940453 S    
C126  H38   1.081133 S    
C146  H50   1.080838 S    
C100  C124  1.408608 A    
Zn2   O14   1.939562 S    
C141  C149  1.392871 A    
C58   C66   1.380696 A    
C140  C148  1.389844 A    
C33   C34   1.623948 S    
C181  H65   1.110753 S    
C46   C86   1.440082 A    
C54   N22   1.448323 S    
C34   N11   1.499872 S    
C23   C39   1.492349 S    
C87   C119  1.432409 A    
C184  H74   1.104044 S    
C68   H28   1.082136 S    
O40   C20   1.291742 A    
C85   C117  1.437038 A    
Zn3   O42   1.954659 S    
C168  C172  1.429878 A    
C48   C196  1.513429 S    
C177  C178  1.373912 A    
O21   C4    1.279458 A    
C137  C145  1.388057 A    
N13   O78   1.302805 A    
C64   C72   1.386144 A    
C152  H56   1.081790 S    
C65   C73   1.412945 A    
C172  C176  1.443333 A    
C73   C89   1.417276 A    
C68   C76   1.410955 A    
N24   O99   1.301420 A    
Zn2   O2    1.940451 S    
C169  C170  1.424517 A    
Zn14  O2    1.958948 S    
H9    C137  1.082728 S    
N23   O98   1.301180 A    
N14   O79   1.298757 A    
C195  H107  1.105805 S    
C26   C38   1.590443 S    
C57   C65   1.379655 A    
Zn13  O49   1.954474 S    
O44   C21   1.273597 A    
C189  H90   1.109307 S    
C45   C85   1.450832 A    
C107  C115  1.419737 A    
Zn12  O27   1.928505 S    
C188  H87   1.105908 S    
C27   N3    1.479228 S    
C192  H99   1.109891 S    
C12   C116  1.468237 S    
Zn3   O2    1.943752 S    
C123  H35   1.080793 S    
C156  C163  1.417809 A    
C183  H72   1.106727 S    
O46   C24   1.270845 A    
Zn4   O41   1.954655 S    
C148  H52   1.080461 S    
C35   N16   1.496268 S    
Zn16  O52   1.960713 S    
C173  C177  1.391683 A    
C193  H102  1.106657 S    
O9    C5    1.278152 A    
C33   C37   1.624974 S    
Zn8   O45   1.954655 S    
C61   C69   1.389072 A    
O27   C6    1.289574 A    
C124  C132  1.394542 A    
C75   C91   1.420696 A    
C76   C92   1.413913 A    
C136  H44   1.079054 S    
C130  C142  1.389178 A    
C154  H62   1.081508 S    
H11   C139  1.083020 S    
C29   C31   1.566621 S    
N18   O88   1.301555 A    
C134  C138  1.387238 A    
N11   O74   1.303552 A    
C36   N15   1.498668 S    
O24   C1    1.276536 A    
C129  C141  1.386776 A    
C181  H67   1.106949 S    
C175  C179  1.394923 A    
C9    C113  1.469725 S    
C69   H29   1.082780 S    
C3    C89   1.461282 S    
C147  H51   1.080514 S    
O43   C22   1.274120 A    
O14   C10   1.281101 A    
O47   C24   1.272648 A    
C184  H76   1.110289 S    
C79   C83   1.414795 A    
N7    O66   1.302383 A    
Zn5   O12   1.939520 S    
O42   C22   1.266586 A    
C154  C161  1.418627 A    
C30   C40   1.588672 S    
Zn6   O11   1.945817 S    
Zn9   O21   1.930119 S    
Zn14  O50   1.960713 S    
C61   H21   1.082794 S    
O35   C14   1.287664 A    
Zn12  O40   1.954433 S    
Zn9   O1    1.959253 S    
N6    O64   1.301696 A    
C154  C158  1.402133 A    
C134  H42   1.081482 S    
C53   N21   1.439010 S    
C122  H34   1.082249 S    
C136  C140  1.386367 A    
C195  H109  1.110453 S    
N9    O69   1.303000 A    
C41   C49   1.415769 A    
C49   N17   1.441076 S    
O22   C3    1.279998 A    
C83   C115  1.432492 A    
C103  C107  1.409633 A    
Zn13  O32   1.930384 S    
N20   O92   1.299306 A    
O49   C17   1.274209 A    
Zn14  O31   1.930369 S    
C143  C151  1.392543 A    
C187  H83   1.108849 S    
O51   C19   1.291179 A    
C126  C134  1.392392 A    
N23   O97   1.301713 A    
C50   N18   1.437767 S    
Zn4   O5    1.941436 S    
C43   C51   1.414332 A    
O20   C16   1.287083 A    
C17   C166  1.437841 S    
O10   C6    1.276868 A    
O23   C2    1.281763 A    
N22   O96   1.301860 A    
Zn11  O25   1.930119 S    
C182  H68   1.110016 S    
Zn10  O38   1.954433 S    
C144  C152  1.390249 A    
C48   C88   1.449818 A    
C5    C95   1.452248 S    
N2    O56   1.301891 A    
C49   C61   1.397170 A    
C72   C80   1.407685 A    
C25   C27   1.565885 S    
N4    O59   1.300635 A    
C44   C84   1.434427 A    
N5    O61   1.300945 A    
C35   C39   1.617714 S    
C124  H36   1.071708 S    
C41   C189  1.515322 S    
O17   C13   1.279886 A    
O45   C23   1.266549 A    
