data_mof_unit_20431.cif
_audit_creation_date              2013-03-05T16:35:53-0500
_audit_creation_method            fapswitch 2.2
_symmetry_space_group_name_H-M    P1
_symmetry_Int_Tables_number       1
_space_group_crystal_system       triclinic
_cell_length_a                    23.534541
_cell_length_b                    9.150585
_cell_length_c                    7.772724
_cell_angle_alpha                 90.008127
_cell_angle_beta                  89.999086
_cell_angle_gamma                 87.405122
_cell_volume                      1672.17716882

loop_
_atom_site_label
_atom_site_type_symbol
_atom_site_description
_atom_site_fract_x
_atom_site_fract_y
_atom_site_fract_z
_atom_type_partial_charge
O1    O     O_R   0.500000 0.288390 0.642760 -0.596422
O2    O     O_R   0.500000 0.711610 0.357240 -0.576855
O3    O     O_R   0.500000 0.711610 0.642760 -0.596407
O4    O     O_R   0.500000 0.288390 0.357240 -0.576949
H1    H     H_    0.946755 0.140767 0.432780 0.187157
H2    H     H_    0.053236 0.859808 0.432076 0.187202
H3    H     H_    0.950213 0.875404 0.486168 0.184066
H4    H     H_    0.049762 0.125259 0.487098 0.184168
C1    C     C_R   0.500236 0.219840 0.499990 0.868686
C2    C     C_R   0.499764 0.780160 0.500004 0.868996
O5    O     O_R   0.417880 0.500000 0.642820 -0.594943
O6    O     O_R   0.582120 0.500000 0.357180 -0.586317
O7    O     O_R   0.582120 0.500000 0.642820 -0.594824
O8    O     O_R   0.417880 0.500000 0.357180 -0.586337
C3    C     C_R   0.209638 0.478063 0.492585 0.053808
C4    C     C_R   0.790349 0.522451 0.492512 0.053797
C5    C     C_R   0.390909 0.500807 0.500162 0.961885
C6    C     C_R   0.609094 0.499146 0.500153 0.961530
Cu1   Cu    Cu3+1 0.500000 0.500000 0.669080 0.996416
Cu2   Cu    Cu3+1 0.500000 0.500000 0.330920 1.011456
C7    C     C_R   0.294328 0.617291 0.534009 0.290165
C8    C     C_R   0.705734 0.382995 0.534189 0.290269
C9    C     C_R   0.304327 0.359061 0.469382 0.296745
C10   C     C_R   0.695604 0.641093 0.469074 0.297144
C11   C     C_R   0.329056 0.492614 0.501123 -0.337863
C12   C     C_R   0.670942 0.507504 0.501072 -0.337704
C13   C     C_R   0.882220 0.642154 0.510340 0.655323
C14   C     C_R   0.117748 0.358549 0.510841 0.655268
C15   C     C_R   0.880874 0.393200 0.421586 0.648199
C16   C     C_R   0.119125 0.607338 0.421535 0.648215
N1    N     N_R   0.851954 0.520574 0.472558 -0.421465
N2    N     N_R   0.148029 0.480027 0.472759 -0.421503
C17   C     C_R   0.939961 0.377897 0.440842 -0.021300
C18   C     C_R   0.060031 0.622689 0.440683 -0.021431
C19   C     C_R   0.941065 0.640690 0.479760 -0.040655
C20   C     C_R   0.058912 0.359967 0.480181 -0.040590
C21   C     C_R   0.970195 0.504843 0.459383 -0.025014
C22   C     C_R   0.029790 0.495779 0.459447 -0.025014
C23   C     C_R   0.969429 0.240625 0.443893 -0.118367
C24   C     C_R   0.030560 0.759967 0.443376 -0.118400
C25   C     C_R   0.971769 0.768922 0.473882 -0.129886
C26   C     C_R   0.028211 0.231723 0.474534 -0.129887
C27   C     C_1   0.500080 0.065229 0.500022 -0.166555
C28   C     C_1   0.499920 0.934771 0.500043 -0.166488
C29   C     C_R   0.236135 0.600808 0.563281 0.283062
C30   C     C_R   0.763909 0.399754 0.563498 0.282964
C31   C     C_R   0.245598 0.358383 0.435656 0.307215
C32   C     C_R   0.754334 0.641921 0.435349 0.307204
N3    N     N_1   0.500000 0.500000 0.076820 -0.054985
N4    N     N_1   0.500000 0.500000 0.923180 -0.056994
O9    O     O_2   0.856464 0.761733 0.582250 -0.466570
O10   O     O_2   0.143484 0.239116 0.583099 -0.466574
O11   O     O_2   0.852913 0.281798 0.352897 -0.506848
O12   O     O_2   0.147106 0.718618 0.352671 -0.506623
Cl1   Cl    Cl    0.198837 0.735199 0.688275 -0.549888
Cl2   Cl    Cl    0.801267 0.265674 0.688741 -0.549758
Cl3   Cl    Cl    0.221325 0.215121 0.306553 -0.565020
Cl4   Cl    Cl    0.778536 0.785006 0.305895 -0.565255
O13   O     O_3   0.316933 0.754525 0.525935 -0.608769
C33   C     C_3   0.295008 0.828543 0.377253 0.122069
H5    H     H_    0.303527 0.945913 0.388130 0.197701
H6    H     H_    0.247877 0.826341 0.369053 0.237825
C34   C     C_3   0.323277 0.772177 0.209409 -0.466744
H7    H     H_    0.364051 0.826812 0.190050 0.226543
H8    H     H_    0.332973 0.652740 0.214138 0.243518
C35   C     C_3   0.284394 0.801032 0.054856 -0.725095
H9    H     H_    0.247399 0.729979 0.062051 0.295873
H10   H     H_    0.308061 0.775905 0.933997 0.271873
H11   H     H_    0.268341 0.916748 0.052483 0.281359
O14   O     O_3   0.683226 0.245638 0.526286 -0.608751
C36   C     C_3   0.705208 0.171565 0.377679 0.122271
H12   H     H_    0.696988 0.054086 0.388968 0.197646
H13   H     H_    0.752307 0.174411 0.369087 0.237644
C37   C     C_3   0.676689 0.227100 0.209909 -0.467087
H14   H     H_    0.636177 0.171283 0.190625 0.226491
H15   H     H_    0.666479 0.346279 0.214719 0.243816
C38   C     C_3   0.715631 0.199330 0.055246 -0.724743
H16   H     H_    0.752308 0.271432 0.062405 0.295463
H17   H     H_    0.691847 0.223855 0.934459 0.271740
H18   H     H_    0.732151 0.083999 0.052746 0.281807
O15   O     O_3   0.338250 0.231374 0.467320 -0.596181
C39   C     C_3   0.329862 0.153305 0.622887 0.053626
H19   H     H_    0.351682 0.043860 0.609125 0.189028
H20   H     H_    0.283984 0.134632 0.645805 0.207212
C40   C     C_3   0.356314 0.226612 0.780363 -0.406294
H21   H     H_    0.402611 0.234173 0.759531 0.253218
H22   H     H_    0.336978 0.338235 0.800040 0.231864
C41   C     C_3   0.347208 0.140051 0.944603 -0.812415
H23   H     H_    0.301127 0.140769 0.974832 0.290741
H24   H     H_    0.369396 0.191804 0.053381 0.280032
H25   H     H_    0.364490 0.025776 0.929982 0.252486
O16   O     O_3   0.661610 0.768650 0.466770 -0.596047
C42   C     C_3   0.669961 0.847051 0.622140 0.053013
H26   H     H_    0.648001 0.956294 0.608229 0.188949
H27   H     H_    0.715814 0.866118 0.644796 0.207053
C43   C     C_3   0.643684 0.773847 0.779921 -0.406263
H28   H     H_    0.597399 0.765861 0.759362 0.253202
H29   H     H_    0.663163 0.662408 0.799788 0.231840
C44   C     C_3   0.652768 0.860870 0.943859 -0.811985
H30   H     H_    0.698855 0.860737 0.973728 0.290755
H31   H     H_    0.630758 0.809104 0.052926 0.280137
H32   H     H_    0.635295 0.974947 0.929072 0.252332

loop_
_geom_bond_atom_site_label_1
_geom_bond_atom_site_label_2
_geom_bond_distance
_ccdc_geom_bond_type
C35   H10   1.110810 S    
C34   H8    1.106942 S    
C42   H26   1.109646 S    
C20   C26   1.406379 A    
Cu1   Cu2   2.628425 S    
C6    C12   1.461060 S    
C3    C31   1.423829 A    
C4    C32   1.423803 A    
O15   C39   1.422819 S    
C3    N2    1.457424 S    
C38   H16   1.111326 S    
C4    N1    1.457447 S    
C16   O12   1.348296 S    
O5    Cu1   1.943411 S    
C17   C23   1.407300 A    
C37   H15   1.106670 S    
O7    C6    1.277595 A    
C33   C34   1.542517 S    
C18   C24   1.407328 A    
C19   C21   1.401112 A    
C21   C22   1.401235 A    
H4    C26   1.082196 S    
C7    O13   1.387231 S    
C38   H18   1.108218 S    
C35   H11   1.108182 S    
C43   C44   1.522710 S    
C15   C17   1.399330 A    
C33   H6    1.112123 S    
O2    Cu2   1.947103 S    
C37   C38   1.525925 S    
C43   H29   1.109760 S    
C44   H32   1.110473 S    
O3    Cu1   1.947161 S    
O14   C36   1.424527 S    
C38   H17   1.110767 S    
C35   H9    1.111395 S    
C34   C35   1.525930 S    
O13   C33   1.424480 S    
C42   H27   1.114901 S    
O8    C5    1.279701 A    
C10   O16   1.385002 S    
C13   O9    1.347933 S    
C23   C26   1.402473 A    
C7    C29   1.403177 A    
C40   H22   1.109790 S    
C1    C27   1.414951 S    
C9    C31   1.407088 A    
C37   H14   1.111949 S    
C16   C18   1.399412 A    
C13   N1    1.379493 A    
C10   C32   1.407154 A    
O8    Cu2   1.943404 S    
C14   N2    1.379471 A    
O1    C1    1.274543 A    
C4    C30   1.419722 A    
C36   H13   1.111948 S    
O7    Cu1   1.943402 S    
C13   C19   1.404599 A    
C40   H21   1.106798 S    
O1    Cu1   1.947104 S    
C2    C28   1.414951 S    
C17   C21   1.396869 A    
C33   H5    1.104671 S    
C27   C28   1.193940 T    
Cu2   N3    1.975048 S    
C31   Cl3   1.766151 S    
C44   H30   1.109168 S    
C41   H25   1.110518 S    
C43   H28   1.106646 S    
O6    Cu2   1.943408 S    
C29   Cl1   1.768787 S    
C24   C25   1.402525 A    
C8    C30   1.403180 A    
C41   H24   1.110908 S    
C39   H19   1.109747 S    
C42   C43   1.540422 S    
C39   H20   1.115081 S    
H1    C23   1.082272 S    
H2    C24   1.082289 S    
C3    C29   1.419722 A    
C30   Cl2   1.768798 S    
O2    C2    1.274501 A    
C40   C41   1.522717 S    
C7    C11   1.396561 A    
O5    C5    1.277540 A    
C9    O15   1.385046 S    
C44   H31   1.110710 S    
C18   C22   1.396893 A    
C10   C12   1.399059 A    
C36   C37   1.542252 S    
C32   Cl4   1.766089 S    
C39   C40   1.540568 S    
C5    C11   1.461009 S    
C20   C22   1.401105 A    
C36   H12   1.104353 S    
C15   N1    1.380849 A    
O3    C2    1.274597 A    
C16   N2    1.380864 A    
C14   O10   1.347944 S    
Cu1   N4    1.975048 S    
C15   O11   1.348271 S    
O16   C42   1.422762 S    
H3    C25   1.082175 S    
C19   C25   1.406385 A    
C34   H7    1.112152 S    
O4    Cu2   1.947162 S    
C9    C11   1.399071 A    
C41   H23   1.109392 S    
C14   C20   1.404510 A    
N3    N4    1.194202 T    
C8    C12   1.396570 A    
O6    C6    1.279686 A    
O4    C1    1.274556 A    
C8    O14   1.387232 S    
