data_mof_unit_9118.cif
_audit_creation_date              2012-12-10T17:22:08-0500
_audit_creation_method            fapswitch 2.2
_symmetry_space_group_name_H-M    P1
_symmetry_Int_Tables_number       1
_space_group_crystal_system       triclinic
_cell_length_a                    15.86765
_cell_length_b                    10.842996
_cell_length_c                    9.647424
_cell_angle_alpha                 90.743954
_cell_angle_beta                  90.223092
_cell_angle_gamma                 94.272854
_cell_volume                      1655.09421885

loop_
_atom_site_label
_atom_site_type_symbol
_atom_type_description
_atom_site_fract_x
_atom_site_fract_y
_atom_site_fract_z
_atom_type_partial_charge
C1    C     C_R   0.490564 0.262471 0.498813 0.782470
C2    C     C_3   0.945217 0.372602 0.526332 -0.388706
C3    C     C_3   0.917096 0.504469 0.502551 0.299960
C4    C     C_3   0.954810 0.591338 0.619571 -0.380413
C5    C     C_3   0.053023 0.591632 0.621427 -0.152463
C6    C     C_1   0.824854 0.502546 0.502076 -0.090332
C7    C     C_1   0.175312 0.504619 0.500450 -0.091693
C8    C     C_1   0.250814 0.502598 0.499640 -0.130314
C9    C     C_R   0.415058 0.110829 0.732578 -0.053994
C10   C     C_R   0.428521 0.066198 0.865303 -0.254921
C11   C     C_R   0.480636 0.969445 0.882190 0.544056
C12   C     C_R   0.340446 0.500378 0.499832 0.832327
C13   C     C_R   0.503857 0.901883 0.765199 -0.249960
C14   C     C_R   0.486930 0.942707 0.630207 0.017759
C15   C     C_R   0.457974 0.061513 0.618725 0.054566
C16   C     C_R   0.476328 0.127242 0.495995 -0.101261
C17   C     C_R   0.494071 0.062134 0.374750 -0.205773
C18   C     C_R   0.500255 0.935504 0.378814 -0.177319
C19   C     C_R   0.499788 0.874157 0.505881 -0.108997
C20   C     C_R   0.638145 0.636701 0.137464 0.497576
C21   C     C_R   0.711649 0.662813 0.057113 -0.430481
C22   C     C_R   0.704768 0.672956 0.914090 0.449781
C23   C     C_R   0.501987 0.738572 0.501827 0.814898
C24   C     C_R   0.628029 0.635865 0.853749 -0.225131
C25   C     C_R   0.564166 0.566350 0.925108 0.082141
C26   C     C_R   0.566273 0.566492 0.074245 0.124714
C27   C     C_R   0.438186 0.437932 0.072671 -0.063005
C28   C     C_R   0.438142 0.438470 0.925503 -0.035181
C29   C     C_R   0.659514 0.499750 0.500299 0.852553
C30   C     C_3   0.042849 0.373736 0.525637 -0.391121
C31   C     C_3   0.050300 0.551389 0.360807 -0.370725
C32   C     C_3   0.952676 0.551566 0.361909 -0.390844
C33   C     C_1   0.749218 0.500905 0.501309 -0.157243
C34   C     C_3   0.082982 0.506617 0.502082 0.268569
Cu1   Cu    Cu3+1 0.499990 0.499990 0.640660 0.959341
Cu2   Cu    Cu3+1 0.500010 0.500010 0.359340 0.987477
H1    H     H_    0.918487 0.308410 0.443673 0.166359
H2    H     H_    0.065124 0.338073 0.626004 0.175058
H3    H     H_    0.920676 0.337062 0.627292 0.166452
H4    H     H_    0.933759 0.686101 0.604621 0.176953
H5    H     H_    0.504027 0.108935 0.277008 0.184561
H6    H     H_    0.400720 0.108195 0.955082 0.149689
H7    H     H_    0.540484 0.824812 0.783058 0.167596
H8    H     H_    0.508413 0.885983 0.282559 0.229553
H9    H     H_    0.387374 0.386617 0.126174 0.131964
H10   H     H_    0.062868 0.310235 0.442429 0.176380
H11   H     H_    0.771497 0.689850 0.106051 0.155932
H12   H     H_    0.620765 0.664659 0.749726 0.208949
H13   H     H_    0.386603 0.389270 0.870830 0.147019
H14   H     H_    0.078600 0.645968 0.338484 0.175309
H15   H     H_    0.069833 0.489504 0.275695 0.164641
H16   H     H_    0.925618 0.491644 0.275737 0.165074
H17   H     H_    0.934018 0.646956 0.343365 0.158150
H18   H     H_    0.072928 0.554317 0.722398 0.124859
H19   H     H_    0.929629 0.559477 0.721636 0.173879
N1    N     N_R   0.500800 0.501210 0.147910 -0.179324
N2    N     N_R   0.500820 0.501290 0.852040 -0.174748
O1    O     O_R   0.499990 0.319640 0.618810 -0.573273
O2    O     O_R   0.500000 0.319660 0.381240 -0.593873
O3    O     O_R   0.379430 0.499990 0.618840 -0.565087
O4    O     O_R   0.379440 0.500020 0.381260 -0.588128
O5    O     O_R   0.500000 0.680340 0.618760 -0.615802
O6    O     O_R   0.500010 0.680360 0.381190 -0.508046
O7    O     O_R   0.620560 0.499980 0.618740 -0.589971
O8    O     O_R   0.620570 0.500010 0.381160 -0.537626
C35   C     C_1   0.347336 0.190380 0.710926 0.241851
N3    N     N_1   0.292058 0.252280 0.693088 -0.317389
O9    O     O_3   0.505982 0.938566 0.013390 -0.584219
C36   C     C_3   0.592691 0.976853 0.027745 -0.377049
H20   H     H_    0.605917 0.076324 0.001967 0.164447
H21   H     H_    0.632266 0.918290 0.963396 0.170454
H22   H     H_    0.612036 0.966717 0.136939 0.189107
O10   O     O_3   0.629888 0.694767 0.265327 -0.527171
C37   C     C_3   0.699563 0.773414 0.312543 -0.364905
H23   H     H_    0.715809 0.849009 0.238481 0.148973
H24   H     H_    0.754886 0.719778 0.334943 0.163692
H25   H     H_    0.681936 0.817569 0.411543 0.178406
O11   O     O_3   0.770111 0.715899 0.826845 -0.572336
C38   C     C_3   0.826436 0.806632 0.890355 -0.352323
H26   H     H_    0.872873 0.762570 0.956411 0.168222
H27   H     H_    0.792749 0.876199 0.950330 0.150116
H28   H     H_    0.862688 0.856999 0.807863 0.188891
C39   C     C_1   0.092180 0.719327 0.613295 0.226500
N4    N     N_1   0.122883 0.819292 0.606912 -0.286075

loop_
_geom_bond_atom_site_label_1
_geom_bond_atom_site_label_2
_ccdc_geom_bond_type
O11   C38   S    
C10   H6    S    
O10   C37   S    
Cu1   Cu2   S    
Cu2   O2    S    
C7    C8    T    
C28   N2    A    
C37   H24   S    
Cu1   O1    S    
C1    O2    A    
C5    C39   S    
C15   C16   A    
C29   C33   S    
C30   H2    S    
C18   C19   A    
C36   H21   S    
C9    C35   S    
C32   H16   S    
C2    H3    S    
C23   O5    A    
C39   N4    T    
O9    C36   S    
C37   H25   S    
Cu1   O7    S    
Cu2   O6    S    
C9    C10   A    
C3    C6    S    
C23   O6    A    
C35   N3    T    
C29   O7    A    
C21   C22   A    
C3    C32   S    
C25   N2    A    
C37   H23   S    
C30   C34   S    
C24   H12   S    
C4    H4    S    
C5    H18   S    
C24   C25   A    
C22   O11   S    
C38   H27   S    
Cu2   O8    S    
C16   C17   A    
C25   C26   A    
Cu1   O3    S    
C36   H22   S    
C19   C23   S    
Cu2   N1    S    
C18   H8    S    
C28   H13   S    
C31   C32   S    
C8    C12   S    
C5    C34   S    
C17   C18   A    
C31   C34   S    
C1    C16   S    
C29   O8    A    
C4    H19   S    
C7    C34   S    
C22   C24   A    
C31   H14   S    
C3    C4    S    
C32   H17   S    
C13   H7    S    
C11   O9    S    
C27   N1    A    
C14   C19   A    
C30   H10   S    
C31   H15   S    
C4    C5    S    
C26   N1    A    
C38   H28   S    
C6    C33   T    
C2    C30   S    
Cu1   N2    S    
C2    C3    S    
C9    C15   A    
C1    O1    A    
C12   O4    A    
C11   C13   A    
C2    H1    S    
C27   H9    S    
C20   C26   A    
C20   O10   S    
Cu1   O5    S    
C36   H20   S    
C17   H5    S    
C10   C11   A    
C38   H26   S    
C12   O3    A    
C20   C21   A    
C27   C28   A    
C14   C15   A    
C13   C14   A    
Cu2   O4    S    
C21   H11   S    
