data_mof_unit_8535.cif
_audit_creation_date              2012-12-11T14:19:21-0500
_audit_creation_method            fapswitch 2.2
_symmetry_space_group_name_H-M    P1
_symmetry_Int_Tables_number       1
_space_group_crystal_system       triclinic
_cell_length_a                    19.414407
_cell_length_b                    7.242258
_cell_length_c                    17.728513
_cell_angle_alpha                 89.999903
_cell_angle_beta                  107.660746
_cell_angle_gamma                 90.000074
_cell_volume                      2375.22022663

loop_
_atom_site_label
_atom_site_type_symbol
_atom_type_description
_atom_site_fract_x
_atom_site_fract_y
_atom_site_fract_z
_atom_type_partial_charge
O1    O     O_R   0.414820 0.494320 0.416790 -0.530630
O2    O     O_R   0.585180 0.994320 0.583210 -0.530627
O3    O     O_R   0.560270 0.819500 0.430140 -0.544516
O4    O     O_R   0.439730 0.319500 0.569860 -0.544516
C1    C     C_R   0.581282 0.655664 0.415103 0.708966
C2    C     C_R   0.418718 0.155663 0.584897 0.708960
O5    O     O_R   0.413840 0.823740 0.407440 -0.543523
O6    O     O_R   0.586160 0.323740 0.592560 -0.543519
O7    O     O_R   0.437710 0.998590 0.560350 -0.536176
O8    O     O_R   0.562290 0.498590 0.439650 -0.536176
C3    C     C_R   0.388354 0.655622 0.384274 0.690260
C4    C     C_R   0.611646 0.155622 0.615725 0.690258
O9    O     O_3   0.508000 0.662290 0.550200 -0.378368
O10   O     O_3   0.492000 0.162290 0.449800 -0.378372
V1    V     V_3+5 0.498520 0.935380 0.490690 1.403305
V2    V     V_3+5 0.501480 0.435380 0.509310 1.403309
C5    C     C_2   0.779621 0.264305 0.795556 -0.255235
C6    C     C_2   0.220372 0.764309 0.204453 -0.255251
C7    C     C_2   0.815090 0.107466 0.825021 0.420101
C8    C     C_2   0.184911 0.607468 0.174976 0.420110
H1    H     H_    0.804815 0.396184 0.816575 0.126704
H2    H     H_    0.195169 0.896185 0.183446 0.126697
C9    C     C_2   0.703476 0.269500 0.741555 0.195642
C10   C     C_2   0.296517 0.769516 0.258451 0.195637
C11   C     C_2   0.680908 0.146491 0.680827 -0.286861
C12   C     C_2   0.319093 0.646489 0.319171 -0.286875
H3    H     H_    0.717174 0.037249 0.674995 0.176492
H4    H     H_    0.282833 0.537225 0.324995 0.176493
C13   C     C_R   0.313136 0.276746 0.622467 -0.219595
C14   C     C_R   0.686863 0.776748 0.377533 -0.219593
C15   C     C_R   0.369761 0.148691 0.634382 -0.077466
C16   C     C_R   0.630240 0.648692 0.365618 -0.077467
C17   C     C_R   0.379855 0.015551 0.693830 -0.218344
C18   C     C_R   0.620146 0.515549 0.306171 -0.218345
C19   C     C_R   0.334683 0.011111 0.742206 0.109138
C20   C     C_R   0.665318 0.511108 0.257796 0.109138
C21   C     C_R   0.276967 0.137936 0.729834 0.023415
C22   C     C_R   0.723034 0.637935 0.270167 0.023416
C23   C     C_R   0.265158 0.271431 0.668580 0.070211
C24   C     C_R   0.734842 0.771432 0.331420 0.070210
C25   C     C_R   0.345950 0.879189 0.802123 -0.193726
C26   C     C_R   0.654053 0.379183 0.197881 -0.193727
C27   C     C_R   0.300837 0.871137 0.849903 -0.186791
C28   C     C_R   0.699165 0.371129 0.150102 -0.186793
C29   C     C_R   0.242276 0.994882 0.839180 0.082920
C30   C     C_R   0.757726 0.494878 0.160822 0.082918
C31   C     C_R   0.230716 0.129212 0.778240 0.010585
C32   C     C_R   0.769284 0.629210 0.221761 0.010585
C33   C     C_R   0.173110 0.255090 0.765501 0.062312
C34   C     C_R   0.826890 0.755090 0.234499 0.062311
C35   C     C_R   0.161029 0.385307 0.704503 -0.211650
C36   C     C_R   0.838971 0.885309 0.295496 -0.211653
C37   C     C_R   0.205441 0.393989 0.655093 0.140063
C38   C     C_R   0.794559 0.893990 0.344907 0.140064
C39   C     C_R   0.195338 0.988410 0.887574 0.093837
C40   C     C_R   0.804664 0.488406 0.112428 0.093840
C41   C     C_R   0.136515 0.115923 0.872755 -0.101920
C42   C     C_R   0.863486 0.615922 0.127246 -0.101920
C43   C     C_R   0.127069 0.248080 0.812752 -0.248594
C44   C     C_R   0.872931 0.748081 0.187248 -0.248600
H5    H     H_    0.306838 0.378253 0.576183 0.131350
H6    H     H_    0.693161 0.878257 0.423816 0.131351
H7    H     H_    0.423749 0.917064 0.703215 0.123080
H8    H     H_    0.576253 0.417060 0.296787 0.123080
H9    H     H_    0.389834 0.780674 0.811977 0.128809
H10   H     H_    0.610169 0.280666 0.188028 0.128810
H11   H     H_    0.312917 0.765133 0.894738 0.139398
H12   H     H_    0.687087 0.265123 0.105268 0.139399
H13   H     H_    0.082281 0.344345 0.801677 0.131586
H14   H     H_    0.917718 0.844347 0.198322 0.131586
H15   H     H_    0.116057 0.480553 0.694824 0.125526
H16   H     H_    0.883942 0.980556 0.305175 0.125526
O11   O     O_R   0.937810 0.773680 0.060480 -0.536820
O12   O     O_R   0.062190 0.273680 0.939520 -0.536819
O13   O     O_R   0.086190 0.439740 0.092580 -0.504495
O14   O     O_R   0.913810 0.939740 0.907420 -0.504490
C45   C     C_R   0.113391 0.607488 0.113412 0.636975
C46   C     C_R   0.886609 0.107488 0.886587 0.636980
O15   O     O_R   0.939760 0.444210 0.069890 -0.539798
O16   O     O_R   0.060240 0.944210 0.930110 -0.539797
O17   O     O_R   0.914790 0.269640 0.916760 -0.561289
O18   O     O_R   0.085210 0.769640 0.083240 -0.561290
C47   C     C_R   0.916968 0.611520 0.082301 0.699557
C48   C     C_R   0.083032 0.111520 0.917699 0.699562
O19   O     O_3   0.992050 0.601530 0.949880 -0.378030
O20   O     O_3   0.007950 0.101530 0.050120 -0.378035
V3    V     V_3+5 0.001480 0.328340 0.009300 1.422101
V4    V     V_3+5 0.998520 0.828340 0.990700 1.422106
C49   C     C_3   0.185832 0.532376 0.587778 -0.378381
C50   C     C_3   0.230042 0.708818 0.610420 -0.720905
H17   H     H_    0.217286 0.775883 0.660890 0.237615
H18   H     H_    0.288818 0.678758 0.627316 0.229361
H19   H     H_    0.216130 0.805938 0.559568 0.213472
H20   H     H_    0.192729 0.471902 0.533003 0.171121
H21   H     H_    0.127643 0.569775 0.572409 0.177501
C51   C     C_3   0.814169 0.032376 0.412222 -0.378380
C52   C     C_3   0.769961 0.208821 0.389580 -0.720907
H22   H     H_    0.782716 0.275884 0.339110 0.237615
H23   H     H_    0.711184 0.178763 0.372686 0.229361
H24   H     H_    0.783874 0.305940 0.440433 0.213473
H25   H     H_    0.807271 0.971902 0.466997 0.171124
H26   H     H_    0.872358 0.069772 0.427591 0.177501
F1    F     F_    0.782111 0.940972 0.804644 -0.695678
F2    F     F_    0.217899 0.440981 0.195339 -0.695683
C53   C     C_3   0.654826 0.423491 0.754713 -0.297692
C54   C     C_3   0.662236 0.452822 0.842206 -0.760124
H27   H     H_    0.654381 0.320114 0.869938 0.226409
H28   H     H_    0.716033 0.511217 0.874105 0.233680
H29   H     H_    0.620521 0.552222 0.847869 0.220085
H30   H     H_    0.668270 0.554163 0.729481 0.203378
H31   H     H_    0.596946 0.391599 0.725872 0.180504
C55   C     C_3   0.345155 0.923546 0.245301 -0.297693
C56   C     C_3   0.337743 0.952912 0.157809 -0.760061
H32   H     H_    0.345621 0.820227 0.130075 0.226389
H33   H     H_    0.283937 0.011255 0.125908 0.233685
H34   H     H_    0.379442 0.052367 0.152152 0.220090
H35   H     H_    0.331699 0.054198 0.270539 0.203375
H36   H     H_    0.403038 0.891683 0.274141 0.180514
C57   C     C_3   0.210507 0.854253 0.957122 -0.371605
C58   C     C_3   0.182877 0.659585 0.930493 -0.670282
H37   H     H_    0.123781 0.660627 0.900432 0.237597
H38   H     H_    0.209836 0.601296 0.888926 0.212761
H39   H     H_    0.194052 0.567441 0.982889 0.207388
H40   H     H_    0.269165 0.849895 0.989153 0.166376
H41   H     H_    0.186512 0.902102 0.002980 0.178905
C59   C     C_3   0.789495 0.354246 0.042882 -0.371612
C60   C     C_3   0.817127 0.159580 0.069512 -0.670288
H42   H     H_    0.876223 0.160625 0.099570 0.237599
H43   H     H_    0.790170 0.101293 0.111081 0.212763
H44   H     H_    0.805950 0.067433 0.017117 0.207380
H45   H     H_    0.730837 0.349884 0.010852 0.166378
H46   H     H_    0.813488 0.402095 0.997023 0.178905

loop_
_geom_bond_atom_site_label_1
_geom_bond_atom_site_label_2
_ccdc_geom_bond_type
C22   C24   A    
C53   H30   S    
O4    V2    S    
C59   C60   S    
C51   H26   S    
C20   C26   A    
O1    C3    A    
O16   C48   A    
O2    C4    A    
C2    O7    A    
O15   V3    S    
C52   H22   S    
C31   C33   A    
C39   C57   S    
C57   H40   S    
O5    C3    A    
C5    C9    S    
C35   H15   S    
C8    C45   S    
C6    C10   S    
C59   H45   S    
C19   C21   A    
C10   C12   D    
C32   C34   A    
C55   H35   S    
C41   C43   A    
C54   H27   S    
C42   C44   A    
C9    C53   S    
C49   H20   S    
C5    C7    D    
C7    F1    S    
C36   C38   A    
C33   C35   A    
C10   C55   S    
C34   C36   A    
C15   C17   A    
C44   H14   S    
O12   V3    S    
C21   C31   A    
O14   V4    S    
C22   C32   A    
C58   H39   S    
C17   H7    S    
C1    C16   S    
O5    V1    S    
C2    C15   S    
C53   H31   S    
O6    V2    S    
C51   H25   S    
C13   C15   A    
C25   C27   A    
C26   C28   A    
C55   C56   S    
C52   H23   S    
C28   C30   A    
C30   C32   A    
C29   C31   A    
C13   H5    S    
O4    C2    A    
O12   C48   A    
O20   V3    S    
C25   H9    S    
C3    C12   S    
C5    H1    S    
C35   C37   A    
C16   C18   A    
C49   H21   S    
C7    C46   S    
C60   H43   S    
O11   V4    S    
C36   H16   S    
C55   H36   S    
O13   C45   A    
C50   H18   S    
C59   H46   S    
O6    C4    A    
C51   C52   S    
C13   C23   A    
C18   H8    S    
C41   C48   S    
C14   C24   A    
C27   H11   S    
O1    V2    S    
O2    V1    S    
C27   C29   A    
O17   V3    S    
C43   H13   S    
C57   H41   S    
O13   V3    S    
C40   C59   S    
C14   H6    S    
C37   C49   S    
C28   H12   S    
C60   H42   S    
C52   H24   S    
O3    V1    S    
C58   H37   S    
C58   H38   S    
C50   H19   S    
C56   H32   S    
O19   V4    S    
C12   H4    S    
C6    H2    S    
C38   C51   S    
O14   C46   A    
O3    C1    A    
C57   C58   S    
C8    F2    S    
C11   H3    S    
C53   C54   S    
C24   C38   A    
C33   C43   A    
C4    C11   S    
C34   C44   A    
C56   H34   S    
C39   C41   A    
O7    V1    S    
C60   H44   S    
C1    O8    A    
O16   V4    S    
O8    V2    S    
C42   C47   S    
C14   C16   A    
C46   O17   A    
C50   H17   S    
C23   C37   A    
C54   H28   S    
C45   O18   A    
O18   V4    S    
C20   C22   A    
C17   C19   A    
C18   C20   A    
C40   C42   A    
C6    C8    D    
C9    C11   D    
C19   C25   A    
O15   C47   A    
C29   C39   A    
C21   C23   A    
O9    V2    S    
C30   C40   A    
C26   H10   S    
O10   V1    S    
C49   C50   S    
O11   C47   A    
C56   H33   S    
C54   H29   S    
