data_mof_unit_23726.cif
_audit_creation_date              2012-12-10T18:33:31-0500
_audit_creation_method            fapswitch 2.2
_symmetry_space_group_name_H-M    P1
_symmetry_Int_Tables_number       1
_space_group_crystal_system       triclinic
_cell_length_a                    8.712761
_cell_length_b                    15.068121
_cell_length_c                    13.973949
_cell_angle_alpha                 88.495306
_cell_angle_beta                  97.195559
_cell_angle_gamma                 93.065736
_cell_volume                      1817.16153541

loop_
_atom_site_label
_atom_site_type_symbol
_atom_type_description
_atom_site_fract_x
_atom_site_fract_y
_atom_site_fract_z
_atom_type_partial_charge
C1    C     C_R   0.500063 0.330286 0.500988 0.817476
C2    C     C_R   0.499056 0.670230 0.498920 0.853016
C3    C     C_R   0.601226 0.552264 0.111323 -0.261131
C4    C     C_R   0.425486 0.434582 0.891334 -0.283226
C5    C     C_R   0.606179 0.552797 0.212161 0.575581
C6    C     C_R   0.425621 0.431736 0.790883 0.578797
C7    C     C_R   0.386064 0.452157 0.203082 0.036706
C8    C     C_R   0.564745 0.571560 0.792726 0.005121
C9    C     C_R   0.375396 0.454956 0.101086 -0.242329
C10   C     C_R   0.557608 0.577121 0.893059 -0.249501
C11   C     C_R   0.485604 0.505517 0.053208 0.068845
C12   C     C_R   0.487542 0.507124 0.944541 0.074608
C13   C     C_R   0.204104 0.498451 0.475622 0.888738
C14   C     C_R   0.795816 0.499382 0.524587 0.897794
C15   C     C_2   0.038403 0.493891 0.462673 -0.304472
C16   C     C_2   0.961507 0.500593 0.538338 -0.327388
C17   C     C_R   0.626669 0.099714 0.561514 0.471035
C18   C     C_R   0.552724 0.909083 0.417031 0.453088
C19   C     C_R   0.617967 0.191957 0.563206 -0.178772
C20   C     C_R   0.542928 0.816242 0.416838 -0.202628
C21   C     C_R   0.502470 0.234218 0.502988 -0.077907
C22   C     C_R   0.500393 0.767447 0.497111 -0.114330
C23   C     C_R   0.392700 0.184875 0.441932 -0.170709
C24   C     C_R   0.462057 0.812094 0.576866 -0.181517
C25   C     C_R   0.396724 0.092971 0.442031 -0.097820
C26   C     C_R   0.466284 0.904253 0.576493 -0.108221
C27   C     C_R   0.513766 0.050022 0.500569 -0.007501
C28   C     C_R   0.512898 0.953118 0.497718 0.004602
Cu1   Cu    Cu3+1 0.500000 0.499990 0.596430 1.022747
Cu2   Cu    Cu3+1 0.500000 0.500010 0.403570 1.027591
H1    H     H_    0.979221 0.484117 0.390458 0.218730
H2    H     H_    0.020548 0.508356 0.611164 0.197558
H3    H     H_    0.703206 0.231400 0.609374 0.189788
H4    H     H_    0.571092 0.782081 0.354693 0.235928
H5    H     H_    0.302995 0.217486 0.395260 0.156914
H6    H     H_    0.427307 0.775812 0.639230 0.170248
H7    H     H_    0.308978 0.055067 0.395996 0.199907
H8    H     H_    0.433429 0.937782 0.637931 0.198684
H9    H     H_    0.691161 0.589087 0.077964 0.189808
H10   H     H_    0.378788 0.377967 0.929153 0.192260
H11   H     H_    0.300569 0.412508 0.237484 0.152923
H12   H     H_    0.621043 0.625849 0.756187 0.157554
H13   H     H_    0.280151 0.417914 0.060649 0.165188
H14   H     H_    0.606670 0.636519 0.929296 0.168443
N1    N     N_R   0.500000 0.500020 0.258690 -0.240015
N2    N     N_R   0.500000 0.499980 0.741310 -0.233637
O1    O     O_R   0.500010 0.371450 0.581430 -0.507830
O2    O     O_R   0.499990 0.628550 0.418570 -0.526485
O3    O     O_R   0.500010 0.371460 0.418560 -0.601338
O4    O     O_R   0.499990 0.628540 0.581440 -0.615655
O5    O     O_R   0.274840 0.499990 0.562640 -0.538043
O6    O     O_R   0.725160 0.500010 0.437360 -0.524103
O7    O     O_R   0.274840 0.500000 0.399770 -0.593212
O8    O     O_R   0.725160 0.500000 0.600230 -0.591706
S1    S     S_3+6 0.781227 0.049245 0.633715 0.035529
O9    O     O_2   0.845702 0.979491 0.577266 -0.272465
O10   O     O_2   0.907818 0.117718 0.665795 -0.248431
O11   O     O_3   0.714301 0.001432 0.731412 -0.520093
H15   H     H_    0.802133 0.968806 0.764536 0.387894
S2    S     S_3+6 0.617732 0.967686 0.316851 0.039040
O12   O     O_2   0.726657 0.044338 0.350963 -0.268238
O13   O     O_2   0.699914 0.907077 0.258787 -0.217053
O14   O     O_3   0.463850 0.006593 0.246750 -0.529669
H16   H     H_    0.508245 0.044213 0.196822 0.390665
S3    S     S_3+6 0.760038 0.626913 0.264797 0.016207
O15   O     O_2   0.909453 0.586761 0.250393 -0.327649
O16   O     O_2   0.750329 0.712044 0.206214 -0.259136
O17   O     O_3   0.770588 0.655469 0.380508 -0.533999
H17   H     H_    0.866210 0.694207 0.392652 0.371499
S4    S     S_3+6 0.331119 0.332199 0.740123 0.045334
O18   O     O_2   0.452333 0.266842 0.730336 -0.274046
O19   O     O_2   0.224374 0.291501 0.807767 -0.270848
O20   O     O_3   0.222484 0.346847 0.633611 -0.528473
H18   H     H_    0.189088 0.286123 0.611455 0.373727

loop_
_geom_bond_atom_site_label_1
_geom_bond_atom_site_label_2
_ccdc_geom_bond_type
C2    C22   S    
C11   C12   S    
C18   C28   A    
C1    C21   S    
Cu1   Cu2   S    
C4    C12   A    
C2    O4    A    
O20   H18   S    
C17   S1    S    
Cu2   N1    S    
C26   C28   A    
C10   H14   S    
C20   C22   A    
Cu1   N2    S    
S1    O9    D    
S3    O17   S    
C20   H4    S    
C3    C5    A    
S4    O20   S    
C13   C15   S    
C3    H9    S    
C14   O8    A    
C5    N1    A    
Cu2   O7    S    
S2    O13   D    
C15   H1    S    
C9    C11   A    
C4    H10   S    
C24   H6    S    
C10   C12   A    
Cu1   O1    S    
S2    O14   S    
C7    N1    A    
C22   C24   A    
Cu2   O2    S    
C19   C21   A    
Cu2   O3    S    
C8    H12   S    
S3    O15   D    
C13   O7    A    
Cu1   O4    S    
S1    O10   D    
C21   C23   A    
Cu1   O5    S    
C25   C27   A    
C23   H5    S    
C14   C16   S    
C9    H13   S    
C4    C6    A    
C16   H2    S    
Cu1   O8    S    
C14   O6    A    
C17   C19   A    
O14   H16   S    
C17   C27   A    
C7    C9    A    
S4    O18   D    
C3    C11   A    
C18   C20   A    
C5    S3    S    
C23   C25   A    
C19   H3    S    
S1    O11   S    
C18   S2    S    
C27   C28   S    
C6    S4    S    
Cu2   O6    S    
C26   H8    S    
S4    O19   D    
C6    N2    A    
C8    N2    A    
C2    O2    A    
O11   H15   S    
C13   O5    A    
C1    O3    A    
O17   H17   S    
C8    C10   A    
C1    O1    A    
C15   C16   D    
C7    H11   S    
C24   C26   A    
S2    O12   D    
S3    O16   D    
C25   H7    S    
