data_mof_unit_48039.cif
_audit_creation_date              2013-03-05T16:07:57-0500
_audit_creation_method            fapswitch 2.2
_symmetry_space_group_name_H-M    P1
_symmetry_Int_Tables_number       1
_space_group_crystal_system       triclinic
_cell_length_a                    6.99655
_cell_length_b                    14.545914
_cell_length_c                    16.003476
_cell_angle_alpha                 90.167701
_cell_angle_beta                  90.132755
_cell_angle_gamma                 90.099795
_cell_volume                      1628.67935222

loop_
_atom_site_label
_atom_site_type_symbol
_atom_site_description
_atom_site_fract_x
_atom_site_fract_y
_atom_site_fract_z
_atom_type_partial_charge
O1    O     O_R   0.494380 0.415640 0.412830 -0.597972
O2    O     O_R   0.823960 0.405540 0.586560 -0.608381
O3    O     O_R   0.994270 0.584360 0.587170 -0.588239
C1    C     C_R   0.655293 0.383626 0.615154 0.978066
O4    O     O_R   0.824090 0.404620 0.413450 -0.576079
O5    O     O_R   0.994400 0.583430 0.412820 -0.597453
C2    C     C_R   0.655340 0.383431 0.383794 0.970646
O6    O     O_R   0.494250 0.416570 0.587180 -0.591878
O7    O     O_3   0.660800 0.558670 0.500000 -0.257792
V1    V     V_3+5 0.935650 0.489120 0.500000 1.195242
O8    O     O_R   0.324110 0.594460 0.413440 -0.581586
C3    C     C_R   0.154800 0.617296 0.385472 1.039688
O9    O     O_R   0.323980 0.595380 0.586550 -0.537075
C4    C     C_R   0.155908 0.615239 0.617408 0.861603
V2    V     V_3+5 0.435660 0.510880 0.500000 1.227690
O10   O     O_3   0.160640 0.441330 0.500000 -0.294891
C5    C     C_3   0.954116 0.677554 0.735061 -0.332039
H1    H     H_    0.847625 0.687779 0.686330 0.276737
H2    H     H_    0.934257 0.607880 0.762331 0.174981
C6    C     C_3   0.933531 0.752179 0.803953 -0.330170
H3    H     H_    0.895929 0.718730 0.864174 0.152941
H4    H     H_    0.814846 0.799570 0.787506 0.204701
H5    H     H_    0.033089 0.799273 0.616213 0.137803
H6    H     H_    0.058913 0.910248 0.717080 0.124578
C7    C     C_3   0.160236 0.784701 0.655961 -0.302241
C8    C     C_3   0.298418 0.665470 0.759024 0.352964
C9    C     C_3   0.146494 0.684353 0.689696 -0.106785
H7    H     H_    0.270579 0.596000 0.785805 0.021750
C10   C     C_3   0.122406 0.807457 0.813554 0.046827
C11   C     C_3   0.165597 0.855120 0.728975 -0.340929
C12   C     C_3   0.284178 0.737155 0.831223 -0.477244
H8    H     H_    0.254688 0.700917 0.891002 0.127957
H9    H     H_    0.422951 0.773597 0.839720 0.194787
H10   H     H_    0.284015 0.794573 0.613803 0.187987
H11   H     H_    0.308758 0.888462 0.731541 0.175587
C13   C     C_R   0.271857 0.816580 0.240432 0.163444
C14   C     C_R   0.118314 0.816346 0.184016 -0.220186
C15   C     C_R   0.966640 0.755210 0.200404 -0.177469
H12   H     H_    0.844080 0.752903 0.159250 0.145947
C16   C     C_R   0.977479 0.691878 0.266733 -0.079121
H13   H     H_    0.862501 0.642921 0.274582 0.158816
C17   C     C_R   0.140605 0.687482 0.318580 -0.190206
C18   C     C_R   0.282994 0.753754 0.305838 0.120733
C19   C     C_3   0.493185 0.742401 0.295152 -0.445017
C20   C     C_3   0.480959 0.811049 0.223924 -0.456192
H14   H     H_    0.531740 0.672030 0.274177 0.232115
H15   H     H_    0.575089 0.768628 0.349861 0.179071
H16   H     H_    0.512046 0.780461 0.161699 0.201957
H17   H     H_    0.555511 0.876976 0.237559 0.179126
C21   C     C_R   0.493884 0.316272 0.741311 0.217931
C22   C     C_R   0.647782 0.317759 0.685463 -0.238046
C23   C     C_R   0.799201 0.256275 0.700616 -0.174514
H18   H     H_    0.921730 0.255206 0.659667 0.138446
C24   C     C_R   0.787862 0.190920 0.765165 -0.149719
H19   H     H_    0.902709 0.141875 0.772235 0.131731
C25   C     C_R   0.624433 0.184888 0.816264 -0.232906
C26   C     C_R   0.482250 0.251368 0.804947 0.182032
C27   C     C_3   0.272440 0.239459 0.792768 -0.479996
C28   C     C_3   0.285029 0.310676 0.723709 -0.476121
H20   H     H_    0.189224 0.263316 0.847773 0.211452
H21   H     H_    0.235717 0.169526 0.769547 0.183471
H22   H     H_    0.209967 0.375886 0.738980 0.197549
H23   H     H_    0.254732 0.282256 0.660489 0.185450
C29   C     C_R   0.503430 0.320314 0.251370 0.119145
C30   C     C_R   0.648571 0.317956 0.312171 -0.254833
C31   C     C_R   0.796613 0.253483 0.299322 -0.088742
H24   H     H_    0.916548 0.250676 0.342029 0.113191
C32   C     C_R   0.785801 0.187965 0.234055 -0.167236
H25   H     H_    0.898250 0.137375 0.228361 0.123564
C33   C     C_R   0.625414 0.184059 0.180404 -0.204225
C34   C     C_R   0.489799 0.253577 0.189455 0.132349
C35   C     C_3   0.277224 0.251029 0.192914 -0.608391
C36   C     C_3   0.291246 0.328780 0.257221 0.449603
H26   H     H_    0.224921 0.185607 0.220332 0.152185
H27   H     H_    0.209931 0.269060 0.132306 0.265026
H28   H     H_    0.234886 0.311432 0.320078 0.009056
O11   O     O_R   0.771490 0.080820 0.910070 -0.592014
O12   O     O_R   0.441590 0.092730 0.083780 -0.590744
O13   O     O_R   0.271350 0.913900 0.084390 -0.592422
C37   C     C_R   0.610829 0.114000 0.113172 0.949377
O14   O     O_R   0.441780 0.091820 0.910670 -0.593522
O15   O     O_R   0.271540 0.912980 0.910040 -0.593884
C38   C     C_R   0.610751 0.113860 0.882144 0.946053
O16   O     O_R   0.771300 0.081740 0.084420 -0.592297
O17   O     O_3   0.604960 0.938700 0.997240 -0.283530
V3    V     V_3+5 0.330090 0.008230 0.997220 1.149439
O18   O     O_R   0.941820 0.901930 0.910640 -0.602554
C39   C     C_R   0.110687 0.878618 0.882984 0.885785
O19   O     O_R   0.941630 0.902840 0.083750 -0.601090
C40   C     C_R   0.110415 0.881131 0.112643 0.931269
V4    V     V_3+5 0.830090 0.986410 0.997190 1.143303
O20   O     O_3   0.105080 0.055990 0.997200 -0.268408
S1    S     S_3+6 0.212911 0.437588 0.217397 -0.038160
O21   O     O_2   0.014210 0.456668 0.248169 -0.307667
O22   O     O_2   0.346383 0.511338 0.247943 -0.338134
O23   O     O_3   0.213256 0.438033 0.112268 -0.536251
H29   H     H_    0.174054 0.501114 0.096619 0.369281
N1    N     N_R   0.489117 0.665680 0.724243 0.226614
O24   O     O_R   0.551494 0.739040 0.686821 -0.492251
O25   O     O_R   0.582137 0.588521 0.718399 -0.460443

loop_
_geom_bond_atom_site_label_1
_geom_bond_atom_site_label_2
_geom_bond_distance
_ccdc_geom_bond_type
C31   C32   1.413673 A    
O18   C39   1.307560 A    
S1    O21   1.501987 D    
O18   V4    2.009490 S    
C36   S1    1.794119 S    
C1    O6    1.303998 A    
O17   V4    1.720135 S    
O17   V3    2.174427 S    
C19   C20   1.519958 S    
C8    C9    1.560009 S    
C14   C15   1.408941 A    
C14   C40   1.483895 S    
C21   C28   1.489563 S    
C13   C14   1.401671 A    
O5    C3    1.302020 A    
C15   H12   1.080442 S    
O12   C37   1.309326 A    
O11   C38   1.302411 A    
C27   H20   1.111565 S    
V2    O10   2.172373 S    
C5    C6    1.552036 S    
C25   C26   1.400381 A    
C29   C34   1.388117 A    
O13   C40   1.304313 A    
C3    C17   1.484712 S    
O8    V2    2.003566 S    
C23   C24   1.408187 A    
C32   H25   1.082018 S    
C10   C39   1.518792 S    
C29   C36   1.492998 S    
C12   H9    1.113271 S    
C33   C34   1.395323 A    
O1    V2    2.006840 S    
O16   V4    2.008508 S    
C4    C9    1.532028 S    
O19   V4    2.003449 S    
O7    V1    2.174440 S    
O14   V3    2.004775 S    
C19   H15   1.111506 S    
C37   O16   1.302090 A    
C7    H10   1.108454 S    
O12   V3    2.004986 S    
C27   H21   1.111447 S    
C16   C17   1.411142 A    
C31   H24   1.081915 S    
C8    C12   1.557583 S    
S1    O22   1.501053 D    
O9    C4    1.308879 A    
C35   H27   1.109526 S    
O14   C38   1.307995 A    
C19   H14   1.110226 S    
C21   C22   1.401136 A    
C6    C10   1.552760 S    
C24   C25   1.410063 A    
C1    C22   1.480935 S    
C33   C37   1.482998 S    
C22   C23   1.408681 A    
C5    C9    1.533952 S    
C35   H26   1.110856 S    
V4    O20   2.172388 S    
O4    C2    1.307475 A    
O6    V2    2.001748 S    
C27   C28   1.519588 S    
O15   V3    2.004499 S    
O2    C1    1.306005 A    
C18   C19   1.490322 S    
C10   C11   1.552671 S    
C2    C30   1.488738 S    
C12   H8    1.113153 S    
C20   H17   1.111670 S    
O23   H29   0.990865 S    
C5    H1    1.088031 S    
C13   C20   1.489530 S    
O3    C4    1.307398 A    
C8    N1    1.446873 S    
C11   H11   1.112738 S    
C16   H13   1.081217 S    
C6    H4    1.111781 S    
N1    O24   1.300434 A    
S1    O23   1.682468 S    
N1    O25   1.301611 A    
O9    V2    2.009528 S    
C36   H28   1.110870 S    
C17   C18   1.400743 A    
O2    V1    2.004797 S    
C23   H18   1.080371 S    
C25   C38   1.481444 S    
C20   H16   1.111603 S    
C7    C11   1.551962 S    
C24   H19   1.081424 S    
O11   V4    2.002092 S    
C28   H22   1.111858 S    
O1    C2    1.306388 A    
C21   C26   1.393130 A    
C8    H7    1.115781 S    
C35   C36   1.529755 S    
O5    V1    2.002325 S    
O8    C3    1.309083 A    
C7    C9    1.560655 S    
C28   H23   1.111629 S    
C29   C30   1.405308 A    
O7    V2    1.720663 S    
O4    V1    2.005038 S    
C10   C12   1.552741 S    
O3    V1    2.004386 S    
V3    O20   1.721869 S    
C15   C16   1.409524 A    
C26   C27   1.490113 S    
O15   C39   1.303217 A    
C5    H2    1.113237 S    
H5    C7    1.113445 S    
H6    C11   1.112983 S    
C34   C35   1.488849 S    
C6    H3    1.112752 S    
C32   C33   1.412341 A    
C30   C31   1.413470 A    
C13   C18   1.393677 A    
V1    O10   1.721918 S    
O19   C40   1.306790 A    
O13   V3    2.002396 S    
