data_mof_unit_22643.cif
_audit_creation_date              2012-12-10T18:59:12-0500
_audit_creation_method            fapswitch 2.2
_symmetry_space_group_name_H-M    P1
_symmetry_Int_Tables_number       1
_space_group_crystal_system       triclinic
_cell_length_a                    9.834973
_cell_length_b                    10.722356
_cell_length_c                    16.521783
_cell_angle_alpha                 89.577984
_cell_angle_beta                  95.879524
_cell_angle_gamma                 90.629828
_cell_volume                      1732.98531453

loop_
_atom_site_label
_atom_site_type_symbol
_atom_type_description
_atom_site_fract_x
_atom_site_fract_y
_atom_site_fract_z
_atom_type_partial_charge
C1    C     C_R   0.499274 0.260015 0.502177 0.877682
C2    C     C_R   0.500726 0.739985 0.497823 0.877674
C3    C     C_R   0.402905 0.931077 0.537596 -0.184852
C4    C     C_R   0.597095 0.068923 0.462404 -0.184850
C5    C     C_R   0.502659 0.872490 0.497497 -0.083223
C6    C     C_R   0.497341 0.127510 0.502503 -0.083218
C7    C     C_R   0.063180 0.568905 0.444102 -0.053985
C8    C     C_R   0.936820 0.431095 0.555898 -0.053986
C9    C     C_R   0.919271 0.568795 0.444082 -0.066132
C10   C     C_R   0.080729 0.431205 0.555917 -0.066131
C11   C     C_R   0.519711 0.498511 0.653958 0.871094
C12   C     C_R   0.480289 0.501489 0.346042 0.871099
C13   C     C_R   0.538031 0.508721 0.742133 -0.140738
C14   C     C_R   0.461968 0.491281 0.257867 -0.140737
C15   C     C_R   0.513476 0.624513 0.778024 -0.100258
C16   C     C_R   0.486514 0.375488 0.221975 -0.100258
C17   C     C_R   0.529000 0.634359 0.863418 -0.059721
C18   C     C_R   0.470982 0.365640 0.136581 -0.059717
C19   C     C_R   0.571783 0.529656 0.910540 0.158595
C20   C     C_R   0.428202 0.470345 0.089460 0.158598
C21   C     C_R   0.612044 0.418903 0.874530 0.002641
C22   C     C_R   0.387947 0.581099 0.125471 0.002637
C23   C     C_R   0.594149 0.407504 0.789204 0.075178
C24   C     C_R   0.405850 0.592499 0.210797 0.075177
C25   C     C_R   0.398943 0.059091 0.541135 0.198777
C26   C     C_R   0.601058 0.940909 0.458865 0.198778
H1    H     H_    0.328275 0.876519 0.566960 0.161605
H2    H     H_    0.671724 0.123481 0.433039 0.161603
H3    H     H_    0.110706 0.624031 0.399469 0.130077
H4    H     H_    0.889294 0.375969 0.600531 0.130077
H5    H     H_    0.857744 0.623613 0.399270 0.138055
H6    H     H_    0.142256 0.376387 0.600730 0.138055
N1    N     N_2   0.553104 0.529231 0.993799 -0.157802
N2    N     N_2   0.446879 0.470770 0.006202 -0.157804
N3    N     N_R   0.857210 0.499970 0.500020 -0.082771
N4    N     N_R   0.142790 0.500030 0.499980 -0.082771
O1    O     O_R   0.614620 0.316750 0.500010 -0.634835
O2    O     O_R   0.385380 0.683250 0.499990 -0.634835
O3    O     O_R   0.385290 0.316780 0.500000 -0.605810
O4    O     O_R   0.614710 0.683220 0.500000 -0.605812
O5    O     O_R   0.627460 0.498830 0.616130 -0.600854
O6    O     O_R   0.372540 0.501170 0.383870 -0.600852
O7    O     O_R   0.398130 0.498850 0.616130 -0.627769
O8    O     O_R   0.601870 0.501150 0.383870 -0.627769
Zn1   Zn    Zn3+2 0.653130 0.499980 0.500000 0.949466
Zn2   Zn    Zn3+2 0.346870 0.500020 0.500000 0.949468
C27   C     C_2   0.522332 0.265163 0.274833 0.490817
H7    H     H_    0.592885 0.275109 0.329209 0.049241
O9    O     O_2   0.468910 0.163473 0.259811 -0.542392
C28   C     C_2   0.477655 0.734838 0.725166 0.490797
H8    H     H_    0.407122 0.724886 0.670782 0.049249
O10   O     O_2   0.531050 0.836534 0.740198 -0.542400
C29   C     C_2   0.506717 0.250484 0.093957 0.571632
H9    H     H_    0.454384 0.228635 0.034622 0.036885
O11   O     O_2   0.598457 0.182350 0.122365 -0.515217
C30   C     C_2   0.493250 0.749510 0.906041 0.571654
H10   H     H_    0.545587 0.771372 0.965373 0.036876
O12   O     O_2   0.401490 0.817625 0.877636 -0.515203
C31   C     C_2   0.667707 0.315215 0.927667 0.430437
H11   H     H_    0.639007 0.219203 0.913971 0.076211
O13   O     O_2   0.746315 0.336744 0.988169 -0.511529
C32   C     C_2   0.332278 0.684785 0.072335 0.430441
H12   H     H_    0.360979 0.780798 0.086029 0.076212
O14   O     O_2   0.253663 0.663255 0.011836 -0.511520
C33   C     C_3   0.635591 0.290611 0.746693 -0.853344
H13   H     H_    0.682793 0.218007 0.787839 0.237535
H14   H     H_    0.544745 0.248492 0.711492 0.232193
H15   H     H_    0.712729 0.314749 0.704496 0.250042
C34   C     C_3   0.364414 0.709393 0.253309 -0.853341
H16   H     H_    0.317213 0.781998 0.212164 0.237537
H17   H     H_    0.287279 0.685259 0.295509 0.250040
H18   H     H_    0.455264 0.751510 0.288508 0.232193
C35   C     C_3   0.291451 0.118320 0.587170 -0.836725
H19   H     H_    0.339059 0.187601 0.631163 0.232403
H20   H     H_    0.213619 0.164189 0.543833 0.248268
H21   H     H_    0.237189 0.048276 0.622320 0.239109
C36   C     C_3   0.708551 0.881680 0.412832 -0.836729
H22   H     H_    0.660944 0.812398 0.368838 0.232404
H23   H     H_    0.762814 0.951724 0.377682 0.239106
H24   H     H_    0.786382 0.835811 0.456169 0.248269

loop_
_geom_bond_atom_site_label_1
_geom_bond_atom_site_label_2
_ccdc_geom_bond_type
C7    H3    S    
C35   H19   S    
C27   O9    D    
C36   H22   S    
C22   C24   A    
C19   C21   A    
C21   C31   S    
O6    Zn2   S    
C6    C25   A    
C30   H10   S    
C13   C23   A    
C15   C17   A    
C7    N4    A    
C15   C28   S    
C14   C24   A    
C34   H17   S    
C32   O14   D    
C18   C29   S    
C33   H14   S    
C28   O10   D    
N4    Zn2   S    
C18   C20   A    
C1    O1    A    
C20   N2    S    
C36   H23   S    
C31   H11   S    
C35   H20   S    
C16   C27   S    
C4    H2    S    
C24   C34   S    
N1    N2    D    
C29   O11   D    
C21   C23   A    
O4    Zn1   S    
C31   O13   D    
C26   C36   S    
C12   O6    A    
C1    C6    S    
C3    C25   A    
C4    C6    A    
C19   N1    S    
C1    O3    A    
C29   H9    S    
C8    N3    A    
C34   H18   S    
C32   H12   S    
C10   H6    S    
C22   C32   S    
C2    O2    A    
C27   H7    S    
C33   H15   S    
C28   H8    S    
C11   O7    A    
C17   C30   S    
O3    Zn2   S    
C8    C10   A    
C12   C14   S    
C13   C15   A    
C35   H21   S    
C14   C16   A    
C2    C5    S    
O1    Zn1   S    
N3    Zn1   S    
O8    Zn1   S    
C36   H24   S    
C7    C9    A    
C20   C22   A    
C3    C5    A    
C4    C26   A    
C8    H4    S    
C23   C33   S    
C3    H1    S    
C12   O8    A    
C11   C13   S    
C17   C19   A    
C30   O12   D    
C11   O5    A    
C25   C35   S    
C34   H16   S    
O7    Zn2   S    
O2    Zn2   S    
C9    H5    S    
C5    C26   A    
C2    O4    A    
C16   C18   A    
C33   H13   S    
C9    N3    A    
O5    Zn1   S    
C10   N4    A    
