data_mof_unit_13001.cif
_audit_creation_date              2012-12-10T18:51:31-0500
_audit_creation_method            fapswitch 2.2
_symmetry_space_group_name_H-M    P1
_symmetry_Int_Tables_number       1
_space_group_crystal_system       triclinic
_cell_length_a                    10.719968
_cell_length_b                    9.923649
_cell_length_c                    10.563952
_cell_angle_alpha                 88.886435
_cell_angle_beta                  91.323985
_cell_angle_gamma                 90.048267
_cell_volume                      1123.29358545

loop_
_atom_site_label
_atom_site_type_symbol
_atom_type_description
_atom_site_fract_x
_atom_site_fract_y
_atom_site_fract_z
_atom_type_partial_charge
C1    C     C_R   0.872331 0.500367 0.491766 0.005886
C2    C     C_R   0.127496 0.500557 0.495412 -0.006052
C3    C     C_R   0.260116 0.500105 0.499048 0.856237
C4    C     C_R   0.739824 0.500139 0.497219 0.820708
C5    C     C_R   0.499886 0.500672 0.257910 0.908973
C6    C     C_R   0.500823 0.499075 0.742137 0.875215
C7    C     C_3   0.596021 0.571987 0.041760 0.104036
C8    C     C_3   0.405675 0.426001 0.958481 0.083349
C9    C     C_3   0.606571 0.445445 0.963725 0.116464
C10   C     C_3   0.394983 0.552734 0.036684 0.088863
C11   C     C_3   0.490451 0.628602 0.954286 -0.268640
C12   C     C_3   0.511305 0.369613 0.046112 -0.225520
C13   C     C_3   0.501297 0.498460 0.876385 -0.070779
C14   C     C_3   0.500475 0.499973 0.123777 -0.066658
C15   C     C_R   0.557596 0.070219 0.596142 0.379792
C16   C     C_R   0.445305 0.930131 0.401891 0.345234
C17   C     C_R   0.438019 0.074809 0.406700 0.356283
C18   C     C_R   0.554813 0.926351 0.598084 0.361387
C19   C     C_R   0.063873 0.378309 0.505521 -0.205795
C20   C     C_R   0.935790 0.622751 0.478733 -0.209903
C21   C     C_R   0.936348 0.378003 0.500949 -0.214745
C22   C     C_R   0.063733 0.622863 0.480237 -0.185289
H1    H     H_    0.482189 0.732881 0.915106 0.196014
H2    H     H_    0.519704 0.264717 0.083905 0.175797
H3    H     H_    0.112020 0.283204 0.518101 0.149225
H4    H     H_    0.887195 0.717932 0.467487 0.143608
H5    H     H_    0.888702 0.282212 0.506034 0.143274
H6    H     H_    0.112164 0.718235 0.470259 0.164825
N1    N     N_R   0.500000 0.857200 0.500000 -0.199763
N2    N     N_R   0.500000 0.142800 0.500000 -0.198856
O1    O     O_R   0.316770 0.614620 0.499990 -0.601176
O2    O     O_R   0.683230 0.385380 0.500010 -0.624580
O3    O     O_R   0.683230 0.614620 0.500010 -0.639514
O4    O     O_R   0.316770 0.385380 0.499990 -0.605401
O5    O     O_R   0.499970 0.614650 0.313950 -0.571603
O6    O     O_R   0.500030 0.385350 0.686050 -0.573696
O7    O     O_R   0.500030 0.614650 0.686050 -0.578641
O8    O     O_R   0.499970 0.385350 0.313950 -0.578812
Zn1   Zn    Zn3+2 0.500000 0.653120 0.500000 1.003422
Zn2   Zn    Zn3+2 0.500000 0.346880 0.500000 1.006573
O9    O     O_3   0.608227 0.137432 0.698218 -0.554113
C23   C     C_3   0.739254 0.145571 0.688023 -0.254183
H7    H     H_    0.767191 0.252839 0.688594 0.178226
H8    H     H_    0.778359 0.098853 0.602221 0.098588
H9    H     H_    0.783806 0.097946 0.773294 0.153030
O10   O     O_3   0.392763 0.861250 0.301474 -0.558990
C24   C     C_3   0.450804 0.901573 0.188036 -0.225257
H10   H     H_    0.405111 0.992097 0.144947 0.184571
H11   H     H_    0.438299 0.820573 0.119245 0.193284
H12   H     H_    0.553071 0.919091 0.200414 0.113077
O11   O     O_3   0.370258 0.149015 0.316914 -0.572618
C25   C     C_3   0.241824 0.120448 0.328061 -0.262747
H13   H     H_    0.187962 0.208215 0.289906 0.173225
H14   H     H_    0.213541 0.102739 0.427894 0.126791
H15   H     H_    0.215166 0.032211 0.270462 0.186229
O12   O     O_3   0.594395 0.857596 0.706711 -0.566250
C26   C     C_3   0.721356 0.821057 0.699255 -0.194282
H16   H     H_    0.766373 0.849081 0.608339 0.105314
H17   H     H_    0.730339 0.710754 0.715241 0.178565
H18   H     H_    0.774572 0.867928 0.778001 0.135362
N3    N     N_3   0.703287 0.647032 0.089791 -0.447294
H19   H     H_    0.669788 0.726162 0.142954 0.181340
H20   H     H_    0.747097 0.690520 0.011642 0.183885
N4    N     N_3   0.300102 0.348951 0.909473 -0.466105
H21   H     H_    0.252370 0.310601 0.987440 0.183105
H22   H     H_    0.336107 0.266080 0.862935 0.209634
N5    N     N_3   0.725164 0.390470 0.925075 -0.450062
H23   H     H_    0.751431 0.442043 0.842708 0.156810
H24   H     H_    0.709331 0.290099 0.902240 0.210806
N6    N     N_3   0.278725 0.609047 0.080842 -0.435643
H25   H     H_    0.222032 0.629433 0.000994 0.192838
H26   H     H_    0.234168 0.533786 0.133624 0.183119

loop_
_geom_bond_atom_site_label_1
_geom_bond_atom_site_label_2
_ccdc_geom_bond_type
C2    C22   A    
C15   C18   A    
O5    Zn1   S    
C9    N5    S    
C1    C21   A    
N6    H25   S    
O7    Zn1   S    
O9    C23   S    
C12   H2    S    
C24   H10   S    
O1    Zn1   S    
C25   H15   S    
C18   O12   S    
C8    C12   S    
C1    C4    S    
N4    H21   S    
N1    Zn1   S    
N3    H20   S    
C2    C3    S    
C26   H16   S    
C6    O7    A    
N2    Zn2   S    
C24   H11   S    
C18   N1    A    
C22   H6    S    
C5    O8    A    
O12   C26   S    
C6    C13   S    
C3    O1    A    
C17   N2    A    
C11   C13   S    
C17   O11   S    
C5    C14   S    
C4    O2    A    
C23   H8    S    
C8    N4    S    
O4    Zn2   S    
C5    O5    A    
C11   H1    S    
O8    Zn2   S    
C12   C14   S    
C25   H14   S    
C7    C11   S    
C24   H12   S    
C10   C11   S    
O2    Zn2   S    
C21   H5    S    
N3    H19   S    
C19   H3    S    
C9    C12   S    
C26   H17   S    
C16   N1    A    
C23   H7    S    
C20   C22   A    
N5    H24   S    
O11   C25   S    
C8    C13   S    
C10   N6    S    
C20   H4    S    
O6    Zn2   S    
C25   H13   S    
C15   O9    S    
C15   N2    A    
C8    C10   S    
C10   C14   S    
C16   O10   S    
C7    C9    S    
C9    C13   S    
O10   C24   S    
C7    N3    S    
C1    C20   A    
N6    H26   S    
C3    O4    A    
C19   C21   A    
C2    C19   A    
C4    O3    A    
O3    Zn1   S    
C7    C14   S    
N5    H23   S    
C6    O6    A    
C16   C17   A    
C26   H18   S    
C23   H9    S    
N4    H22   S    
