data_mof_unit_37881.cif
_audit_creation_date              2012-12-10T16:53:06-0500
_audit_creation_method            fapswitch 2.2
_symmetry_space_group_name_H-M    P1
_symmetry_Int_Tables_number       1
_space_group_crystal_system       triclinic
_cell_length_a                    10.768185
_cell_length_b                    10.922551
_cell_length_c                    9.70138
_cell_angle_alpha                 90.163085
_cell_angle_beta                  89.966274
_cell_angle_gamma                 89.788974
_cell_volume                      1141.0254274

loop_
_atom_site_label
_atom_site_type_symbol
_atom_type_description
_atom_site_fract_x
_atom_site_fract_y
_atom_site_fract_z
_atom_type_partial_charge
C1    C     C_R   0.497926 0.265391 0.499901 0.831045
C2    C     C_R   0.065903 0.392473 0.567371 0.045569
C3    C     C_R   0.128848 0.488873 0.499959 -0.046604
C4    C     C_R   0.063651 0.579616 0.429285 -0.159332
C5    C     C_R   0.935584 0.579409 0.429260 -0.168000
C6    C     C_R   0.871231 0.488384 0.499781 -0.052631
C7    C     C_2   0.496645 0.932793 0.386954 -0.147328
C8    C     C_2   0.507323 0.866789 0.502606 -0.279249
C9    C     C_2   0.502498 0.066743 0.386665 -0.139136
C10   C     C_2   0.489876 0.133508 0.501799 -0.257550
C11   C     C_2   0.578826 0.440802 0.921967 -0.011377
C12   C     C_R   0.262604 0.496937 0.500051 0.785524
C13   C     C_2   0.577275 0.438787 0.077489 -0.033574
C14   C     C_R   0.501394 0.734678 0.500243 0.856036
C15   C     C_R   0.737398 0.496320 0.499939 0.783033
C16   C     C_R   0.130263 0.294933 0.630544 -0.331352
C17   C     C_R   0.067495 0.198579 0.694925 0.323607
C18   C     C_R   0.936115 0.196790 0.692276 0.395101
C19   C     C_R   0.871938 0.293615 0.629259 -0.334061
C20   C     C_R   0.935139 0.392097 0.567176 0.034418
Cu1   Cu    Cu3+1 0.500020 0.500020 0.638630 0.997905
Cu2   Cu    Cu3+1 0.499980 0.499980 0.361370 0.971743
H1    H     H_    0.112305 0.652400 0.376326 0.159635
H2    H     H_    0.471016 0.092710 0.601024 0.205068
H3    H     H_    0.652187 0.389859 0.870573 0.172057
H4    H     H_    0.426929 0.544627 0.893875 0.207202
H5    H     H_    0.647791 0.384131 0.128487 0.167570
H6    H     H_    0.432550 0.552181 0.106431 0.203134
H7    H     H_    0.230474 0.291461 0.627858 0.195152
H8    H     H_    0.771761 0.290050 0.626687 0.196932
H9    H     H_    0.886242 0.652069 0.376311 0.162657
H10   H     H_    0.485684 0.887751 0.287744 0.187666
H11   H     H_    0.523529 0.908229 0.602387 0.192977
H12   H     H_    0.516125 0.111048 0.287707 0.190812
N1    N     N_2   0.498640 0.498660 0.846910 -0.279025
N2    N     N_2   0.498610 0.498630 0.153040 -0.282838
O1    O     O_R   0.500020 0.321960 0.617040 -0.556749
O2    O     O_R   0.499980 0.321920 0.382900 -0.576196
O3    O     O_R   0.319670 0.500020 0.617100 -0.567903
O4    O     O_R   0.319630 0.499980 0.382950 -0.573773
O5    O     O_R   0.500020 0.678080 0.617100 -0.559410
O6    O     O_R   0.499980 0.678040 0.382960 -0.577589
O7    O     O_R   0.680370 0.500020 0.617050 -0.581847
O8    O     O_R   0.680330 0.499980 0.382900 -0.576868
S1    S     S_3+6 0.159070 0.081738 0.771848 0.066025
O9    O     O_2   0.288099 0.127607 0.800043 -0.312427
O10   O     O_2   0.103082 0.040668 0.905692 -0.170519
O11   O     O_3   0.168143 0.961431 0.663753 -0.469652
H13   H     H_    0.214069 0.992163 0.582451 0.333472
S2    S     S_3+6 0.847452 0.076195 0.764331 0.044951
O12   O     O_2   0.849234 0.087522 0.918738 -0.251358
O13   O     O_2   0.715169 0.083325 0.715576 -0.333302
O14   O     O_3   0.907122 0.939765 0.717716 -0.453692
H14   H     H_    0.854398 0.878424 0.764470 0.374052

loop_
_geom_bond_atom_site_label_1
_geom_bond_atom_site_label_2
_ccdc_geom_bond_type
C12   O4    A    
S2    O13   D    
Cu1   N1    S    
C2    C16   A    
C9    C10   D    
C19   C20   A    
Cu1   O3    S    
C1    O1    A    
C14   O6    A    
Cu2   O4    S    
C12   O3    A    
C11   N1    D    
C2    C3    A    
C3    C12   S    
C16   H7    S    
C15   O7    A    
C7    C8    D    
Cu2   O6    S    
O14   H14   S    
C11   C13   S    
H6    N2    S    
C9    H12   S    
C6    C20   A    
C13   N2    D    
C14   O5    A    
Cu1   O5    S    
C1    O2    A    
Cu1   Cu2   S    
O11   H13   S    
C17   S1    S    
C15   O8    A    
S2    O12   D    
C8    H11   S    
S1    O10   D    
C5    C6    A    
S2    O14   S    
C16   C17   A    
C11   H3    S    
C2    C20   A    
C3    C4    A    
Cu2   O2    S    
S1    O9    D    
H4    N1    S    
Cu2   N2    S    
C18   S2    S    
Cu1   O1    S    
C17   C18   A    
C18   C19   A    
S1    O11   S    
C7    C9    S    
C4    H1    S    
C13   H5    S    
C8    C14   S    
C7    H10   S    
C10   H2    S    
C6    C15   S    
Cu1   O7    S    
C19   H8    S    
Cu2   O8    S    
C1    C10   S    
C4    C5    A    
C5    H9    S    
