data_mof_unit_53277.cif
_audit_creation_date              2012-12-11T16:27:30-0500
_audit_creation_method            fapswitch 2.2
_symmetry_space_group_name_H-M    P1
_symmetry_Int_Tables_number       1
_space_group_crystal_system       triclinic
_cell_length_a                    21.721397
_cell_length_b                    6.989531
_cell_length_c                    14.42527
_cell_angle_alpha                 90.443448
_cell_angle_beta                  103.997308
_cell_angle_gamma                 90.495553
_cell_volume                      2124.86040813

loop_
_atom_site_label
_atom_site_type_symbol
_atom_type_description
_atom_site_fract_x
_atom_site_fract_y
_atom_site_fract_z
_atom_type_partial_charge
O1    O     O_R   0.835850 0.638310 0.002120 -0.538522
O2    O     O_R   0.164150 0.361690 0.997880 -0.538681
O3    O     O_R   0.664150 0.138310 0.997880 -0.537062
O4    O     O_R   0.335850 0.861690 0.002120 -0.536524
O5    O     O_R   0.717530 0.306070 0.861970 -0.542283
O6    O     O_R   0.282470 0.693930 0.138030 -0.543650
O7    O     O_R   0.782470 0.806070 0.138030 -0.541906
O8    O     O_R   0.217530 0.193930 0.861970 -0.540945
C1    C     C_R   0.702331 0.474508 0.824934 0.679193
C2    C     C_R   0.297184 0.524868 0.175422 0.682783
C3    C     C_R   0.796433 0.977903 0.175305 0.682778
C4    C     C_R   0.202338 0.023095 0.825169 0.681576
O9    O     O_R   0.838690 0.308440 0.993250 -0.537891
O10   O     O_R   0.161310 0.691560 0.006750 -0.538644
O11   O     O_R   0.661310 0.808440 0.006750 -0.541309
O12   O     O_R   0.338690 0.191560 0.993250 -0.540049
O13   O     O_R   0.786170 0.140510 0.130090 -0.540890
O14   O     O_R   0.213830 0.859490 0.869910 -0.541930
O15   O     O_R   0.713830 0.640510 0.869910 -0.541379
O16   O     O_R   0.286170 0.359490 0.130090 -0.537761
C5    C     C_R   0.865189 0.478465 0.997800 0.711666
C6    C     C_R   0.134750 0.521422 0.001747 0.710270
C7    C     C_R   0.634542 0.976117 0.000746 0.708925
C8    C     C_R   0.365031 0.023045 0.996613 0.711918
O17   O     O_3   0.732630 0.472520 0.044740 -0.365648
O18   O     O_3   0.267370 0.527480 0.955260 -0.365714
O19   O     O_3   0.767370 0.972520 0.955260 -0.364804
O20   O     O_3   0.232630 0.027480 0.044740 -0.366229
V1    V     V_3+5 0.753220 0.196740 0.991700 1.408668
V2    V     V_3+5 0.246780 0.803260 0.008300 1.408684
V3    V     V_3+5 0.746780 0.696740 0.008300 1.403565
V4    V     V_3+5 0.253220 0.303260 0.991700 1.403335
C9    C     C_R   0.533243 0.987721 0.815626 0.069657
C10   C     C_R   0.466227 0.009123 0.179873 0.075702
C11   C     C_R   0.966757 0.475541 0.181705 0.074740
C12   C     C_R   0.033388 0.517389 0.817730 0.071069
C13   C     C_R   0.484887 0.973494 0.732306 -0.105824
C14   C     C_R   0.512697 0.967264 0.262316 -0.108580
C15   C     C_R   0.014963 0.448534 0.264012 -0.107356
C16   C     C_R   0.985339 0.542863 0.735138 -0.108308
C17   C     C_R   0.421995 0.963990 0.734873 0.192302
C18   C     C_R   0.574188 0.927599 0.258838 0.187056
C19   C     C_R   0.077605 0.434735 0.260374 0.186491
C20   C     C_R   0.922580 0.555531 0.738273 0.192385
C21   C     C_R   0.405504 0.980093 0.822455 -0.157306
C22   C     C_R   0.591425 0.937824 0.171899 -0.157162
C23   C     C_R   0.093941 0.455060 0.173126 -0.157835
C24   C     C_R   0.906069 0.538404 0.825643 -0.154344
C25   C     C_R   0.452528 0.995935 0.910123 -0.009404
C26   C     C_R   0.545968 0.974585 0.085087 -0.009494
C27   C     C_R   0.047077 0.481699 0.086602 -0.008729
C28   C     C_R   0.952887 0.515084 0.912605 -0.010278
C29   C     C_R   0.518289 0.990808 0.908106 0.054437
C30   C     C_R   0.480957 0.000923 0.087407 0.055330
C31   C     C_R   0.981464 0.482735 0.089151 0.054497
C32   C     C_R   0.018531 0.513756 0.910196 0.052967
C33   C     C_R   0.434076 0.012919 0.998567 -0.141740
C34   C     C_R   0.565214 0.982612 0.997258 -0.141198
C35   C     C_R   0.065667 0.505584 0.998874 -0.140567
C36   C     C_R   0.934278 0.493174 0.000529 -0.141305
C37   C     C_R   0.172843 0.015422 0.722647 -0.031623
C38   C     C_R   0.824531 0.990792 0.278282 -0.032989
C39   C     C_R   0.326123 0.520126 0.278771 -0.029803
C40   C     C_R   0.673818 0.471419 0.721737 -0.035696
C41   C     C_R   0.184493 0.017740 0.560911 -0.170667
C42   C     C_R   0.812217 0.048656 0.437567 -0.159348
C43   C     C_R   0.313838 0.524409 0.440579 -0.166958
C44   C     C_R   0.685522 0.399614 0.563105 -0.164188
C45   C     C_R   0.210025 0.045660 0.658190 -0.187210
C46   C     C_R   0.786298 0.033580 0.339812 -0.186597
C47   C     C_R   0.288542 0.547158 0.343054 -0.189897
C48   C     C_R   0.711527 0.420165 0.660541 -0.180785
C49   C     C_R   0.107237 0.989347 0.689168 -0.221530
C50   C     C_R   0.889877 0.969894 0.314194 -0.212349
C51   C     C_R   0.391328 0.490666 0.313085 -0.216911
C52   C     C_R   0.607982 0.485118 0.686079 -0.222585
C53   C     C_R   0.078495 0.987093 0.589696 0.066194
C54   C     C_R   0.918358 0.986662 0.413614 0.062653
C55   C     C_R   0.419267 0.471091 0.412421 0.062782
C56   C     C_R   0.579164 0.448586 0.587875 0.062457
C57   C     C_R   0.119084 0.979314 0.525743 0.120240
C58   C     C_R   0.878085 0.028067 0.476047 0.117296
C59   C     C_R   0.378697 0.482502 0.476607 0.116326
C60   C     C_R   0.619548 0.415268 0.524976 0.123823
C61   C     C_R   0.011307 0.994807 0.552055 0.001106
C62   C     C_R   0.985386 0.968249 0.452092 0.002500
C63   C     C_R   0.486040 0.444039 0.449771 0.005604
C64   C     C_R   0.511807 0.447801 0.550459 0.003626
C65   C     C_R   0.027505 0.925910 0.393642 -0.182880
C66   C     C_R   0.969917 0.038331 0.611065 -0.183188
C67   C     C_R   0.469514 0.441924 0.610929 -0.180442
C68   C     C_R   0.527774 0.413108 0.389731 -0.195626
C69   C     C_R   0.093459 0.935534 0.428471 0.118970
C70   C     C_R   0.904263 0.051700 0.575122 0.114413
C71   C     C_R   0.403730 0.453591 0.575333 0.117048
C72   C     C_R   0.593400 0.396523 0.425724 0.116733
H1    H     H_    0.736262 0.057541 0.311414 0.109500
H2    H     H_    0.259105 0.087604 0.684207 0.113293
H3    H     H_    0.761347 0.393400 0.689192 0.110908
H4    H     H_    0.239344 0.585279 0.317037 0.115537
H5    H     H_    0.010605 0.890082 0.319138 0.140914
H6    H     H_    0.987841 0.066014 0.686404 0.140626
H7    H     H_    0.486777 0.421714 0.686816 0.139811
H8    H     H_    0.510457 0.398623 0.313545 0.143892
C73   C     C_3   0.620084 0.871493 0.349620 -0.822887
H9    H     H_    0.666947 0.832645 0.337969 0.206776
H10   H     H_    0.625468 0.985520 0.404533 0.218643
H11   H     H_    0.600038 0.748494 0.379698 0.234526
C74   C     C_3   0.373862 0.935279 0.641807 -0.831536
H12   H     H_    0.327155 0.892315 0.652448 0.204112
H13   H     H_    0.370122 0.064411 0.597620 0.227999
H14   H     H_    0.389838 0.821920 0.599580 0.226864
C75   C     C_3   0.874328 0.583728 0.645840 -0.825383
H15   H     H_    0.826677 0.614020 0.656620 0.207280
H16   H     H_    0.889339 0.703256 0.607359 0.230604
H17   H     H_    0.873081 0.460221 0.597426 0.220875
C76   C     C_3   0.126124 0.401978 0.352013 -0.833705
H18   H     H_    0.172416 0.359868 0.339556 0.207087
H19   H     H_    0.131393 0.528858 0.398974 0.225643
H20   H     H_    0.109122 0.288610 0.392424 0.229029
C77   C     C_3   0.598579 0.005882 0.798243 -0.740419
H21   H     H_    0.628192 0.883429 0.828298 0.222392
H22   H     H_    0.598652 0.008014 0.721221 0.193624
H23   H     H_    0.618560 0.144702 0.827338 0.227181
C78   C     C_3   0.403871 0.071019 0.197943 -0.745004
H24   H     H_    0.391526 0.210916 0.164151 0.215472
H25   H     H_    0.366559 0.961525 0.172759 0.231702
H26   H     H_    0.406132 0.092542 0.275101 0.194953
C79   C     C_3   0.902441 0.509761 0.200517 -0.741229
H27   H     H_    0.885704 0.650766 0.172090 0.218346
H28   H     H_    0.869119 0.392808 0.170441 0.229547
H29   H     H_    0.903378 0.515994 0.277873 0.192793
C80   C     C_3   0.097403 0.476081 0.799307 -0.732107
H30   H     H_    0.132113 0.590365 0.828881 0.224528
H31   H     H_    0.112280 0.333705 0.828177 0.219087
H32   H     H_    0.096474 0.467120 0.722004 0.192795
H33   H     H_    0.496101 0.967246 0.662980 0.134601
H34   H     H_    0.501092 0.965251 0.331390 0.136419
H35   H     H_    0.003912 0.439241 0.333333 0.135259
H36   H     H_    0.996541 0.549869 0.665860 0.134944
H37   H     H_    0.355488 0.977040 0.821101 0.100703
H38   H     H_    0.640564 0.911239 0.172961 0.107259
H39   H     H_    0.143815 0.448437 0.173962 0.105141
H40   H     H_    0.856154 0.544583 0.824595 0.102763
C81   C     C_3   0.135490 0.901393 0.359912 -0.802714
H41   H     H_    0.157839 0.035232 0.343982 0.218023
H42   H     H_    0.174878 0.804632 0.391731 0.202322
H43   H     H_    0.108558 0.838464 0.290965 0.226549
C82   C     C_3   0.862916 0.078255 0.645456 -0.789566
H44   H     H_    0.831772 0.951904 0.644378 0.214783
H45   H     H_    0.891419 0.100366 0.719876 0.223641
H46   H     H_    0.830904 0.200631 0.626593 0.200856
C83   C     C_3   0.361351 0.435600 0.644578 -0.795439
H47   H     H_    0.338266 0.571960 0.653141 0.216711
H48   H     H_    0.322676 0.330186 0.617688 0.203568
H49   H     H_    0.388157 0.389797 0.716483 0.224227
C84   C     C_3   0.635008 0.376810 0.355473 -0.793271
H50   H     H_    0.665371 0.249962 0.370760 0.205003
H51   H     H_    0.606820 0.365758 0.280288 0.224507
H52   H     H_    0.667495 0.501504 0.361458 0.212820
H53   H     H_    0.916938 0.946175 0.261880 0.100802
H54   H     H_    0.080075 0.970909 0.742059 0.106114
H55   H     H_    0.580519 0.522896 0.736540 0.108943
H56   H     H_    0.418875 0.488725 0.260317 0.102295
H57   H     H_    0.216145 0.030832 0.513724 0.137619
H58   H     H_    0.779953 0.079722 0.482020 0.127566
H59   H     H_    0.282155 0.542777 0.487357 0.136444
H60   H     H_    0.717721 0.367125 0.518712 0.127793

loop_
_geom_bond_atom_site_label_1
_geom_bond_atom_site_label_2
_ccdc_geom_bond_type
O17   V3    S    
C7    C34   S    
C21   H37   S    
C63   C64   A    
O1    C5    A    
C84   H50   S    
C58   C70   A    
C41   H57   S    
O19   V1    S    
C1    C40   S    
O13   V1    S    
O3    C7    A    
C2    C39   S    
C68   C72   A    
C56   C60   A    
C3    C38   S    
O15   V3    S    
C12   C80   S    
C55   C63   A    
C81   H41   S    
C82   H46   S    
C22   H38   S    
C42   C46   A    
C61   C62   A    
C70   C82   S    
O7    C3    A    
C73   H10   S    
C24   H40   S    
C26   C30   A    
O9    V1    S    
C14   C18   A    
C76   H19   S    
C60   C72   A    
O4    C8    A    
C25   C29   A    
C47   H4    S    
C37   C45   A    
C23   H39   S    
O1    V3    S    
C25   C33   A    
C38   C46   A    
O17   V1    S    
O2    V4    S    
C18   C22   A    
O3    V1    S    
C66   H6    S    
C77   H23   S    
C28   C36   A    
C82   H44   S    
C1    O15   A    
C2    O16   A    
C8    C33   S    
O2    C6    A    
C78   H26   S    
C69   C81   S    
O14   V2    S    
C21   C25   A    
C83   H48   S    
C19   C23   A    
C11   C79   S    
C16   C20   A    
C27   C31   A    
C46   H1    S    
C44   C48   A    
C75   H17   S    
C45   H2    S    
C54   C62   A    
O11   C7    A    
C72   C84   S    
C53   C61   A    
O12   C8    A    
C17   C74   S    
C31   C36   A    
C9    C77   S    
C82   H45   S    
O10   V2    S    
O20   V4    S    
C81   H42   S    
C66   C70   A    
O5    V1    S    
C9    C29   A    
C73   H11   S    
C15   H35   S    
O7    V3    S    
C42   H58   S    
C11   C31   A    
C44   C60   A    
C12   C16   A    
C5    C36   S    
C76   H20   S    
C6    C35   S    
O18   V4    S    
C23   C27   A    
C37   C49   A    
O19   V3    S    
C65   C69   A    
C9    C13   A    
C51   H56   S    
C71   C83   S    
C26   C34   A    
C11   C15   A    
O5    C1    A    
C49   H54   S    
C12   C32   A    
C42   C58   A    
C57   C69   A    
C54   C58   A    
C41   C57   A    
C64   C67   A    
C53   C57   A    
O8    C4    A    
C59   C71   A    
C40   C52   A    
O9    C5    A    
C43   C59   A    
C83   H49   S    
O11   V3    S    
C77   H21   S    
C19   C76   S    
C80   H32   S    
C44   H60   S    
O6    V2    S    
C39   C47   A    
C20   C75   S    
O18   V2    S    
C84   H52   S    
C78   H24   S    
C74   H14   S    
C27   C35   A    
C4    O14   A    
C81   H43   S    
C80   H31   S    
C75   H15   S    
O16   V4    S    
C43   H59   S    
C3    O13   A    
C17   C21   A    
C65   H5    S    
C10   C14   A    
C52   C56   A    
C67   H7    S    
C62   C65   A    
O6    C2    A    
C50   H53   S    
C15   C19   A    
C29   C34   A    
C10   C30   A    
O12   V4    S    
C73   H9    S    
C22   C26   A    
C32   C35   A    
C61   C66   A    
C79   H29   S    
C74   H13   S    
C79   H27   S    
C56   C64   A    
C76   H18   S    
C55   C59   A    
C4    C37   S    
O10   C6    A    
C80   H30   S    
O8    V4    S    
C39   C51   A    
C10   C78   S    
C41   C45   A    
C16   H36   S    
O20   V2    S    
C43   C47   A    
C40   C48   A    
C13   C17   A    
C18   C73   S    
C77   H22   S    
C68   H8    S    
C67   C71   A    
C28   C32   A    
C24   C28   A    
C84   H51   S    
C50   C54   A    
C74   H12   S    
C78   H25   S    
C49   C53   A    
C38   C50   A    
C52   H55   S    
C13   H33   S    
C14   H34   S    
C79   H28   S    
C83   H47   S    
C63   C68   A    
C51   C55   A    
C30   C33   A    
O4    V2    S    
C20   C24   A    
C75   H16   S    
C48   H3    S    
