data_mof_unit_16112.cif
_audit_creation_date              2012-12-11T15:49:08-0500
_audit_creation_method            fapswitch 2.2
_symmetry_space_group_name_H-M    P1
_symmetry_Int_Tables_number       1
_space_group_crystal_system       triclinic
_cell_length_a                    21.698809
_cell_length_b                    7.166603
_cell_length_c                    14.859134
_cell_angle_alpha                 89.786359
_cell_angle_beta                  106.045767
_cell_angle_gamma                 90.120415
_cell_volume                      2220.65691904

loop_
_atom_site_label
_atom_site_type_symbol
_atom_type_description
_atom_site_fract_x
_atom_site_fract_y
_atom_site_fract_z
_atom_type_partial_charge
O1    O     O_R   0.335860 0.638190 0.002110 -0.533175
O2    O     O_R   0.664140 0.361810 0.997890 -0.548319
O3    O     O_R   0.164140 0.138190 0.997890 -0.529855
O4    O     O_R   0.835860 0.861810 0.002110 -0.551639
O5    O     O_R   0.217530 0.305920 0.861960 -0.532380
O6    O     O_R   0.782470 0.694080 0.138040 -0.552334
O7    O     O_R   0.282470 0.805920 0.138040 -0.540682
O8    O     O_R   0.717530 0.194080 0.861960 -0.553629
C1    C     C_R   0.205480 0.476726 0.825665 0.657246
C2    C     C_R   0.796220 0.523325 0.173888 0.719978
C3    C     C_R   0.295824 0.975788 0.174559 0.744954
C4    C     C_R   0.704325 0.023844 0.825481 0.728494
O9    O     O_R   0.338690 0.308320 0.993240 -0.509128
O10   O     O_R   0.661310 0.691680 0.006760 -0.530121
O11   O     O_R   0.161310 0.808320 0.006760 -0.534658
O12   O     O_R   0.838690 0.191680 0.993240 -0.530783
O13   O     O_R   0.286170 0.140430 0.130100 -0.516033
O14   O     O_R   0.713830 0.859570 0.869900 -0.511086
O15   O     O_R   0.213830 0.640430 0.869900 -0.552986
O16   O     O_R   0.786170 0.359570 0.130100 -0.505086
C5    C     C_R   0.364931 0.477226 0.998438 0.807029
C6    C     C_R   0.634964 0.522993 0.002146 0.717371
C7    C     C_R   0.135201 0.976830 0.002365 0.745101
C8    C     C_R   0.865280 0.023397 0.999019 0.728823
O17   O     O_3   0.232630 0.472410 0.044750 -0.375908
O18   O     O_3   0.767370 0.527590 0.955250 -0.380888
O19   O     O_3   0.267370 0.972410 0.955250 -0.377197
O20   O     O_3   0.732630 0.027590 0.044750 -0.373363
V1    V     V_3+5 0.253220 0.196620 0.991700 1.541890
V2    V     V_3+5 0.746780 0.803380 0.008300 1.485190
V3    V     V_3+5 0.246780 0.696620 0.008300 1.494261
V4    V     V_3+5 0.753220 0.303380 0.991700 1.485319
C9    C     C_R   0.040311 0.859995 0.054142 0.151313
C10   C     C_R   0.962420 0.146245 0.952311 0.133818
C11   C     C_R   0.459666 0.362939 0.946973 0.148908
C12   C     C_R   0.539141 0.640741 0.053394 0.115728
C13   C     C_R   0.975373 0.872433 0.053989 0.148631
C14   C     C_R   0.026691 0.128726 0.950496 0.162311
C15   C     C_R   0.524585 0.374703 0.947383 0.141316
C16   C     C_R   0.474322 0.626186 0.053652 0.170313
C17   C     C_R   0.934942 0.014253 0.001661 -0.160514
C18   C     C_R   0.066373 0.987351 0.002025 -0.136249
C19   C     C_R   0.565620 0.513048 0.001146 -0.158897
C20   C     C_R   0.433962 0.488295 0.999888 -0.120928
C21   C     C_R   0.677976 0.019239 0.721965 -0.165883
C22   C     C_R   0.323932 0.973019 0.277617 -0.205028
C23   C     C_R   0.826428 0.519578 0.275656 -0.161279
C24   C     C_R   0.178383 0.479817 0.722994 -0.228134
C25   C     C_R   0.689285 0.119056 0.569697 0.181620
C26   C     C_R   0.324529 0.814552 0.423275 0.242984
C27   C     C_R   0.826666 0.673404 0.421414 0.182329
C28   C     C_R   0.181502 0.332062 0.576849 0.243671
C29   C     C_R   0.716843 0.082494 0.666221 -0.082912
C30   C     C_R   0.290896 0.876593 0.333053 -0.055053
C31   C     C_R   0.791950 0.594132 0.334955 -0.073165
C32   C     C_R   0.213983 0.398138 0.666835 -0.027646
C33   C     C_R   0.612322 0.980182 0.680360 -0.045787
C34   C     C_R   0.387758 0.032187 0.318182 -0.040905
C35   C     C_R   0.892743 0.480626 0.311096 -0.048251
C36   C     C_R   0.113439 0.529712 0.683378 -0.058262
C37   C     C_R   0.586655 0.987497 0.580710 -0.041011
C38   C     C_R   0.424664 0.947217 0.403468 -0.016032
C39   C     C_R   0.924740 0.530610 0.404842 -0.047100
C40   C     C_R   0.083285 0.484094 0.587984 0.063172
C41   C     C_R   0.624325 0.068573 0.525392 0.039933
C42   C     C_R   0.392601 0.827937 0.453192 0.056893
C43   C     C_R   0.894417 0.660761 0.450119 0.024292
C44   C     C_R   0.113942 0.352165 0.543891 0.035622
C45   C     C_R   0.523183 0.922263 0.534774 0.085344
C46   C     C_R   0.492494 0.976300 0.441667 0.046596
C47   C     C_R   0.986959 0.463901 0.453853 0.058321
C48   C     C_R   0.022302 0.555280 0.536372 0.102921
C49   C     C_R   0.531827 0.039640 0.387431 -0.224818
C50   C     C_R   0.492917 0.783522 0.574345 -0.257986
C51   C     C_R   0.997596 0.722409 0.561236 -0.087262
C52   C     C_R   0.012291 0.298947 0.427576 -0.261876
C53   C     C_R   0.595914 0.088537 0.426748 0.021657
C54   C     C_R   0.429755 0.729672 0.532799 -0.037868
C55   C     C_R   0.933394 0.772113 0.522584 -0.025071
C56   C     C_R   0.075533 0.245290 0.469046 -0.029962
H1    H     H_    0.513884 0.044203 0.312079 0.175632
H2    H     H_    0.520345 0.703339 0.633807 0.141455
H3    H     H_    0.028364 0.815192 0.611454 0.161739
H4    H     H_    0.982248 0.206200 0.376519 0.135162
N1    N     N_3   0.080411 0.718558 0.109315 -0.636444
H5    H     H_    0.060709 0.588117 0.086252 0.250807
H6    H     H_    0.080087 0.734722 0.179077 0.264948
N2    N     N_3   0.926467 0.300461 0.902417 -0.611416
H7    H     H_    0.916355 0.393104 0.950534 0.247497
H8    H     H_    0.883929 0.251466 0.857271 0.263856
N3    N     N_3   0.419153 0.224128 0.890564 -0.637185
H9    H     H_    0.438132 0.092566 0.913110 0.256265
H10   H     H_    0.420080 0.242409 0.821130 0.268730
N4    N     N_3   0.577004 0.785755 0.108668 -0.611046
H11   H     H_    0.588638 0.884511 0.064106 0.259630
H12   H     H_    0.618765 0.728197 0.152441 0.258210
N5    N     N_3   0.952873 0.743540 0.111921 -0.683865
H13   H     H_    0.920947 0.649537 0.069564 0.255466
H14   H     H_    0.930280 0.816819 0.154593 0.236637
N6    N     N_3   0.051424 0.252912 0.893026 -0.622126
H15   H     H_    0.023693 0.236850 0.823783 0.307452
H16   H     H_    0.046907 0.389943 0.914286 0.262670
N7    N     N_3   0.546682 0.247420 0.888920 -0.666724
H17   H     H_    0.578179 0.151920 0.931116 0.269839
H18   H     H_    0.569649 0.321782 0.846772 0.231674
N8    N     N_3   0.449606 0.750434 0.110889 -0.620367
H19   H     H_    0.476760 0.734549 0.180546 0.260916
H20   H     H_    0.454952 0.887606 0.089960 0.267049
C57   C     C_2   0.629109 0.166012 0.360058 0.444403
H21   H     H_    0.651967 0.301551 0.372055 0.088507
O21   O     O_2   0.628480 0.082030 0.288451 -0.507810
C58   C     C_2   0.408061 0.556072 0.569005 0.366845
H22   H     H_    0.421559 0.528499 0.643805 0.072451
O22   O     O_2   0.379307 0.436239 0.515317 -0.510842
C59   C     C_2   0.911058 0.952842 0.550821 0.476331
H23   H     H_    0.871283 0.026156 0.503888 0.053052
O23   O     O_2   0.937967 0.024379 0.625933 -0.498066
C60   C     C_2   0.095303 0.061716 0.440837 0.352122
H24   H     H_    0.078096 0.017160 0.368433 0.069452
O24   O     O_2   0.126901 0.953346 0.499023 -0.519681
C61   C     C_2   0.411320 0.201098 0.279682 0.359826
H25   H     H_    0.433964 0.312026 0.326956 0.081510
O25   O     O_2   0.409403 0.213334 0.197033 -0.533264
C62   C     C_2   0.568470 0.961704 0.741395 0.306228
H26   H     H_    0.521926 0.029351 0.720968 0.096596
O26   O     O_2   0.582283 0.864877 0.811863 -0.532582
C63   C     C_2   0.075681 0.597684 0.746847 0.363317
H27   H     H_    0.097264 0.689525 0.804763 0.066938
O27   O     O_2   0.020319 0.547677 0.736344 -0.505668
C64   C     C_2   0.931253 0.423987 0.246805 0.306246
H28   H     H_    0.979140 0.480514 0.256968 0.094196
O28   O     O_2   0.911734 0.308089 0.185637 -0.531442
C65   C     C_2   0.220252 0.847187 0.296207 0.465965
H29   H     H_    0.192813 0.928470 0.236892 -0.009083
O29   O     O_2   0.191998 0.730830 0.330126 -0.514060
C66   C     C_2   0.786887 0.108520 0.711072 0.425525
H30   H     H_    0.810947 0.020596 0.769871 0.010319
O30   O     O_2   0.818058 0.229336 0.685456 -0.511049
C67   C     C_2   0.284882 0.377639 0.705179 0.449383
H31   H     H_    0.310292 0.456928 0.766330 -0.004799
O31   O     O_2   0.315687 0.271353 0.670415 -0.512938
C68   C     C_2   0.720294 0.590121 0.302557 0.383346
H32   H     H_    0.696470 0.504774 0.242834 0.016521
O32   O     O_2   0.686814 0.678517 0.340931 -0.522601
N9    N     N_3   0.727118 0.209488 0.517006 -0.695162
H33   H     H_    0.738272 0.344195 0.543115 0.269122
H34   H     H_    0.769263 0.135090 0.522896 0.267377
N10   N     N_3   0.288268 0.761601 0.487123 -0.594338
H35   H     H_    0.311034 0.807968 0.554813 0.228775
H36   H     H_    0.282172 0.617216 0.486473 0.303593
N11   N     N_3   0.794108 0.754951 0.483412 -0.665503
H37   H     H_    0.765865 0.864591 0.448277 0.268771
H38   H     H_    0.764812 0.654214 0.501660 0.271518
N12   N     N_3   0.218348 0.269381 0.515709 -0.585815
H39   H     H_    0.194479 0.298257 0.445747 0.232713
H40   H     H_    0.226639 0.126272 0.524837 0.301069

loop_
_geom_bond_atom_site_label_1
_geom_bond_atom_site_label_2
_ccdc_geom_bond_type
C34   C38   A    
C35   C64   S    
O1    C5    A    
C55   C59   S    
O19   V1    S    
O13   V1    S    
O3    C7    A    
O15   V3    S    
C52   H4    S    
C13   N5    S    
N5    H13   S    
N1    H5    S    
O7    C3    A    
C10   C17   A    
C21   C33   A    
C26   C30   A    
C7    C18   S    
C25   C41   A    
C9    C18   A    
C40   C44   A    
C16   N8    S    
O10   V2    S    
C14   C18   A    
C57   O21   D    
N9    H33   S    
C47   C52   A    
O4    C8    A    
N8    H19   S    
C28   N12   S    
C59   H23   S    
O1    V3    S    
C38   C46   A    
O2    V4    S    
C49   H1    S    
C33   C37   A    
O3    V1    S    
C9    N1    S    
C60   H24   S    
N9    H34   S    
C1    O15   A    
C53   C57   S    
C2    O16   A    
C59   O23   D    
O2    C6    A    
N11   H37   S    
C64   O28   D    
O14   V2    S    
N12   H40   S    
C28   C44   A    
O11   C7    A    
C23   C31   A    
C27   N11   S    
O12   C8    A    
C31   C68   S    
C22   C34   A    
N11   H38   S    
C8    C17   S    
C45   C46   A    
C29   C66   S    
C50   H2    S    
C48   C51   A    
C58   O22   D    
C58   H22   S    
N5    H14   S    
C24   C36   A    
O5    V1    S    
N1    H6    S    
C42   C54   A    
C56   C60   S    
C41   C53   A    
C38   C42   A    
C25   N9    S    
O8    V4    S    
C12   C16   A    
O7    V3    S    
N10   H35   S    
C66   O30   D    
N3    H9    S    
C32   C67   S    
O18   V4    S    
C4    C21   S    
C15   C19   A    
C30   C65   S    
C23   C35   A    
O11   V3    S    
C9    C13   A    
C11   C15   A    
C63   O27   D    
C39   C43   A    
O5    C1    A    
C37   C41   A    
N3    H10   S    
C5    C20   S    
C6    C19   S    
O8    C4    A    
C22   C30   A    
C46   C49   A    
N6    H16   S    
C61   H25   S    
O9    C5    A    
C45   C50   A    
N7    H18   S    
C10   N2    S    
N4    H12   S    
C11   C20   A    
C26   C42   A    
C26   N10   S    
N12   H39   S    
N10   H36   S    
C14   N6    S    
O6    V2    S    
C39   C47   A    
C65   H29   S    
C68   O32   D    
C63   H27   S    
N7    H17   S    
C62   O26   D    
O16   V4    S    
O9    V1    S    
C24   C32   A    
C3    O13   A    
C34   C61   S    
C10   C14   A    
O17   V3    S    
C36   C63   S    
C52   C56   A    
N2    H8    S    
C66   H30   S    
C12   C19   A    
O6    C2    A    
C67   H31   S    
C15   N7    S    
O12   V4    S    
C35   C39   A    
C36   C40   A    
C37   C45   A    
O10   C6    A    
O20   V2    S    
C64   H28   S    
C47   C48   A    
C57   H21   S    
C44   C56   A    
C67   O31   D    
C51   H3    S    
C27   C43   A    
N8    H20   S    
C25   C29   A    
N6    H15   S    
C27   C31   A    
C40   C48   A    
C13   C17   A    
N4    H11   S    
C60   O24   D    
C61   O25   D    
C21   C29   A    
C12   N4    S    
C16   C20   A    
N2    H7    S    
C1    C24   S    
C50   C54   A    
C4    O14   A    
C2    C23   S    
C65   O29   D    
C49   C53   A    
C68   H32   S    
C3    C22   S    
C54   C58   S    
C51   C55   A    
C43   C55   A    
O4    V2    S    
C28   C32   A    
C62   H26   S    
C33   C62   S    
C11   N3    S    
