data_mof_unit_17873.cif
_audit_creation_date              2012-12-11T15:50:41-0500
_audit_creation_method            fapswitch 2.2
_symmetry_space_group_name_H-M    P1
_symmetry_Int_Tables_number       1
_space_group_crystal_system       triclinic
_cell_length_a                    19.048807
_cell_length_b                    10.949806
_cell_length_c                    18.710949
_cell_angle_alpha                 89.861148
_cell_angle_beta                  91.01306
_cell_angle_gamma                 90.13375
_cell_volume                      3902.1118699

loop_
_atom_site_label
_atom_site_type_symbol
_atom_type_description
_atom_site_fract_x
_atom_site_fract_y
_atom_site_fract_z
_atom_type_partial_charge
C1    C     C_R   0.276435 0.032504 0.857250 0.559908
C2    C     C_R   0.768054 0.547967 0.933869 0.052092
C3    C     C_R   0.229281 0.547431 0.352873 0.553571
C4    C     C_R   0.470889 0.823572 0.647628 0.558888
C5    C     C_R   0.531588 0.823633 0.354066 0.552850
C6    C     C_R   0.970889 0.323571 0.647628 0.558888
C7    C     C_R   0.031588 0.323633 0.354066 0.552850
C8    C     C_R   0.260237 0.639226 0.642800 0.546436
C9    C     C_R   0.725740 0.690030 0.363050 0.569261
C10   C     C_R   0.760237 0.139226 0.642800 0.546436
C11   C     C_R   0.225740 0.190030 0.363050 0.569261
C12   C     C_3   0.480163 0.926145 0.035902 -0.140518
C13   C     C_R   0.731720 0.047782 0.066122 0.051355
C14   C     C_3   0.520060 0.925963 0.963615 -0.140436
C15   C     C_3   0.980163 0.426145 0.035902 -0.140518
C16   C     C_3   0.020060 0.425963 0.963615 -0.140436
C17   C     C_3   0.430805 0.824865 0.007237 0.054268
C18   C     C_3   0.569160 0.824827 0.992705 0.054171
C19   C     C_3   0.930804 0.324865 0.007237 0.054268
C20   C     C_3   0.069160 0.324827 0.992705 0.054171
C21   C     C_3   0.469620 0.825327 0.936324 0.020533
C22   C     C_3   0.530363 0.825672 0.063629 0.019939
C23   C     C_3   0.969620 0.325327 0.936324 0.020533
C24   C     C_R   0.268054 0.047966 0.933869 0.052092
C25   C     C_3   0.030363 0.325672 0.063629 0.019939
C26   C     C_2   0.354676 0.810370 0.020505 0.540850
C27   C     C_2   0.645206 0.810145 0.979379 0.540842
C28   C     C_2   0.854676 0.310370 0.020505 0.540849
C29   C     C_2   0.145206 0.310145 0.979379 0.540842
C30   C     C_R   0.283124 0.484589 0.028853 0.099839
C31   C     C_R   0.716521 0.484710 0.971342 0.099585
C32   C     C_R   0.783125 0.984589 0.028853 0.099839
C33   C     C_R   0.216521 0.984709 0.971342 0.099585
C34   C     C_R   0.290409 0.500476 0.956256 0.027822
C35   C     C_R   0.709270 0.500623 0.043921 0.027504
C36   C     C_R   0.790409 0.000476 0.956256 0.027822
C37   C     C_R   0.723480 0.032459 0.142752 0.561551
C38   C     C_R   0.209270 0.000623 0.043921 0.027504
C39   C     C_R   0.181233 0.609425 0.951813 -0.105722
C40   C     C_R   0.818584 0.609950 0.048084 -0.106202
C41   C     C_R   0.681233 0.109425 0.951813 -0.105722
C42   C     C_R   0.318584 0.109950 0.048085 -0.106202
C43   C     C_R   0.176784 0.601007 0.025653 -0.150251
C44   C     C_R   0.823029 0.601480 0.974244 -0.149986
C45   C     C_R   0.676784 0.101007 0.025653 -0.150251
C46   C     C_R   0.323030 0.101479 0.974244 -0.149986
C47   C     C_3   0.359427 0.471065 0.042059 -0.274391
C48   C     C_R   0.776435 0.532504 0.857250 0.559907
C49   C     C_3   0.640170 0.470976 0.958220 -0.274830
C50   C     C_3   0.859427 0.971065 0.042059 -0.274391
C51   C     C_3   0.140170 0.970977 0.958220 -0.274830
C52   C     C_3   0.368452 0.492164 0.961945 -0.280738
C53   C     C_3   0.631217 0.491956 0.038297 -0.280476
C54   C     C_3   0.868452 0.992164 0.961945 -0.280738
C55   C     C_3   0.131217 0.991957 0.038297 -0.280475
C56   C     C_R   0.242964 0.572861 0.917242 0.079436
C57   C     C_R   0.756833 0.573138 0.082785 0.078835
C58   C     C_R   0.742964 0.072861 0.917242 0.079436
C59   C     C_R   0.223480 0.532459 0.142752 0.561551
C60   C     C_R   0.256833 0.073137 0.082785 0.078835
C61   C     C_R   0.513900 0.831134 0.429001 0.019885
C62   C     C_R   0.504565 0.830611 0.578678 0.021635
C63   C     C_R   0.013900 0.331134 0.429001 0.019885
C64   C     C_R   0.004565 0.330611 0.578678 0.021635
C65   C     C_R   0.440964 0.817376 0.863112 0.596756
C66   C     C_R   0.559040 0.817703 0.136870 0.597803
C67   C     C_R   0.940964 0.317376 0.863112 0.596756
C68   C     C_R   0.059040 0.317703 0.136870 0.597803
C69   C     C_R   0.518802 0.723613 0.468156 0.025674
C70   C     C_3   0.519117 0.725821 0.964648 -0.155128
C71   C     C_R   0.515937 0.722362 0.541016 0.027815
C72   C     C_R   0.018802 0.223613 0.468156 0.025674
C73   C     C_R   0.015936 0.222362 0.541016 0.027815
C74   C     C_R   0.510473 0.942145 0.541664 -0.170547
C75   C     C_R   0.514622 0.942415 0.466727 -0.162797
C76   C     C_R   0.010473 0.442145 0.541664 -0.170547
C77   C     C_R   0.014622 0.442415 0.466727 -0.162797
C78   C     C_3   0.479824 0.606689 0.459088 -0.281754
C79   C     C_3   0.477051 0.602899 0.539739 -0.268498
C80   C     C_3   0.979824 0.106689 0.459088 -0.281754
C81   C     C_3   0.480604 0.725998 0.035724 -0.154780
C82   C     C_3   0.977051 0.102898 0.539739 -0.268498
C83   C     C_R   0.253291 0.595764 0.420143 0.020364
C84   C     C_R   0.747421 0.613791 0.583704 0.022890
C85   C     C_R   0.753290 0.095764 0.420143 0.020364
C86   C     C_R   0.247421 0.113792 0.583704 0.022890
C87   C     C_R   0.217881 0.691345 0.452730 0.023116
C88   C     C_R   0.795635 0.689330 0.548893 0.024928
C89   C     C_R   0.717881 0.191345 0.452730 0.023116
C90   C     C_R   0.295635 0.189330 0.548893 0.024928
C91   C     C_R   0.218330 0.698557 0.525595 0.047001
C92   C     C_3   0.019117 0.225821 0.964648 -0.155129
C93   C     C_R   0.786884 0.716665 0.477777 0.019941
C94   C     C_R   0.718329 0.198557 0.525595 0.047001
C95   C     C_R   0.286884 0.216665 0.477777 0.019941
C96   C     C_R   0.298329 0.529390 0.535755 -0.176619
C97   C     C_R   0.675078 0.612681 0.476511 -0.157007
C98   C     C_R   0.798329 0.029390 0.535755 -0.176619
C99   C     C_R   0.175078 0.112681 0.476511 -0.157007
C100  C     C_R   0.299830 0.524096 0.461642 -0.172343
C101  C     C_R   0.683528 0.586081 0.549277 -0.157776
C102  C     C_R   0.799830 0.024096 0.461642 -0.172343
C103  C     C_3   0.980604 0.225998 0.035724 -0.154780
C104  C     C_R   0.183528 0.086081 0.549278 -0.157775
C105  C     C_3   0.143496 0.736081 0.447337 -0.272114
C106  C     C_3   0.873258 0.672711 0.541279 -0.269517
C107  C     C_3   0.643496 0.236081 0.447337 -0.272114
C108  C     C_3   0.373258 0.172712 0.541279 -0.269518
C109  C     C_3   0.144052 0.740920 0.528058 -0.267414
C110  C     C_3   0.863471 0.699904 0.463082 -0.268508
C111  C     C_3   0.644052 0.240920 0.528058 -0.267413
C112  C     C_3   0.363471 0.199904 0.463082 -0.268508
C113  C     C_R   0.259686 0.633234 0.850170 0.585544
C114  C     C_R   0.231720 0.547782 0.066122 0.051355
C115  C     C_R   0.740266 0.633268 0.149828 0.595109
C116  C     C_R   0.759686 0.133234 0.850170 0.585544
C117  C     C_R   0.240266 0.133268 0.149828 0.595109
C118  C     C_R   0.253740 0.612592 0.568183 0.027099
C119  C     C_R   0.729109 0.671551 0.439498 0.018255
C120  C     C_R   0.753740 0.112592 0.568183 0.027099
C121  C     C_R   0.229109 0.171551 0.439498 0.018255
C122  C     C_R   0.270942 0.049053 0.647245 0.552410
C123  C     C_R   0.729281 0.047431 0.352873 0.553571
C124  C     C_R   0.770942 0.549053 0.647245 0.552410
Cr1   Cr    Cr6+3 0.229640 0.835880 0.747370 1.021196
Cr2   Cr    Cr6+3 0.614230 0.677220 0.250660 1.013421
Cr3   Cr    Cr6+3 0.885770 0.177220 0.749340 1.012987
Cr4   Cr    Cr6+3 0.114230 0.177220 0.250660 1.013421
Cr5   Cr    Cr6+3 0.770360 0.835880 0.252630 1.014746
Cr6   Cr    Cr6+3 0.729640 0.335880 0.747370 1.021196
Cr7   Cr    Cr6+3 0.270360 0.335880 0.252630 1.014746
Cr8   Cr    Cr6+3 0.387390 0.989720 0.750850 1.015298
Cr9   Cr    Cr6+3 0.612610 0.989720 0.249150 1.011963
Cr10  Cr    Cr6+3 0.887390 0.489720 0.750850 1.015298
Cr11  Cr    Cr6+3 0.112610 0.489720 0.249150 1.011963
Cr12  Cr    Cr6+3 0.385770 0.677220 0.749340 1.012987
H1    H     H_    0.506325 0.028075 0.569665 0.117608
H2    H     H_    0.508371 0.527244 0.563794 0.123538
H3    H     H_    0.927962 0.120594 0.432385 0.148262
H4    H     H_    0.008372 0.027244 0.563794 0.123538
H5    H     H_    0.330925 0.468034 0.567370 0.126292
H6    H     H_    0.629476 0.578451 0.448128 0.137810
H7    H     H_    0.830925 0.968034 0.567370 0.126292
H8    H     H_    0.129476 0.078451 0.448128 0.137810
H9    H     H_    0.331822 0.455511 0.437243 0.138922
H10   H     H_    0.643558 0.534357 0.576363 0.118869
H11   H     H_    0.831822 0.955511 0.437243 0.138922
H12   H     H_    0.516041 0.028564 0.438492 0.121264
H13   H     H_    0.143558 0.034357 0.576363 0.118869
H14   H     H_    0.105171 0.668353 0.426436 0.160872
H15   H     H_    0.889856 0.577031 0.550933 0.164173
H16   H     H_    0.605171 0.168353 0.426436 0.160872
H17   H     H_    0.389856 0.077032 0.550933 0.164173
H18   H     H_    0.139904 0.827921 0.422061 0.137242
H19   H     H_    0.904179 0.743576 0.570497 0.130259
H20   H     H_    0.639904 0.327921 0.422061 0.137242
H21   H     H_    0.404179 0.243576 0.570497 0.130259
H22   H     H_    0.139466 0.834545 0.549393 0.141683
H23   H     H_    0.006325 0.528075 0.569665 0.117608
H24   H     H_    0.891032 0.784288 0.446517 0.124464
H25   H     H_    0.639466 0.334545 0.549393 0.141683
H26   H     H_    0.391032 0.284288 0.446517 0.124464
H27   H     H_    0.108746 0.672462 0.552820 0.135486
H28   H     H_    0.874052 0.619097 0.428993 0.161549
H29   H     H_    0.608746 0.172462 0.552820 0.135486
H30   H     H_    0.374052 0.119098 0.428993 0.161549
H31   H     H_    0.464418 0.008670 0.065886 0.126015
H32   H     H_    0.535986 0.008326 0.933239 0.125675
H33   H     H_    0.964418 0.508670 0.065886 0.126015
H34   H     H_    0.016041 0.528564 0.438492 0.121264
H35   H     H_    0.035986 0.508326 0.933239 0.125675
H36   H     H_    0.528819 0.641106 0.935015 0.133644
H37   H     H_    0.470800 0.641432 0.065752 0.134207
H38   H     H_    0.028818 0.141106 0.935015 0.133644
H39   H     H_    0.970799 0.141432 0.065752 0.134207
H40   H     H_    0.139495 0.657152 0.923503 0.119542
H41   H     H_    0.860398 0.657761 0.076285 0.119717
H42   H     H_    0.639495 0.157152 0.923503 0.119542
H43   H     H_    0.360398 0.157761 0.076285 0.119717
H44   H     H_    0.130879 0.638961 0.050645 0.124577
H45   H     H_    0.012029 0.032440 0.436287 0.131677
H46   H     H_    0.869008 0.639565 0.949163 0.124481
H47   H     H_    0.630879 0.138960 0.050645 0.124577
H48   H     H_    0.369008 0.139564 0.949163 0.124481
H49   H     H_    0.873382 0.877118 0.059504 0.139653
H50   H     H_    0.126051 0.876990 0.941020 0.139115
H51   H     H_    0.373382 0.377118 0.059504 0.139653
H52   H     H_    0.626052 0.376989 0.941020 0.139115
H53   H     H_    0.377891 0.544089 0.078240 0.148968
H54   H     H_    0.621697 0.544019 0.921922 0.149042
H55   H     H_    0.877891 0.044089 0.078240 0.148967
H56   H     H_    0.923160 0.111562 0.559735 0.176849
H57   H     H_    0.121698 0.044020 0.921922 0.149043
H58   H     H_    0.394659 0.579422 0.948687 0.170426
H59   H     H_    0.605097 0.579065 0.051369 0.170314
H60   H     H_    0.894659 0.079422 0.948687 0.170426
H61   H     H_    0.105097 0.079066 0.051369 0.170314
H62   H     H_    0.388947 0.410701 0.933864 0.126003
H63   H     H_    0.610654 0.410361 0.066589 0.126683
H64   H     H_    0.888947 0.910701 0.933864 0.126003
H65   H     H_    0.110653 0.910362 0.066588 0.126683
H66   H     H_    0.278680 0.793079 0.093504 0.329145
H67   H     H_    0.512029 0.532440 0.436287 0.131677
H68   H     H_    0.721069 0.792795 0.906334 0.328510
H69   H     H_    0.778679 0.293079 0.093504 0.329145
H70   H     H_    0.221069 0.292795 0.906334 0.328510
H71   H     H_    0.423160 0.611563 0.559735 0.176850
H72   H     H_    0.427963 0.620595 0.432385 0.148262
O1    O     O_R   0.214300 0.709080 0.827500 -0.520542
O2    O     O_R   0.543340 0.717710 0.330180 -0.522755
O3    O     O_R   0.956660 0.217710 0.669820 -0.521144
O4    O     O_R   0.043340 0.217710 0.330180 -0.522755
O5    O     O_R   0.320590 0.625770 0.672930 -0.516074
O6    O     O_R   0.679410 0.625770 0.327070 -0.512376
O7    O     O_R   0.820590 0.125770 0.672930 -0.516074
O8    O     O_R   0.179410 0.125770 0.327070 -0.512376
O9    O     O_3   0.334270 0.834280 0.749190 -0.267556
O10   O     O_3   0.665730 0.834280 0.250810 -0.290126
O11   O     O_3   0.834270 0.334280 0.749190 -0.267556
O12   O     O_R   0.785700 0.709080 0.172500 -0.516937
O13   O     O_3   0.165730 0.334280 0.250810 -0.290126
O14   O     O_R   0.236190 0.958390 0.823150 -0.489474
O15   O     O_R   0.763810 0.958390 0.176850 -0.488598
O16   O     O_R   0.736190 0.458390 0.823150 -0.489474
O17   O     O_R   0.263810 0.458390 0.176850 -0.488598
O18   O     O_R   0.332090 0.075280 0.831290 -0.540893
O19   O     O_R   0.667910 0.075280 0.168710 -0.538460
O20   O     O_R   0.832090 0.575280 0.831290 -0.540893
O21   O     O_R   0.167910 0.575280 0.168710 -0.538460
O22   O     O_R   0.446280 0.918040 0.826620 -0.500591
O23   O     O_R   0.714300 0.209080 0.827500 -0.520542
O24   O     O_R   0.553720 0.918040 0.173380 -0.497418
O25   O     O_R   0.946280 0.418040 0.826620 -0.500591
O26   O     O_R   0.053720 0.418040 0.173380 -0.497418
O27   O     O_R   0.457080 0.716270 0.831760 -0.521498
O28   O     O_R   0.542920 0.716270 0.168240 -0.520630
O29   O     O_R   0.957080 0.216270 0.831760 -0.521498
O30   O     O_R   0.042920 0.216270 0.168240 -0.520630
O31   O     O_R   0.320980 0.624440 0.823040 -0.513021
O32   O     O_R   0.679020 0.624440 0.176960 -0.508545
O33   O     O_R   0.820980 0.124440 0.823040 -0.513021
O34   O     O_R   0.285700 0.209080 0.172500 -0.516937
O35   O     O_R   0.179020 0.124440 0.176960 -0.508545
O36   O     O_R   0.213880 0.710510 0.665560 -0.520807
O37   O     O_R   0.786120 0.710510 0.334440 -0.522335
O38   O     O_R   0.713880 0.210510 0.665560 -0.520807
O39   O     O_R   0.286120 0.210510 0.334440 -0.522335
O40   O     O_R   0.235800 0.959720 0.673040 -0.505365
O41   O     O_R   0.764200 0.959720 0.326960 -0.525813
O42   O     O_R   0.735800 0.459720 0.673040 -0.505365
O43   O     O_R   0.264200 0.459720 0.326960 -0.525813
O44   O     O_R   0.331670 0.076720 0.669350 -0.524572
O45   O     O_R   0.445900 0.919370 0.676500 -0.505321
O46   O     O_R   0.668330 0.076720 0.330650 -0.524066
O47   O     O_R   0.831670 0.576720 0.669350 -0.524572
O48   O     O_R   0.168330 0.576720 0.330650 -0.524066
O49   O     O_2   0.314275 0.793017 0.970410 -0.568492
O50   O     O_R   0.330915 0.809412 0.090693 -0.699902
O51   O     O_2   0.685580 0.792532 0.029468 -0.569342
O52   O     O_R   0.668889 0.809210 0.909165 -0.701926
O53   O     O_2   0.814275 0.293017 0.970410 -0.568492
O54   O     O_R   0.830915 0.309412 0.090693 -0.699902
O55   O     O_2   0.185580 0.292532 0.029468 -0.569342
O56   O     O_R   0.554100 0.919370 0.323500 -0.504981
O57   O     O_R   0.168889 0.309209 0.909165 -0.701926
O58   O     O_R   0.945900 0.419370 0.676500 -0.505321
O59   O     O_R   0.054100 0.419370 0.323500 -0.504981
O60   O     O_R   0.456660 0.717710 0.669820 -0.521144

loop_
_geom_bond_atom_site_label_1
_geom_bond_atom_site_label_2
_ccdc_geom_bond_type
C1    O18   A    
C18   C70   S    
Cr9   O56   S    
C83   C87   A    
H70   O57   S    
C76   H23   S    
C34   C56   A    
C39   H40   S    
C87   C91   A    
C98   H7    S    
C35   C53   S    
C29   O57   S    
C14   C18   S    
C13   C32   A    
Cr10  O58   S    
C111  H25   S    
Cr5   O15   S    
C86   C104  A    
C108  H21   S    
C12   H31   S    
C71   C79   S    
C7    O4    A    
Cr6   O38   S    
C8    C118  S    
C90   C95   A    
C57   C115  S    
Cr5   O37   S    
Cr1   O14   S    
C61   C75   A    
C15   C19   S    
C5    O2    A    
C20   C92   S    
C45   H47   S    
C50   C54   S    
C65   O22   A    
C17   C26   S    
C32   C36   A    
C14   C21   S    
C96   C118  A    
C3    O43   A    
C41   C58   A    
C123  O41   A    
Cr5   O12   S    
C36   C58   A    
C95   C112  S    
H66   O50   S    
C43   C114  A    
C30   C114  A    
C115  O32   A    
C48   O20   A    
C49   H52   S    
C28   O54   S    
C10   O7    A    
C15   C25   S    
C20   C25   S    
C8    O36   A    
Cr4   O30   S    
Cr10  O11   S    
C55   H65   S    
Cr12  O27   S    
C4    C62   S    
C94   C111  S    
C54   H64   S    
C68   O26   A    
C15   H33   S    
Cr1   O36   S    
Cr8   O9    S    
C42   C46   A    
C3    C83   S    
C6    C64   S    
C89   C94   A    
C69   C71   A    
C70   C81   S    
C70   H36   S    
C3    O48   A    
C22   C66   S    
C123  O46   A    
C124  O42   A    
Cr2   O6    S    
C92   C103  S    
C96   H5    S    
C88   C93   A    
C94   C120  A    
C108  H17   S    
C2    C44   A    
C77   H34   S    
Cr3   O33   S    
C12   C17   S    
C86   C122  S    
C5    O56   A    
C82   H4    S    
C56   C113  S    
C111  H29   S    
Cr11  O48   S    
C41   H42   S    
Cr2   O28   S    
C42   H43   S    
C13   C37   S    
C107  H20   S    
C16   C20   S    
C11   O8    A    
C99   C121  A    
C82   H56   S    
C117  O34   A    
C95   C121  A    
C99   C104  A    
Cr2   O32   S    
C58   C116  S    
C84   C101  A    
Cr1   O1    S    
C69   C78   S    
C11   C121  S    
C25   C68   S    
C19   C103  S    
C4    O45   A    
C31   C49   S    
C124  O47   A    
C109  H22   S    
C90   C108  S    
C53   H59   S    
Cr7   O43   S    
C20   C29   S    
Cr6   O42   S    
C102  H11   S    
Cr11  O13   S    
C74   H1    S    
Cr5   O41   S    
C43   H44   S    
C91   C118  A    
C54   H60   S    
C74   C75   A    
C30   C34   A    
C21   C70   S    
Cr3   O11   S    
C19   C28   S    
C53   H63   S    
C22   C81   S    
Cr9   O19   S    
C99   H8    S    
C60   C117  S    
C52   H58   S    
C78   H67   S    
C37   O15   A    
C80   C82   S    
C8    O5    A    
C86   C90   A    
C42   C60   A    
C85   C89   A    
C78   C79   S    
C25   C103  S    
C39   C43   A    
C6    O3    A    
C48   O16   A    
C2    C48   S    
C27   O52   S    
C98   C102  A    
C46   H48   S    
C67   O29   A    
C17   C21   S    
C37   O19   A    
C108  C112  S    
C66   O28   A    
C1    O14   A    
Cr10  O20   S    
C104  H13   S    
C47   H53   S    
C19   C23   S    
Cr11  O59   S    
C6    O58   A    
Cr5   O10   S    
C105  H14   S    
Cr8   O18   S    
C30   C47   S    
C88   C106  S    
Cr7   O17   S    
Cr11  O21   S    
C39   C56   A    
C87   C105  S    
C113  O31   A    
C100  H9    S    
C64   C73   A    
C62   C74   A    
C112  H30   S    
C89   C107  S    
C103  H39   S    
C64   C76   A    
Cr11  O26   S    
C5    C61   S    
C101  H10   S    
Cr7   O13   S    
C80   H45   S    
C76   C77   A    
C7    O59   A    
C50   H55   S    
C7    C63   S    
Cr7   O39   S    
Cr8   O45   S    
Cr4   O8    S    
C38   C60   A    
C107  H16   S    
C117  O35   A    
Cr9   O10   S    
Cr3   O3    S    
C12   C14   S    
Cr3   O29   S    
C16   C23   S    
C83   C100  A    
C116  O23   A    
Cr2   O2    S    
C9    C119  S    
C12   C22   S    
C31   C35   A    
C115  O12   A    
C84   C124  S    
C14   H32   S    
C59   O21   A    
C44   H46   S    
C73   C82   S    
C40   C57   A    
C9    O37   A    
Cr8   O44   S    
C38   C55   S    
C122  O40   A    
Cr12  O5    S    
C63   C77   A    
C61   C69   A    
C105  C109  S    
C116  O33   A    
C67   O25   A    
C17   C81   S    
C110  H28   S    
C106  H15   S    
C21   C65   S    
Cr9   O46   S    
C18   C22   S    
C107  C111  S    
C65   O27   A    
C32   C50   S    
C18   C27   S    
C84   C88   A    
C105  H18   S    
C72   C73   A    
Cr1   O40   S    
Cr7   O34   S    
Cr8   O22   S    
Cr4   O13   S    
Cr10  O47   S    
C98   C120  A    
C47   C52   S    
C49   H54   S    
C9    O6    A    
C33   C51   S    
C80   H3    S    
C27   O51   D    
C93   C110  S    
C34   C52   S    
C24   C33   A    
Cr12  O60   S    
C10   O38   A    
C35   C57   A    
C92   H38   S    
C91   C109  S    
Cr6   O16   S    
C4    O60   A    
Cr9   O24   S    
C11   O39   A    
C72   C80   S    
C51   H57   S    
C68   O30   A    
C112  H26   S    
Cr4   O4    S    
C66   O24   A    
C13   C45   A    
H68   O52   S    
C16   H35   S    
Cr3   O7    S    
C55   H61   S    
C26   O49   D    
C23   C67   S    
Cr6   O23   S    
C59   C114  S    
C79   H71   S    
C15   C16   S    
C96   C100  A    
C75   H12   S    
C97   C119  A    
C29   O55   D    
Cr10  O25   S    
C62   C71   A    
C85   C123  S    
C109  H27   S    
C51   C55   S    
Cr6   O11   S    
C59   O17   A    
C110  H24   S    
C78   H72   S    
C97   H6    S    
C49   C53   S    
C36   C54   S    
C122  O44   A    
C40   H41   S    
Cr2   O10   S    
C40   C44   A    
C79   H2    S    
C52   H62   S    
C63   C72   A    
C1    C24   S    
C106  C110  S    
C106  H19   S    
H69   O54   S    
Cr12  O31   S    
C26   O50   S    
C51   H50   S    
Cr4   O35   S    
C41   C45   A    
C23   C92   S    
C2    C31   A    
C33   C38   A    
C93   C119  A    
C50   H49   S    
C47   H51   S    
Cr12  O9    S    
C10   C120  S    
C97   C101  A    
C85   C102  A    
C28   O53   D    
C81   H37   S    
C24   C46   A    
C113  O1    A    
Cr1   O9    S    
