data_mof_unit_51606.cif
_audit_creation_date              2012-12-11T16:29:35-0500
_audit_creation_method            fapswitch 2.2
_symmetry_space_group_name_H-M    P1
_symmetry_Int_Tables_number       1
_space_group_crystal_system       triclinic
_cell_length_a                    6.952258
_cell_length_b                    17.316137
_cell_length_c                    18.767823
_cell_angle_alpha                 106.226478
_cell_angle_beta                  89.322854
_cell_angle_gamma                 90.191723
_cell_volume                      2169.23286509

loop_
_atom_site_label
_atom_site_type_symbol
_atom_type_description
_atom_site_fract_x
_atom_site_fract_y
_atom_site_fract_z
_atom_type_partial_charge
O1    O     O_R   0.494360 0.415680 0.413760 -0.533564
O2    O     O_R   0.818810 0.432910 0.557230 -0.524323
O3    O     O_R   0.994290 0.584320 0.586240 -0.535478
C1    C     C_R   0.649834 0.417425 0.581877 0.726997
O4    O     O_R   0.823740 0.406440 0.412520 -0.518580
O5    O     O_R   0.999250 0.557660 0.440500 -0.523844
C2    C     C_R   0.656447 0.380601 0.387134 0.702871
O6    O     O_R   0.489400 0.442340 0.559500 -0.529132
O7    O     O_3   0.662500 0.549650 0.509350 -0.363548
V1    V     V_3+5 0.935340 0.490790 0.498270 1.443695
O8    O     O_R   0.329270 0.567090 0.442770 -0.528355
C3    C     C_R   0.161303 0.583919 0.419278 0.714408
O9    O     O_R   0.324340 0.593560 0.587480 -0.537366
C4    C     C_R   0.154780 0.615615 0.615590 0.686995
V2    V     V_3+5 0.435970 0.509210 0.501730 1.417913
O10   O     O_3   0.158940 0.450350 0.490650 -0.356819
H1    H     H_    0.365335 0.855464 0.554524 0.180222
C5    C     C_R   0.028811 0.595393 0.756595 -0.221317
C6    C     C_R   0.971223 0.582706 0.823727 -0.221977
C7    C     C_R   0.968375 0.646715 0.889112 0.520793
C8    C     C_R   0.015510 0.723762 0.884825 -0.201765
C9    C     C_R   0.071738 0.738694 0.817008 -0.011966
C10   C     C_R   0.080439 0.672867 0.751816 0.076384
C11   C     C_R   0.120661 0.817594 0.813958 -0.156886
C12   C     C_R   0.179601 0.830578 0.744672 -0.034808
C13   C     C_R   0.195859 0.763067 0.680507 0.028625
C14   C     C_R   0.143463 0.684883 0.683710 -0.133372
C15   C     C_R   0.218492 0.909097 0.736258 0.373425
C16   C     C_R   0.293405 0.918128 0.668286 -0.065947
C17   C     C_R   0.312696 0.850337 0.607581 -0.229357
C18   C     C_R   0.260681 0.775036 0.612890 -0.173539
H2    H     H_    0.032258 0.543440 0.708515 0.125825
H3    H     H_    0.928335 0.522706 0.824033 0.122033
H4    H     H_    0.009338 0.771582 0.936157 0.113300
H5    H     H_    0.272973 0.726192 0.562535 0.127877
C19   C     C_1   0.111383 0.863293 0.132051 -0.157906
C20   C     C_1   0.118766 0.820435 0.175380 0.056929
C21   C     C_1   0.128325 0.770182 0.227233 0.014451
C22   C     C_1   0.136591 0.727988 0.271124 0.000039
C23   C     C_1   0.146247 0.678001 0.323208 0.001754
C24   C     C_1   0.153746 0.635656 0.366988 -0.221373
C25   C     C_1   0.641198 0.367433 0.635644 -0.146269
C26   C     C_1   0.637955 0.325708 0.679994 0.038177
C27   C     C_1   0.636056 0.275833 0.732202 0.005371
C28   C     C_1   0.634287 0.233317 0.775868 -0.010039
C29   C     C_1   0.630181 0.182001 0.826823 0.023882
C30   C     C_1   0.624583 0.137916 0.869065 -0.163724
H6    H     H_    0.539386 0.130271 0.449884 0.217675
C31   C     C_R   0.725192 0.405708 0.244229 -0.263246
C32   C     C_R   0.741234 0.423745 0.176047 0.453816
C33   C     C_R   0.704936 0.363545 0.111284 -0.241804
C34   C     C_R   0.646316 0.286657 0.113168 0.358160
C35   C     C_R   0.646127 0.265156 0.181269 -0.034915
C36   C     C_R   0.675008 0.327650 0.248155 -0.026084
C37   C     C_R   0.610246 0.184821 0.184577 -0.151724
C38   C     C_R   0.581829 0.169682 0.255178 -0.048631
C39   C     C_R   0.627095 0.231449 0.320963 -0.014293
C40   C     C_R   0.656153 0.311829 0.317929 -0.070371
C41   C     C_R   0.508314 0.094954 0.263270 0.382390
C42   C     C_R   0.466135 0.087049 0.334886 -0.062330
C43   C     C_R   0.544181 0.142437 0.396296 -0.246393
C44   C     C_R   0.642594 0.209926 0.388330 -0.074849
H7    H     H_    0.758290 0.452683 0.293959 0.125830
H8    H     H_    0.712884 0.377605 0.058577 0.149714
O11   O     O_R   0.775690 0.057750 0.940570 -0.536259
O12   O     O_R   0.441200 0.093570 0.087490 -0.511785
O13   O     O_R   0.265840 0.942320 0.059480 -0.508486
C45   C     C_R   0.608214 0.116911 0.115084 0.876546
O14   O     O_R   0.446270 0.067110 0.942790 -0.509490
O15   O     O_R   0.270950 0.915660 0.913750 -0.523970
C46   C     C_R   0.615380 0.084143 0.919457 0.780745
O16   O     O_R   0.770580 0.084400 0.086300 -0.545091
O17   O     O_3   0.602640 0.950400 0.990690 -0.375167
V3    V     V_3+5 0.329740 0.009200 0.001730 1.520513
O18   O     O_R   0.940900 0.906360 0.912450 -0.548381
C47   C     C_R   0.110399 0.885072 0.883672 0.781566
O19   O     O_R   0.935830 0.932820 0.057160 -0.546720
C48   C     C_R   0.103830 0.915722 0.080397 0.723068
V4    V     V_3+5 0.829130 0.990680 0.998180 1.426735
O20   O     O_3   0.106100 0.049590 0.009310 -0.361708
O21   O     O_3   0.801411 0.498222 0.169867 -0.552372
C49   C     C_3   0.698920 0.561471 0.219550 -0.226888
H9    H     H_    0.763689 0.576754 0.275568 0.139542
H10   H     H_    0.542724 0.547781 0.222558 0.132182
H11   H     H_    0.710923 0.615755 0.199405 0.169515
O22   O     O_3   0.578694 0.234965 0.048318 -0.574988
C50   C     C_3   0.386355 0.256420 0.039172 -0.232320
H12   H     H_    0.376639 0.318135 0.032459 0.131374
H13   H     H_    0.293209 0.251177 0.086296 0.141587
H14   H     H_    0.328556 0.214785 0.987906 0.166008
O23   O     O_3   0.467640 0.031229 0.202157 -0.551942
C51   C     C_3   0.614540 0.972998 0.193706 -0.169639
H15   H     H_    0.606811 0.942063 0.238145 0.132710
H16   H     H_    0.760203 0.999660 0.192617 0.116667
H17   H     H_    0.594633 0.926568 0.140068 0.162154
C52   C     C_2   0.350529 0.018925 0.346308 0.794415
O24   O     O_2   0.241887 0.981569 0.298047 -0.548263
O25   O     O_R   0.361698 0.998662 0.413270 -0.645661
H18   H     H_    0.275387 0.951717 0.414497 0.309031
C53   C     C_2   0.795882 0.242837 0.442689 0.757807
O26   O     O_2   0.777581 0.241135 0.507054 -0.568801
O27   O     O_R   0.970717 0.267190 0.418328 -0.644721
H19   H     H_    0.067650 0.284680 0.459685 0.303602
O28   O     O_3   0.906839 0.638726 0.957503 -0.557100
C54   C     C_3   0.978139 0.567817 0.970785 -0.238650
H20   H     H_    0.131813 0.556524 0.953570 0.129867
H21   H     H_    0.887105 0.515415 0.943184 0.139762
H22   H     H_    0.969763 0.574758 0.031331 0.191019
O29   O     O_3   0.181954 0.977365 0.793641 -0.549601
C55   C     C_3   0.997393 0.006208 0.783672 -0.156527
H23   H     H_    0.883229 0.965544 0.794251 0.107416
H24   H     H_    0.978658 0.014490 0.727428 0.133094
H25   H     H_    0.979352 0.066140 0.823971 0.163598
C56   C     C_2   0.346790 0.998193 0.658432 0.788752
O30   O     O_2   0.395374 0.003788 0.597172 -0.543501
O31   O     O_R   0.341462 0.067478 0.718333 -0.645261
H26   H     H_    0.369507 0.117896 0.702730 0.300363

loop_
_geom_bond_atom_site_label_1
_geom_bond_atom_site_label_2
_ccdc_geom_bond_type
O12   C45   A    
C16   C56   S    
C31   H7    S    
O17   V3    S    
C6    C7    A    
C1    O6    A    
C56   O30   D    
H6    C43   S    
C39   C44   A    
O19   C48   A    
C38   C39   A    
C12   C15   A    
C54   H21   S    
C13   C14   A    
C16   C17   A    
O11   V4    S    
C15   C16   A    
O16   V4    S    
O5    C3    A    
C17   C18   A    
O25   H18   S    
C31   C36   A    
O12   V3    S    
O31   H26   S    
C5    C6    A    
O14   C46   A    
C55   H23   S    
C51   H15   S    
O8    V2    S    
C52   O25   S    
O15   V3    S    
O1    V2    S    
C10   C14   A    
C4    C14   S    
O7    V1    S    
C2    C40   S    
C35   C37   A    
C13   C18   A    
V3    O20   S    
O9    C4    A    
H1    C17   S    
O27   H19   S    
O13   C48   A    
C51   H16   S    
O28   C54   S    
O21   C49   S    
O19   V4    S    
C54   H22   S    
C33   C34   A    
C11   C12   A    
C6    H3    S    
O23   C51   S    
O4    C2    A    
C37   C45   S    
O22   C50   S    
C11   C47   S    
C8    H4    S    
C12   C13   A    
C28   C29   S    
C51   H17   S    
C5    C10   A    
C42   C43   A    
O2    C1    A    
O18   C47   A    
C20   C21   S    
C45   O16   A    
C52   O24   D    
C37   C38   A    
C53   O27   S    
C32   C33   A    
O17   V4    S    
O14   V3    S    
O13   V3    S    
C41   O23   S    
C34   C35   A    
C55   H25   S    
C30   C46   S    
O3    C4    A    
C44   C53   S    
C42   C52   S    
C23   C24   T    
C49   H9    S    
O6    V2    S    
C49   H10   S    
O9    V2    S    
C26   C27   S    
O15   C47   A    
C18   H5    S    
C5    H2    S    
C25   C26   T    
O2    V1    S    
C22   C23   S    
C27   C28   T    
C3    C24   S    
C36   C40   A    
C29   C30   T    
C19   C20   T    
O1    C2    A    
C33   H8    S    
O5    V1    S    
C56   O31   S    
O8    C3    A    
C35   C36   A    
C7    O28   S    
C15   O29   S    
C49   H11   S    
C54   H20   S    
C19   C48   S    
C38   C41   A    
C50   H13   S    
O7    V2    S    
O4    V1    S    
O3    V1    S    
O11   C46   A    
O29   C55   S    
C39   C40   A    
C21   C22   T    
C1    C25   S    
C34   O22   S    
C53   O26   D    
C9    C11   A    
C43   C44   A    
C55   H24   S    
V4    O20   S    
C41   C42   A    
C7    C8    A    
C50   H12   S    
C31   C32   A    
C50   H14   S    
C9    C10   A    
V1    O10   S    
C8    C9    A    
O18   V4    S    
V2    O10   S    
C32   O21   S    
