data_mof_unit_48711.cif
_audit_creation_date              2012-12-10T18:33:31-0500
_audit_creation_method            fapswitch 2.2
_symmetry_space_group_name_H-M    P1
_symmetry_Int_Tables_number       1
_space_group_crystal_system       triclinic
_cell_length_a                    8.773813
_cell_length_b                    15.091797
_cell_length_c                    13.865909
_cell_angle_alpha                 90.287625
_cell_angle_beta                  96.7447
_cell_angle_gamma                 89.644628
_cell_volume                      1823.26252545

loop_
_atom_site_label
_atom_site_type_symbol
_atom_type_description
_atom_site_fract_x
_atom_site_fract_y
_atom_site_fract_z
_atom_type_partial_charge
C1    C     C_R   0.499473 0.330003 0.499683 0.781902
C2    C     C_R   0.502262 0.670172 0.500463 0.785546
C3    C     C_R   0.616679 0.542144 0.116831 -0.284824
C4    C     C_R   0.428974 0.431870 0.886378 -0.282852
C5    C     C_R   0.613760 0.541997 0.218055 0.080370
C6    C     C_R   0.429258 0.433513 0.784967 0.081199
C7    C     C_R   0.386091 0.458076 0.200697 0.082610
C8    C     C_R   0.570332 0.566579 0.796185 0.086713
C9    C     C_R   0.383145 0.457934 0.099034 -0.286797
C10   C     C_R   0.570545 0.568247 0.897651 -0.285717
C11   C     C_R   0.499902 0.500030 0.054667 0.132262
C12   C     C_R   0.499827 0.500039 0.945278 0.132481
C13   C     C_R   0.204621 0.501583 0.476569 0.874938
C14   C     C_R   0.795358 0.497864 0.523483 0.871564
C15   C     C_2   0.043312 0.521232 0.469905 -0.057891
C16   C     C_2   0.956799 0.478267 0.530440 -0.055537
C17   C     C_R   0.427200 0.094382 0.561094 -0.211832
C18   C     C_R   0.453088 0.906588 0.421538 -0.214142
C19   C     C_R   0.422025 0.186234 0.561663 -0.197089
C20   C     C_R   0.449454 0.814779 0.419630 -0.198558
C21   C     C_R   0.504614 0.233733 0.499302 -0.045618
C22   C     C_R   0.507578 0.766795 0.501849 -0.050582
C23   C     C_R   0.593386 0.189234 0.436702 -0.232379
C24   C     C_R   0.570950 0.811354 0.585866 -0.230608
C25   C     C_R   0.604079 0.096646 0.437272 0.174488
C26   C     C_R   0.579361 0.903992 0.588341 0.174395
C27   C     C_R   0.520140 0.048951 0.501364 0.094650
C28   C     C_R   0.520443 0.951836 0.504091 0.095654
Cu1   Cu    Cu3+1 0.500000 0.499990 0.596430 0.927642
Cu2   Cu    Cu3+1 0.500000 0.500010 0.403570 0.924787
H1    H     H_    0.351078 0.220201 0.609237 0.136554
H2    H     H_    0.398531 0.781388 0.354475 0.152122
H3    H     H_    0.657135 0.227176 0.388878 0.143041
H4    H     H_    0.616174 0.773560 0.649222 0.136262
H5    H     H_    0.711460 0.574291 0.088190 0.126235
H6    H     H_    0.375023 0.376575 0.917931 0.125568
H7    H     H_    0.703361 0.575535 0.264111 0.112536
H8    H     H_    0.372955 0.380979 0.741267 0.111842
H9    H     H_    0.296104 0.424667 0.233043 0.123121
H10   H     H_    0.626341 0.619198 0.761389 0.114000
N1    N     N_R   0.500000 0.500020 0.258690 -0.171663
N2    N     N_R   0.500000 0.499980 0.741310 -0.169917
O1    O     O_R   0.500010 0.371450 0.581430 -0.600832
O2    O     O_R   0.499990 0.628550 0.418570 -0.593700
O3    O     O_R   0.500010 0.371460 0.418560 -0.580547
O4    O     O_R   0.499990 0.628540 0.581440 -0.590127
O5    O     O_R   0.274840 0.499990 0.562640 -0.595542
O6    O     O_R   0.725160 0.500010 0.437360 -0.605204
O7    O     O_R   0.274840 0.500000 0.399770 -0.592848
O8    O     O_R   0.725160 0.500000 0.600230 -0.581433
C29   C     C_3   0.987493 0.600590 0.405925 -0.428320
C30   C     C_3   0.088104 0.682425 0.427058 -0.842132
H11   H     H_    0.104634 0.696955 0.506217 0.251836
H12   H     H_    0.200952 0.672168 0.400370 0.260752
H13   H     H_    0.032504 0.740710 0.388621 0.237772
H14   H     H_    0.987437 0.581564 0.328414 0.209019
H15   H     H_    0.870429 0.623349 0.416107 0.218925
C31   C     C_3   0.012598 0.399302 0.595153 -0.422217
C32   C     C_3   0.915277 0.316462 0.571882 -0.850696
H16   H     H_    0.800083 0.325264 0.595836 0.268183
H17   H     H_    0.903803 0.301988 0.492733 0.246796
H18   H     H_    0.970810 0.258650 0.611289 0.235853
H19   H     H_    0.131313 0.377859 0.587699 0.214843
H20   H     H_    0.008565 0.418000 0.672422 0.218269
H21   H     H_    0.358001 0.058389 0.607343 0.132529
H22   H     H_    0.402574 0.942724 0.358265 0.132644
C33   C     C_3   0.703938 0.052176 0.368503 -0.418569
C34   C     C_3   0.849238 0.011224 0.421863 -0.829659
H23   H     H_    0.912747 0.061208 0.469770 0.250611
H24   H     H_    0.820973 0.953465 0.465324 0.265184
H25   H     H_    0.924974 0.987619 0.368183 0.238473
H26   H     H_    0.638638 0.001070 0.323668 0.200267
H27   H     H_    0.740126 0.101211 0.316209 0.196194
C35   C     C_3   0.649101 0.948409 0.681713 -0.415918
C36   C     C_3   0.803925 0.990694 0.671681 -0.835851
H28   H     H_    0.882905 0.941448 0.643964 0.249479
H29   H     H_    0.789920 0.048555 0.622501 0.266363
H30   H     H_    0.856268 0.014434 0.743915 0.237609
H31   H     H_    0.569573 0.998742 0.706288 0.200380
H32   H     H_    0.667486 0.899151 0.741385 0.193163
H33   H     H_    0.288295 0.425852 0.055954 0.127040
H34   H     H_    0.624324 0.623594 0.937824 0.124937

loop_
_geom_bond_atom_site_label_1
_geom_bond_atom_site_label_2
_ccdc_geom_bond_type
C4    H6    S    
C1    C21   S    
C5    H7    S    
Cu1   N2    S    
Cu2   O3    S    
C25   C33   S    
C19   H1    S    
C2    O4    A    
Cu1   O5    S    
Cu2   O6    S    
C19   C21   A    
C24   C26   A    
C29   H14   S    
C15   C16   D    
C33   H26   S    
C17   C19   A    
C1    O1    A    
C2    O2    A    
C34   H23   S    
C23   H3    S    
C2    C22   S    
C6    H8    S    
Cu2   N1    S    
C29   H15   S    
C15   C29   S    
C4    C12   A    
C18   C20   A    
C30   H13   S    
C23   C25   A    
C32   H16   S    
C35   H32   S    
Cu1   O1    S    
Cu2   O2    S    
C30   H12   S    
Cu1   O8    S    
C31   H20   S    
C32   H17   S    
C35   C36   S    
C29   C30   S    
C17   C27   A    
C18   C28   A    
C4    C6    A    
C13   O5    A    
C14   O6    A    
C31   C32   S    
C10   H34   S    
C24   H4    S    
C33   C34   S    
C36   H28   S    
Cu1   Cu2   S    
C36   H29   S    
C3    H5    S    
C16   C31   S    
C9    C11   A    
C10   C12   A    
C13   O7    A    
C33   H27   S    
C8    C10   A    
Cu2   O7    S    
C20   C22   A    
C35   H31   S    
C13   C15   S    
C14   C16   S    
C18   H22   S    
C30   H11   S    
C20   H2    S    
C31   H19   S    
C7    C9    A    
C5    N1    A    
C32   H18   S    
C17   H21   S    
C8    N2    A    
C3    C5    A    
C11   C12   S    
C25   C27   A    
C26   C28   A    
Cu1   O4    S    
C21   C23   A    
C1    O3    A    
C14   O8    A    
C34   H25   S    
C26   C35   S    
C22   C24   A    
C7    N1    A    
C36   H30   S    
C3    C11   A    
C34   H24   S    
C6    N2    A    
C27   C28   S    
C7    H9    S    
C8    H10   S    
C9    H33   S    
