data_mof_unit_12646.cif
_audit_creation_date              2013-03-05T16:34:53-0500
_audit_creation_method            fapswitch 2.2
_symmetry_space_group_name_H-M    P1
_symmetry_Int_Tables_number       1
_space_group_crystal_system       triclinic
_cell_length_a                    15.065932
_cell_length_b                    9.083663
_cell_length_c                    7.794622
_cell_angle_alpha                 89.944232
_cell_angle_beta                  89.999968
_cell_angle_gamma                 90.0
_cell_volume                      1066.72351744

loop_
_atom_site_label
_atom_site_type_symbol
_atom_site_description
_atom_site_fract_x
_atom_site_fract_y
_atom_site_fract_z
_atom_type_partial_charge
O1    O     O_R   0.500000 0.288390 0.642760 -0.580698
O2    O     O_R   0.500000 0.711610 0.357240 -0.580698
O3    O     O_R   0.500000 0.711610 0.642760 -0.561536
O4    O     O_R   0.500000 0.288390 0.357240 -0.561536
C1    C     C_R   0.500001 0.220072 0.500060 0.891236
C2    C     C_R   0.500000 0.779928 0.499940 0.891236
O5    O     O_R   0.370260 0.500000 0.642800 -0.564972
O6    O     O_R   0.629740 0.500000 0.357200 -0.564962
O7    O     O_R   0.629740 0.500000 0.642800 -0.564962
O8    O     O_R   0.370260 0.500000 0.357200 -0.564972
C3    C     C_R   0.328680 0.500000 0.500000 0.913794
C4    C     C_R   0.671320 0.500000 0.500000 0.913784
Cu1   Cu    Cu3+1 0.500000 0.500000 0.669080 1.095185
Cu2   Cu    Cu3+1 0.500000 0.500000 0.330920 1.095185
N1    N     N_1   0.500000 0.500000 0.076820 -0.022659
N2    N     N_1   0.500000 0.500000 0.923180 -0.022659
C5    C     C_R   0.813048 0.628421 0.547889 0.160641
C6    C     C_R   0.186953 0.371564 0.452156 0.160641
C7    C     C_R   0.813047 0.371579 0.452111 0.160640
C8    C     C_R   0.186953 0.628436 0.547845 0.160640
C9    C     C_R   0.767518 0.500000 0.500000 -0.166167
C10   C     C_R   0.232483 0.500000 0.500000 -0.166180
C11   C     C_R   0.906284 0.370845 0.452870 0.062689
C12   C     C_R   0.093717 0.629162 0.547109 0.062687
C13   C     C_R   0.906284 0.629155 0.547130 0.062688
C14   C     C_R   0.093717 0.370838 0.452892 0.062687
C15   C     C_R   0.953061 0.500000 0.500000 0.010720
C16   C     C_R   0.046940 0.500000 0.500000 0.010718
C17   C     C_R   0.953975 0.243886 0.407883 -0.150232
C18   C     C_R   0.046025 0.756119 0.592100 -0.150235
C19   C     C_R   0.953975 0.756113 0.592117 -0.150232
C20   C     C_R   0.046026 0.243881 0.407900 -0.150235
C21   C     C_1   0.500001 0.065395 0.500083 -0.057502
C22   C     C_1   0.500001 0.934605 0.499917 -0.057502
H1    H     H_    0.921124 0.142695 0.372009 0.202605
H2    H     H_    0.078877 0.857315 0.627962 0.202608
H3    H     H_    0.921124 0.857305 0.627991 0.202605
H4    H     H_    0.078878 0.142685 0.372038 0.202608
Br1   Br    Br    0.745970 0.802516 0.610158 -0.471923
Br2   Br    Br    0.254031 0.197439 0.389976 -0.471906
Br3   Br    Br    0.745970 0.197484 0.389841 -0.471923
Br4   Br    Br    0.254031 0.802561 0.610025 -0.471906

loop_
_geom_bond_atom_site_label_1
_geom_bond_atom_site_label_2
_geom_bond_distance
_ccdc_geom_bond_type
C13   C19   1.403569 A    
C8    Br4   1.938925 S    
C14   C20   1.403566 A    
C20   H4    1.081012 S    
C13   C15   1.417337 A    
C12   C16   1.417348 A    
C17   H1    1.081004 S    
C3    C10   1.449293 S    
C14   C16   1.417349 A    
O3    Cu1   1.932912 S    
C18   H2    1.081012 S    
O6    C4    1.277250 A    
O3    C2    1.273992 A    
C5    C13   1.404717 A    
C21   C22   1.188052 T    
C6    C10   1.404125 A    
Cu1   Cu2   2.635830 S    
O5    C3    1.277248 A    
O2    C2    1.274227 A    
O1    C1    1.274227 A    
C11   C17   1.403569 A    
C7    C9    1.404103 A    
C8    C10   1.404123 A    
C17   C20   1.386821 A    
C11   C15   1.417337 A    
C1    C21   1.405032 S    
C19   H3    1.081004 S    
O4    Cu2   1.932913 S    
C18   C19   1.386822 A    
O2    Cu2   1.933310 S    
O7    C4    1.277250 A    
C12   C18   1.403564 A    
O1    Cu1   1.933310 S    
O8    C3    1.277248 A    
N1    N2    1.197567 T    
C2    C22   1.405032 S    
O5    Cu1   1.965360 S    
C5    Br1   1.938881 S    
Cu1   N2    1.980613 S    
C15   C16   1.414381 A    
O7    Cu1   1.965358 S    
C7    C11   1.404719 A    
C6    Br2   1.938924 S    
O6    Cu2   1.965358 S    
Cu2   N1    1.980613 S    
C4    C9    1.449299 S    
C8    C12   1.404717 A    
C5    C9    1.404103 A    
C7    Br3   1.938881 S    
O8    Cu2   1.965360 S    
O4    C1    1.273992 A    
C6    C14   1.404716 A    
