data_mof_unit_65539.cif
_audit_creation_date              2012-12-11T15:40:32-0500
_audit_creation_method            fapswitch 2.2
_symmetry_space_group_name_H-M    P1
_symmetry_Int_Tables_number       1
_space_group_crystal_system       triclinic
_cell_length_a                    6.949274
_cell_length_b                    18.858076
_cell_length_c                    20.679413
_cell_angle_alpha                 107.142589
_cell_angle_beta                  89.519282
_cell_angle_gamma                 90.601782
_cell_volume                      2589.45764344

loop_
_atom_site_label
_atom_site_type_symbol
_atom_type_description
_atom_site_fract_x
_atom_site_fract_y
_atom_site_fract_z
_atom_type_partial_charge
O1    O     O_R   0.494330 0.423860 0.422200 -0.534814
O2    O     O_R   0.819690 0.434890 0.556180 -0.535512
O3    O     O_R   0.994310 0.576140 0.577800 -0.535015
C1    C     C_R   0.650208 0.420484 0.576362 0.723343
O4    O     O_R   0.823770 0.415220 0.421380 -0.535131
O5    O     O_R   0.998410 0.556340 0.442040 -0.535437
C2    C     C_R   0.654923 0.393779 0.395453 0.725772
O6    O     O_R   0.490230 0.443660 0.557960 -0.535995
O7    O     O_3   0.662220 0.546320 0.506940 -0.366226
V1    V     V_3+5 0.935390 0.491410 0.498710 1.471791
O8    O     O_R   0.328380 0.565110 0.443820 -0.534229
C3    C     C_R   0.160477 0.579514 0.423658 0.719477
O9    O     O_R   0.324310 0.584780 0.578620 -0.535900
C4    C     C_R   0.155313 0.606219 0.604548 0.722840
V2    V     V_3+5 0.435920 0.508590 0.501290 1.471269
O10   O     O_3   0.159220 0.453680 0.493060 -0.365797
C5    C     C_1   0.145010 0.668299 0.666874 -0.176526
C6    C     C_1   0.134411 0.719756 0.719147 0.025559
C7    C     C_1   0.121130 0.780203 0.780796 0.026322
C8    C     C_1   0.110488 0.831658 0.833070 -0.173797
C9    C     C_3   0.216362 0.787749 0.306356 0.590904
C10   C     C_3   0.030177 0.811345 0.278869 0.552056
C11   C     C_1   0.101861 0.874676 0.121680 -0.130628
C12   C     C_1   0.153195 0.625177 0.378184 -0.168797
C13   C     C_3   0.304496 0.767127 0.234774 0.503934
C14   C     C_3   0.118605 0.791100 0.207276 -0.269994
C15   C     C_3   0.226217 0.686681 0.220281 -0.339271
C16   C     C_3   0.135885 0.708318 0.292238 -0.239685
C17   C     C_3   0.038573 0.711643 0.193627 0.625020
C18   C     C_3   0.946624 0.731754 0.265227 -0.260441
C19   C     C_1   0.108994 0.836865 0.160089 0.227587
C20   C     C_1   0.145897 0.662842 0.339651 0.156584
C21   C     C_3   0.503285 0.192900 0.727240 -0.206468
C22   C     C_3   0.683571 0.209327 0.689632 0.630220
H1    H     H_    0.402519 0.145390 0.707884 0.209641
C23   C     C_1   0.640088 0.374860 0.621904 -0.161289
C24   C     C_1   0.614989 0.125380 0.878310 -0.160600
C25   C     C_3   0.449192 0.276405 0.745956 -0.127960
C26   C     C_3   0.630128 0.291624 0.708018 -0.057195
C27   C     C_3   0.569014 0.292077 0.811946 -0.176744
C28   C     C_3   0.623277 0.209199 0.792687 -0.041257
C29   C     C_3   0.750189 0.307907 0.773451 -0.298008
C30   C     C_3   0.801709 0.224793 0.754688 0.606353
C31   C     C_1   0.634582 0.337169 0.660505 0.072655
C32   C     C_1   0.619994 0.163282 0.839886 0.084218
H2    H     H_    0.302990 0.298131 0.742362 0.184232
C33   C     C_1   0.644367 0.331707 0.333131 -0.172907
C34   C     C_1   0.633872 0.280247 0.280856 0.029935
C35   C     C_1   0.620865 0.219794 0.219204 0.030266
C36   C     C_1   0.610412 0.168335 0.166928 -0.172431
O11   O     O_R   0.764940 0.056420 0.942120 -0.534094
O12   O     O_R   0.431180 0.084790 0.078640 -0.536982
O13   O     O_R   0.256690 0.943640 0.057940 -0.532086
C37   C     C_R   0.599971 0.106265 0.104602 0.726339
O14   O     O_R   0.435470 0.065130 0.943840 -0.537340
O15   O     O_R   0.261010 0.923840 0.922180 -0.534738
C38   C     C_R   0.604961 0.079591 0.923710 0.714555
O16   O     O_R   0.760620 0.076220 0.077880 -0.534573
O17   O     O_3   0.592970 0.953720 0.993110 -0.365083
V3    V     V_3+5 0.319740 0.008590 0.001280 1.478977
O18   O     O_R   0.931020 0.915140 0.921290 -0.536857
C39   C     C_R   0.100068 0.893734 0.895396 0.723813
O19   O     O_R   0.926730 0.934800 0.056090 -0.530259
C40   C     C_R   0.094618 0.920433 0.076289 0.718196
V4    V     V_3+5 0.819230 0.991300 0.998610 1.489723
O20   O     O_3   0.095870 0.046270 0.006890 -0.370261
F1    F     F_    0.930785 0.875755 0.309554 -0.555692
H3    H     H_    0.852862 0.354867 0.792344 0.160340
H4    H     H_    0.520890 0.326232 0.862847 0.162354
F2    F     F_    0.309147 0.827746 0.364805 -0.571694
H5    H     H_    0.798139 0.717225 0.277325 0.218246
F3    F     F_    0.945973 0.672154 0.134960 -0.618876
H6    H     H_    0.307021 0.635230 0.195570 0.196389
F4    F     F_    0.489030 0.785827 0.219882 -0.597390
F5    F     F_    0.744905 0.166632 0.626505 -0.608289
F6    F     F_    0.983773 0.197471 0.758589 -0.666639

loop_
_geom_bond_atom_site_label_1
_geom_bond_atom_site_label_2
_ccdc_geom_bond_type
C1    C23   S    
C15   C17   S    
C7    C8    T    
C1    O6    A    
O19   V4    S    
C18   H5    S    
C36   C37   S    
C6    C7    S    
O5    C3    A    
C25   C26   S    
O13   C40   A    
V2    O10   S    
C13   F4    S    
O11   V4    S    
O12   V3    S    
O8    V2    S    
O11   C38   A    
O7    V1    S    
C15   H6    S    
C22   F5    S    
C17   F3    S    
O14   V3    S    
C27   C29   S    
V3    O20   S    
C14   C19   S    
C9    C10   S    
C29   H3    S    
C28   C30   S    
C4    C5    S    
O13   V3    S    
O12   C37   A    
C5    C6    T    
C26   C29   S    
C27   H4    S    
C22   C26   S    
C11   C40   S    
C16   C20   S    
O4    C2    A    
C13   C14   S    
O15   V3    S    
C2    C33   S    
O2    C1    A    
C12   C20   T    
C17   C18   S    
O16   V4    S    
C33   C34   T    
C21   C22   S    
O3    C4    A    
O1    V2    S    
C34   C35   S    
C9    C16   S    
V4    O20   S    
O6    V2    S    
O9    V2    S    
O15   C39   A    
C23   C31   T    
C29   C30   S    
C24   C32   T    
O2    V1    S    
C37   O16   A    
C30   F6    S    
C9    C13   S    
C27   C28   S    
C10   C18   S    
O1    C2    A    
C22   C30   S    
O5    V1    S    
O8    C3    A    
C26   C31   S    
C13   C15   S    
C3    C12   S    
C21   C25   S    
C9    F2    S    
C21   C28   S    
O14   C38   A    
O7    V2    S    
O4    V1    S    
O3    V1    S    
V1    O10   S    
O17   V4    S    
C25   C27   S    
C16   C18   S    
C21   H1    S    
C8    C39   S    
O18   C39   A    
C10   F1    S    
C25   H2    S    
O19   C40   A    
O18   V4    S    
O17   V3    S    
C14   C17   S    
C35   C36   T    
C10   C14   S    
C15   C16   S    
C28   C32   S    
O9    C4    A    
C24   C38   S    
C11   C19   T    
