data_mof_unit_11201.cif
_audit_creation_date              2012-12-11T15:10:42-0500
_audit_creation_method            fapswitch 2.2
_symmetry_space_group_name_H-M    P1
_symmetry_Int_Tables_number       1
_space_group_crystal_system       triclinic
_cell_length_a                    21.15016
_cell_length_b                    7.23939
_cell_length_c                    18.261021
_cell_angle_alpha                 90.011549
_cell_angle_beta                  93.411717
_cell_angle_gamma                 90.01634
_cell_volume                      2791.06702848

loop_
_atom_site_label
_atom_site_type_symbol
_atom_type_description
_atom_site_fract_x
_atom_site_fract_y
_atom_site_fract_z
_atom_type_partial_charge
O1    O     O_R   0.448880 0.506250 0.415280 -0.529290
O2    O     O_R   0.551120 0.006250 0.584720 -0.529227
O3    O     O_R   0.434830 0.174000 0.557310 -0.521018
O4    O     O_R   0.565170 0.674000 0.442690 -0.521021
C1    C     C_R   0.416986 0.344574 0.579649 0.696562
C2    C     C_R   0.583013 0.844585 0.420352 0.696515
O5    O     O_R   0.441680 0.176440 0.414130 -0.530502
O6    O     O_R   0.558320 0.676440 0.585870 -0.530507
O7    O     O_R   0.558020 0.007570 0.440520 -0.519284
O8    O     O_R   0.441980 0.507570 0.559480 -0.519335
C3    C     C_R   0.428054 0.344764 0.388314 0.675431
C4    C     C_R   0.571937 0.844840 0.611685 0.675512
O9    O     O_3   0.538160 0.339670 0.508820 -0.364276
O10   O     O_3   0.461840 0.839670 0.491180 -0.364340
V1    V     V_3+5 0.492920 0.064260 0.498360 1.421041
V2    V     V_3+5 0.507080 0.564260 0.501640 1.420920
C5    C     C_R   0.876013 0.982435 0.688097 -0.159743
C6    C     C_R   0.124263 0.486704 0.311708 -0.159850
H1    H     H_    0.963884 0.009578 0.751873 0.107219
H2    H     H_    0.036409 0.513955 0.247933 0.107318
H3    H     H_    0.796212 0.980653 0.570727 0.126142
H4    H     H_    0.204188 0.486907 0.428965 0.126167
H5    H     H_    0.898051 0.011841 0.637289 0.114006
H6    H     H_    0.102358 0.518164 0.362411 0.114028
C7    C     C_R   0.887147 0.942506 0.819807 -0.035991
C8    C     C_R   0.112875 0.442961 0.180191 -0.036203
C9    C     C_R   0.582477 0.813942 0.745892 -0.159464
C10   C     C_R   0.417327 0.311034 0.254220 -0.159311
C11   C     C_R   0.617195 0.810792 0.812931 -0.119827
C12   C     C_R   0.382536 0.306732 0.187241 -0.119902
C13   C     C_R   0.682284 0.842602 0.816738 -0.156684
C14   C     C_R   0.317520 0.339664 0.183393 -0.156726
C15   C     C_R   0.714760 0.879238 0.752796 0.077161
C16   C     C_R   0.285197 0.378631 0.247229 0.077204
C17   C     C_R   0.678502 0.884244 0.683882 0.068910
C18   C     C_R   0.321546 0.384994 0.316070 0.068953
C19   C     C_R   0.781895 0.910728 0.754973 0.073514
C20   C     C_R   0.218128 0.411133 0.245016 0.073473
C21   C     C_R   0.810682 0.948292 0.688173 0.137667
C22   C     C_R   0.189508 0.451265 0.311688 0.137730
C23   C     C_R   0.774250 0.952412 0.621695 -0.198220
C24   C     C_R   0.226024 0.456712 0.378093 -0.198301
C25   C     C_R   0.709361 0.920552 0.619441 -0.190770
C26   C     C_R   0.290840 0.423714 0.380396 -0.191059
C27   C     C_R   0.821747 0.907137 0.820798 -0.213616
C28   C     C_R   0.178183 0.406188 0.179270 -0.213746
C29   C     C_R   0.913696 0.980740 0.753289 -0.165038
C30   C     C_R   0.086508 0.483862 0.246578 -0.164897
C31   C     C_R   0.612034 0.850857 0.681016 -0.080207
C32   C     C_R   0.387935 0.350401 0.318989 -0.080417
H7    H     H_    0.803568 0.879783 0.873604 0.094221
H8    H     H_    0.196237 0.376876 0.126562 0.094421
H9    H     H_    0.532009 0.787004 0.744560 0.106305
H10   H     H_    0.467718 0.283008 0.255598 0.106404
H11   H     H_    0.705770 0.837357 0.870654 0.108743
H12   H     H_    0.293967 0.333394 0.129531 0.108746
H13   H     H_    0.593418 0.782479 0.862614 0.119854
H14   H     H_    0.406190 0.276550 0.137643 0.119872
H15   H     H_    0.683437 0.924963 0.566519 0.110769
H16   H     H_    0.316833 0.429203 0.433258 0.111211
C33   C     C_1   0.864611 0.938919 0.132201 -0.209036
C34   C     C_1   0.135391 0.438951 0.867799 -0.209037
C35   C     C_1   0.821795 0.924866 0.176008 -0.002979
C36   C     C_1   0.178207 0.424894 0.823992 -0.002975
C37   C     C_1   0.771263 0.905753 0.228171 -0.003947
C38   C     C_1   0.228739 0.405762 0.771830 -0.003953
C39   C     C_1   0.728706 0.889128 0.272182 -0.004216
C40   C     C_1   0.271294 0.389120 0.727820 -0.004223
C41   C     C_1   0.678150 0.870012 0.324312 -0.002375
C42   C     C_1   0.321849 0.369984 0.675689 -0.002379
C43   C     C_1   0.635294 0.855957 0.368063 -0.206419
C44   C     C_1   0.364704 0.355926 0.631938 -0.206420
O11   O     O_R   0.058070 0.289240 0.940580 -0.519964
O12   O     O_R   0.941930 0.789240 0.059420 -0.519963
O13   O     O_R   0.058330 0.616740 0.085880 -0.532200
O14   O     O_R   0.941670 0.116740 0.914120 -0.532173
C45   C     C_R   0.072015 0.448820 0.111732 0.684059
C46   C     C_R   0.927989 0.948744 0.888272 0.684068
O15   O     O_R   0.065180 0.619040 0.942700 -0.522134
O16   O     O_R   0.934820 0.119040 0.057300 -0.522130
O17   O     O_R   0.948870 0.787780 0.915270 -0.529690
O18   O     O_R   0.051130 0.287780 0.084730 -0.529711
C47   C     C_R   0.083168 0.450329 0.920176 0.705370
C48   C     C_R   0.916833 0.950318 0.079823 0.705311
O19   O     O_3   0.961870 0.453310 0.991210 -0.365470
O20   O     O_3   0.038130 0.953310 0.008790 -0.365504
V3    V     V_3+5 0.007070 0.728770 0.001630 1.415433
V4    V     V_3+5 0.992930 0.228770 0.998370 1.415408

loop_
_geom_bond_atom_site_label_1
_geom_bond_atom_site_label_2
_ccdc_geom_bond_type
C38   C40   T    
C34   C47   S    
C35   C37   S    
C9    C11   A    
O1    C3    A    
O16   C48   A    
O2    C4    A    
C2    O7    A    
O15   V3    S    
C4    C31   S    
C18   C32   A    
C21   C23   A    
O5    C3    A    
C5    H5    S    
C6    H6    S    
C20   C22   A    
O14   C46   A    
C1    C44   S    
H1    C29   S    
C27   H7    S    
C28   H8    S    
C41   C43   T    
C5    C21   A    
C33   C35   T    
C6    C22   A    
C34   C36   T    
C10   C32   A    
C37   C39   T    
C17   C31   A    
C13   C15   A    
O12   V3    S    
C12   C14   A    
C17   C25   A    
C7    C29   A    
C8    C30   A    
C22   C24   A    
O6    V2    S    
C23   C25   A    
C24   C26   A    
C2    C43   S    
C19   C21   A    
C8    C45   S    
C7    C46   S    
O4    C2    A    
C10   H10   S    
O20   V3    S    
C15   C19   A    
C39   C41   S    
C14   C16   A    
O4    V2    S    
O11   V4    S    
O6    C4    A    
O1    V2    S    
O17   V3    S    
O2    V1    S    
O13   C45   A    
H2    C30   S    
H3    C23   S    
O13   V3    S    
C11   H13   S    
C18   C26   A    
C19   C27   A    
C7    C27   A    
O3    V1    S    
O19   V4    S    
O14   V4    S    
C16   C20   A    
C5    C29   A    
O12   C48   A    
O3    C1    A    
C33   C48   S    
C6    C30   A    
C9    H9    S    
C25   H15   S    
C10   C12   A    
O7    V1    S    
C1    O8    A    
O16   V4    S    
C3    C32   S    
O8    V2    S    
O15   C47   A    
C46   O17   A    
H4    C24   S    
C45   O18   A    
C26   H16   S    
O18   V4    S    
C12   H14   S    
O5    V1    S    
C15   C17   A    
C14   H12   S    
C16   C18   A    
C20   C28   A    
C8    C28   A    
C11   C13   A    
O9    V2    S    
C40   C42   S    
O10   V1    S    
C42   C44   T    
C13   H11   S    
O11   C47   A    
C9    C31   A    
C36   C38   S    
