data_mof_unit_42613.cif
_audit_creation_date              2012-12-10T19:45:48-0500
_audit_creation_method            fapswitch 2.2
_symmetry_space_group_name_H-M    P1
_symmetry_Int_Tables_number       1
_space_group_crystal_system       triclinic
_cell_length_a                    10.838874
_cell_length_b                    14.675565
_cell_length_c                    14.734331
_cell_angle_alpha                 65.193277
_cell_angle_beta                  103.08596
_cell_angle_gamma                 102.640437
_cell_volume                      2051.80429704

loop_
_atom_site_label
_atom_site_type_symbol
_atom_type_description
_atom_site_fract_x
_atom_site_fract_y
_atom_site_fract_z
_atom_type_partial_charge
C1    C     C_R   0.476991 0.119692 0.312422 0.801113
C2    C     C_R   0.577974 0.784179 0.972333 -0.177029
C3    C     C_R   0.435352 0.149279 0.128816 -0.177313
C4    C     C_R   0.564613 0.850754 0.871184 -0.177638
C5    C     C_R   0.484129 0.291969 0.178999 -0.220883
C6    C     C_R   0.515678 0.708043 0.821040 -0.220778
C7    C     C_R   0.485170 0.360444 0.078265 0.084083
C8    C     C_R   0.514604 0.639593 0.921788 0.084058
C9    C     C_R   0.443411 0.321034 0.002009 0.080134
C10   C     C_R   0.556389 0.679016 0.998034 0.080256
C11   C     C_R   0.517309 0.467073 0.051300 -0.100038
C12   C     C_R   0.522989 0.880308 0.687582 0.801139
C13   C     C_R   0.482417 0.532965 0.948774 -0.100146
C14   C     C_R   0.417453 0.489311 0.877240 0.391744
C15   C     C_R   0.582239 0.510730 0.122843 0.391663
C16   C     C_R   0.262880 0.999594 0.502005 0.801172
C17   C     C_R   0.737114 0.000428 0.497957 0.801189
C18   C     C_R   0.412097 0.386238 0.902182 -0.208798
C19   C     C_R   0.587633 0.613811 0.097883 -0.208925
C20   C     C_R   0.708808 0.282545 0.671214 -0.308130
C21   C     C_R   0.291240 0.717473 0.328757 -0.308106
C22   C     C_R   0.677520 0.201722 0.640462 0.082191
C23   C     C_R   0.870521 0.000292 0.496277 -0.070746
C24   C     C_R   0.322482 0.798277 0.359535 0.082164
C25   C     C_R   0.519680 0.285691 0.508516 0.058644
C26   C     C_R   0.480361 0.714329 0.491458 0.058728
C27   C     C_R   0.547846 0.371205 0.535232 -0.007422
C28   C     C_R   0.452246 0.628836 0.464713 -0.007460
C29   C     C_R   0.644002 0.367209 0.619313 0.160237
C30   C     C_R   0.356090 0.632831 0.380632 0.160173
C31   C     C_R   0.483764 0.459120 0.482904 0.092134
C32   C     C_R   0.516366 0.540939 0.517017 0.092110
C33   C     C_R   0.611604 0.531942 0.602276 -0.201543
C34   C     C_R   0.129467 0.999773 0.503623 -0.070726
C35   C     C_R   0.388551 0.468126 0.397634 -0.201577
C36   C     C_R   0.674265 0.447099 0.651738 -0.186744
C37   C     C_R   0.325873 0.552962 0.348181 -0.186927
C38   C     C_R   0.345958 0.074838 0.775169 -0.176399
C39   C     C_R   0.653874 0.924457 0.225097 -0.176409
C40   C     C_R   0.259666 0.028839 0.715044 0.051273
C41   C     C_R   0.740102 0.970713 0.285040 0.051412
C42   C     C_R   0.184022 0.088550 0.627208 0.064435
C43   C     C_R   0.815962 0.911238 0.372898 0.064474
C44   C     C_R   0.191271 0.192414 0.604628 -0.208379
C45   C     C_R   0.907815 0.956307 0.439585 0.015225
C46   C     C_R   0.809012 0.807355 0.395654 -0.208569
C47   C     C_R   0.274252 0.236934 0.667105 0.033457
C48   C     C_R   0.726150 0.762591 0.333333 0.033241
C49   C     C_R   0.353774 0.178560 0.750950 -0.179177
C50   C     C_R   0.646391 0.820722 0.249480 -0.179096
C51   C     C_R   0.962858 0.043896 0.555246 -0.226786
C52   C     C_R   0.037138 0.956193 0.444636 -0.226812
C53   C     C_1   0.246046 0.920254 0.746628 0.190143
C54   C     C_1   0.753511 0.079328 0.253196 0.190064
C55   C     C_1   0.273814 0.341631 0.647149 0.201144
C56   C     C_R   0.092171 0.043736 0.560329 0.015187
C57   C     C_1   0.727029 0.657919 0.353398 0.201639
C58   C     C_R   0.464554 0.187262 0.205056 -0.042080
C59   C     C_R   0.535363 0.812750 0.794956 -0.042193
C60   C     C_R   0.421912 0.215875 0.027680 -0.176940
Cu1   Cu    Cu3+1 0.466270 0.918260 0.475690 0.957156
Cu2   Cu    Cu3+1 0.533730 0.081740 0.524310 0.957159
H1    H     H_    0.419911 0.212812 0.798706 0.126512
H2    H     H_    0.726380 0.135770 0.681061 0.120201
H3    H     H_    0.782613 0.278586 0.735638 0.142556
H4    H     H_    0.217437 0.721432 0.264332 0.142542
H5    H     H_    0.640238 0.589326 0.633277 0.133056
H6    H     H_    0.359953 0.410755 0.366616 0.133100
H7    H     H_    0.405341 0.030049 0.842148 0.126808
H8    H     H_    0.594311 0.969060 0.158113 0.126725
H9    H     H_    0.130934 0.238239 0.538950 0.146510
H10   H     H_    0.869542 0.761718 0.461332 0.146577
H11   H     H_    0.934219 0.076210 0.600064 0.155900
H12   H     H_    0.580348 0.786284 0.201833 0.126492
H13   H     H_    0.065790 0.923855 0.399844 0.155881
H14   H     H_    0.369169 0.355583 0.845149 0.168157
H15   H     H_    0.630557 0.644457 0.154928 0.167941
H16   H     H_    0.506073 0.680690 0.761962 0.193726
H17   H     H_    0.493666 0.319297 0.238086 0.193694
H18   H     H_    0.581169 0.931604 0.852773 0.140764
H19   H     H_    0.418904 0.068430 0.147209 0.140696
H20   H     H_    0.307299 0.590733 0.796425 0.336089
H21   H     H_    0.692421 0.409345 0.203698 0.336068
H22   H     H_    0.391697 0.185116 0.969711 0.125566
H23   H     H_    0.608207 0.814955 0.030291 0.125625
H24   H     H_    0.747074 0.443832 0.716625 0.147300
H25   H     H_    0.253075 0.556234 0.283288 0.147319
H26   H     H_    0.554645 0.719564 0.552017 0.118239
H27   H     H_    0.445389 0.280459 0.447961 0.118219
H28   H     H_    0.273597 0.864218 0.318951 0.120183
N1    N     N_R   0.584450 0.204570 0.560790 -0.179064
N2    N     N_R   0.415550 0.795430 0.439210 -0.179072
N3    N     N_1   0.234367 0.833182 0.771860 -0.286430
N4    N     N_1   0.765020 0.166434 0.227723 -0.286416
N5    N     N_1   0.272502 0.425625 0.631302 -0.223095
N6    N     N_1   0.728735 0.573950 0.369355 -0.223001
O1    O     O_R   0.455540 0.022090 0.338120 -0.595584
O2    O     O_3   0.652319 0.458241 0.213915 -0.722149
O3    O     O_R   0.544460 0.977910 0.661880 -0.595530
O4    O     O_R   0.512510 0.160150 0.379180 -0.582518
O5    O     O_R   0.487490 0.839850 0.620820 -0.582480
O6    O     O_R   0.291160 0.930970 0.479480 -0.581742
O7    O     O_R   0.708840 0.069030 0.520520 -0.581756
O8    O     O_R   0.348130 0.069020 0.520540 -0.583362
O9    O     O_R   0.651870 0.930980 0.479460 -0.583386
O10   O     O_3   0.347313 0.541798 0.786198 -0.722036

loop_
_geom_bond_atom_site_label_1
_geom_bond_atom_site_label_2
_ccdc_geom_bond_type
C34   C56   A    
C8    C13   A    
C23   C45   A    
C21   H4    S    
C27   C29   A    
C11   C13   A    
C14   C18   A    
Cu1   O5    S    
C52   H13   S    
C48   C57   S    
C39   C41   A    
C38   C49   A    
C7    C11   A    
C29   C36   A    
C17   C23   S    
C5    C58   A    
C2    H23   S    
C49   H1    S    
C35   C37   A    
C4    H18   S    
C50   H12   S    
C6    H16   S    
C26   N2    A    
C33   C36   A    
C44   H9    S    
C51   C56   A    
C19   H15   S    
C12   O3    A    
C16   C34   S    
C15   C19   A    
C12   C59   S    
C11   C15   A    
C16   O8    A    
C57   N6    T    
C3    H19   S    
C22   N1    A    
C5    H17   S    
Cu1   O9    S    
C46   H10   S    
C44   C47   A    
C42   C56   S    
C3    C60   A    
C40   C42   A    
C38   H7    S    
C13   C14   A    
C41   C43   A    
C42   C44   A    
C24   N2    A    
C1    O4    A    
Cu2   O8    S    
C20   C29   A    
C46   C48   A    
C25   N1    A    
C27   C31   A    
C20   H3    S    
C28   C32   A    
C55   N5    T    
C1    O1    A    
C5    C7    A    
C6    C8    A    
C25   H27   S    
C45   C52   A    
C36   H24   S    
C53   N3    T    
H21   O2    S    
C30   C37   A    
C2    C4    A    
C17   O9    A    
C23   C51   A    
C31   C32   A    
C10   C19   A    
Cu2   N1    S    
C43   C45   S    
Cu2   O4    S    
C16   O6    A    
C20   C22   A    
C31   C35   A    
C25   C27   A    
C15   O2    S    
C2    C10   A    
C33   H5    S    
C47   C55   S    
Cu2   O7    S    
C7    C9    A    
C18   H14   S    
C26   C28   A    
C6    C59   A    
C37   H25   S    
C8    C10   A    
Cu1   O1    S    
C51   H11   S    
C24   H28   S    
Cu1   N2    S    
C47   C49   A    
C21   C30   A    
C34   C52   A    
C9    C60   A    
C32   C33   A    
C28   C30   A    
Cu1   O6    S    
C17   O7    A    
C12   O5    A    
C1    C58   S    
C38   C40   A    
C60   H22   S    
C35   H6    S    
C4    C59   A    
C48   C50   A    
C39   H8    S    
H20   O10   S    
Cu1   Cu2   S    
C43   C46   A    
C41   C54   S    
C54   N4    T    
C22   H2    S    
Cu2   O3    S    
C3    C58   A    
C9    C18   A    
C14   O10   S    
C39   C50   A    
C26   H26   S    
C40   C53   S    
C21   C24   A    
