data_mof_unit_56197.cif
_audit_creation_date              2012-12-11T14:42:08-0500
_audit_creation_method            fapswitch 2.2
_symmetry_space_group_name_H-M    P1
_symmetry_Int_Tables_number       1
_space_group_crystal_system       triclinic
_cell_length_a                    18.919447
_cell_length_b                    10.927234
_cell_length_c                    18.718787
_cell_angle_alpha                 89.689996
_cell_angle_beta                  90.47123
_cell_angle_gamma                 90.154176
_cell_volume                      3869.66899355

loop_
_atom_site_label
_atom_site_type_symbol
_atom_type_description
_atom_site_fract_x
_atom_site_fract_y
_atom_site_fract_z
_atom_type_partial_charge
C1    C     C_R   0.728367 0.951304 0.852438 0.568058
C2    C     C_R   0.271701 0.951766 0.147483 0.554454
C3    C     C_R   0.228366 0.451307 0.852440 0.566560
C4    C     C_R   0.771700 0.451766 0.147483 0.553669
C5    C     C_R   0.689401 0.440654 0.043118 -0.170031
C6    C     C_R   0.310947 0.440508 0.956447 -0.176282
C7    C     C_R   0.189400 0.940651 0.043119 -0.169796
C8    C     C_R   0.810950 0.940504 0.956444 -0.176834
C9    C     C_R   0.747338 0.392326 0.081143 0.032134
C10   C     C_R   0.253014 0.391443 0.918750 0.034265
C11   C     C_R   0.247340 0.892327 0.081142 0.032548
C12   C     C_R   0.753017 0.891439 0.918747 0.033367
C13   C     C_R   0.787887 0.298644 0.049288 0.230296
C14   C     C_R   0.212735 0.297005 0.950974 0.236795
C15   C     C_R   0.287891 0.798650 0.049286 0.230467
C16   C     C_R   0.712738 0.797002 0.950972 0.236347
C17   C     C_R   0.778068 0.272366 0.977567 -0.098090
C18   C     C_R   0.222697 0.270613 0.022798 -0.094176
C19   C     C_R   0.278071 0.772373 0.977565 -0.097862
C20   C     C_R   0.722697 0.770614 0.022796 -0.094346
C21   C     C_R   0.726556 0.333062 0.937136 -0.022248
C22   C     C_R   0.274016 0.332187 0.062902 -0.026864
C23   C     C_R   0.226557 0.833064 0.937136 -0.021629
C24   C     C_R   0.774016 0.832188 0.062901 -0.026848
C25   C     C_R   0.555246 0.280705 0.521441 -0.133774
C26   C     C_R   0.536832 0.278253 0.450388 -0.109317
C27   C     C_R   0.025034 0.778207 0.528970 -0.127985
C28   C     C_R   0.023056 0.773159 0.456524 -0.120143
C29   C     C_R   0.513325 0.168604 0.419472 0.038443
C30   C     C_R   0.553065 0.172945 0.561665 0.023926
C31   C     C_R   0.002726 0.664710 0.423504 0.039122
C32   C     C_R   0.012693 0.672046 0.569619 0.058414
C33   C     C_R   0.518209 0.058262 0.457397 -0.116098
C34   C     C_R   0.538976 0.060228 0.528567 -0.103095
C35   C     C_R   0.993325 0.556431 0.463084 -0.127553
C36   C     C_R   0.998681 0.560139 0.536634 -0.101451
C37   C     C_R   0.721457 0.304739 0.523543 -0.168665
C38   C     C_R   0.218076 0.301988 0.472225 -0.179477
C39   C     C_R   0.209102 0.818224 0.523418 -0.168780
C40   C     C_R   0.711095 0.811290 0.470515 -0.187093
C41   C     C_R   0.727412 0.324328 0.450522 -0.021614
C42   C     C_R   0.215447 0.313545 0.545392 -0.014880
C43   C     C_R   0.217089 0.835743 0.450350 -0.024814
C44   C     C_R   0.708882 0.819607 0.543667 -0.013658
C45   C     C_R   0.527527 0.177319 0.849039 0.560688
C46   C     C_R   0.442687 0.181837 0.141247 0.525739
C47   C     C_R   0.027528 0.677320 0.849042 0.550570
C48   C     C_R   0.942682 0.681838 0.141248 0.525769
C49   C     C_R   0.759166 0.432476 0.426856 -0.006907
C50   C     C_R   0.249223 0.414023 0.577646 -0.001094
C51   C     C_R   0.259528 0.932371 0.426848 0.001523
C52   C     C_R   0.748550 0.911784 0.577904 0.005788
C53   C     C_R   0.786576 0.518136 0.475595 -0.112139
C54   C     C_R   0.290596 0.494488 0.536378 -0.107220
C55   C     C_R   0.295489 0.007981 0.475575 -0.107444
C56   C     C_R   0.795554 0.984828 0.538381 -0.110610
C57   C     C_R   0.781048 0.497771 0.548595 0.206142
C58   C     C_R   0.293890 0.481695 0.462849 0.213012
C59   C     C_R   0.289373 0.987959 0.548456 0.209600
C60   C     C_R   0.799190 0.973835 0.464738 0.213839
C61   C     C_R   0.746003 0.392809 0.572165 0.042939
C62   C     C_R   0.255340 0.387079 0.430253 0.028434
C63   C     C_R   0.244772 0.894471 0.572138 0.044387
C64   C     C_R   0.754858 0.888815 0.430159 0.028825
C65   C     C_R   0.723637 0.311243 0.859974 0.564931
C66   C     C_R   0.276509 0.311017 0.140194 0.545825
C67   C     C_R   0.223637 0.811244 0.859975 0.562965
C68   C     C_R   0.776508 0.811018 0.140194 0.545659
C69   C     C_R   0.728656 0.953112 0.648442 0.552899
C70   C     C_R   0.272256 0.955177 0.352395 0.563679
C71   C     C_R   0.228688 0.453650 0.648303 0.559538
C72   C     C_R   0.772309 0.455530 0.352504 0.558470
C73   C     C_R   0.564898 0.180906 0.637839 0.557744
C74   C     C_R   0.472554 0.176223 0.353973 0.556019
C75   C     C_R   0.031243 0.676865 0.643641 0.573599
C76   C     C_R   0.971908 0.675447 0.353973 0.567567
C77   C     C_R   0.739670 0.363084 0.646667 0.614082
C78   C     C_R   0.261510 0.359097 0.355068 0.606730
C79   C     C_R   0.239336 0.862806 0.646489 0.619599
C80   C     C_R   0.761496 0.859380 0.355068 0.606864
C81   C     C_2   0.484155 0.168963 0.912856 -0.102568
C82   C     C_2   0.467509 0.174506 0.067939 -0.114081
C83   C     C_2   0.984147 0.668964 0.912853 -0.103308
C84   C     C_2   0.967498 0.674509 0.067937 -0.113655
C85   C     C_2   0.457679 0.073699 0.028164 -0.151944
C86   C     C_2   0.483047 0.068420 0.954141 -0.139227
C87   C     C_2   0.957664 0.573703 0.028161 -0.151844
C88   C     C_2   0.983033 0.568422 0.954137 -0.138943
C89   C     C_R   0.678778 0.410654 0.971433 -0.119976
C90   C     C_R   0.321667 0.410534 0.028253 -0.130267
C91   C     C_R   0.178777 0.910651 0.971434 -0.119477
C92   C     C_R   0.821668 0.910532 0.028252 -0.130341
Cr1   Cr    Cr6+3 0.769270 0.163730 0.750710 1.040893
Cr2   Cr    Cr6+3 0.230730 0.163730 0.249290 1.039416
Cr3   Cr    Cr6+3 0.269270 0.663730 0.750710 1.056092
Cr4   Cr    Cr6+3 0.730730 0.663730 0.249290 1.035891
Cr5   Cr    Cr6+3 0.612620 0.009790 0.748780 1.096178
Cr6   Cr    Cr6+3 0.387380 0.009790 0.251220 1.097182
Cr7   Cr    Cr6+3 0.112620 0.509790 0.748780 1.089979
Cr8   Cr    Cr6+3 0.887380 0.509790 0.251220 1.096332
Cr9   Cr    Cr6+3 0.614160 0.322500 0.747710 1.088038
Cr10  Cr    Cr6+3 0.385840 0.322500 0.252290 1.109231
Cr11  Cr    Cr6+3 0.114160 0.822500 0.747710 1.086058
Cr12  Cr    Cr6+3 0.885840 0.822500 0.252290 1.114046
H1    H     H_    0.434827 0.991469 0.051407 0.188724
H2    H     H_    0.505184 0.982802 0.935543 0.187234
H3    H     H_    0.934812 0.491474 0.051404 0.188652
H4    H     H_    0.005170 0.482803 0.935541 0.187157
H5    H     H_    0.814168 0.598999 0.456607 0.139731
H6    H     H_    0.316801 0.572541 0.560440 0.176402
H7    H     H_    0.329669 0.080904 0.456602 0.140740
H8    H     H_    0.826504 0.055993 0.563981 0.174362
H9    H     H_    0.493135 0.255139 0.045777 0.119954
H10   H     H_    0.459232 0.252796 0.930705 0.114656
H11   H     H_    0.993124 0.755141 0.045774 0.120266
H12   H     H_    0.959225 0.752799 0.930700 0.114942
H13   H     H_    0.635355 0.452199 0.942290 0.198020
H14   H     H_    0.364868 0.452974 0.057233 0.195217
H15   H     H_    0.135352 0.952194 0.942292 0.198126
H16   H     H_    0.864869 0.952971 0.057231 0.195206
H17   H     H_    0.654440 0.506048 0.067630 0.149128
H18   H     H_    0.345605 0.506905 0.931679 0.147128
H19   H     H_    0.154438 0.006041 0.067632 0.149324
H20   H     H_    0.845609 0.006900 0.931676 0.146815
H21   H     H_    0.812504 0.206677 0.952691 0.154588
H22   H     H_    0.188271 0.204678 0.048102 0.154930
H23   H     H_    0.312509 0.706688 0.952689 0.154539
H24   H     H_    0.688270 0.704680 0.048100 0.154931
H25   H     H_    0.569307 0.367607 0.545416 0.152745
H26   H     H_    0.536109 0.364210 0.421263 0.160213
H27   H     H_    0.039031 0.865400 0.552586 0.162828
H28   H     H_    0.032056 0.857003 0.426652 0.162969
H29   H     H_    0.501443 0.972529 0.433839 0.152117
H30   H     H_    0.539737 0.975038 0.558401 0.159238
H31   H     H_    0.977520 0.471523 0.437885 0.159305
H32   H     H_    0.991516 0.476926 0.567502 0.159669
H33   H     H_    0.698749 0.219730 0.542934 0.096280
H34   H     H_    0.191656 0.223962 0.448159 0.147940
H35   H     H_    0.177473 0.742086 0.542690 0.111214
H36   H     H_    0.679646 0.740080 0.445381 0.150607
O1    O     O_R   0.784320 0.290430 0.830510 -0.494044
O2    O     O_R   0.215680 0.290430 0.169490 -0.488108
O3    O     O_R   0.284320 0.790430 0.830510 -0.493426
O4    O     O_R   0.715680 0.790430 0.169490 -0.488617
O5    O     O_R   0.554640 0.080370 0.673500 -0.477428
O6    O     O_R   0.445360 0.080370 0.326500 -0.502249
O7    O     O_R   0.054640 0.580370 0.673500 -0.502727
O8    O     O_R   0.945360 0.580370 0.326500 -0.504808
O9    O     O_R   0.543920 0.282180 0.666790 -0.481395
O10   O     O_R   0.456080 0.282180 0.333210 -0.500349
O11   O     O_R   0.043920 0.782180 0.666790 -0.517498
O12   O     O_R   0.956080 0.782180 0.333210 -0.493602
O13   O     O_R   0.679040 0.374160 0.674430 -0.501018
O14   O     O_R   0.320960 0.374160 0.325570 -0.433137
O15   O     O_R   0.179040 0.874160 0.674430 -0.484069
O16   O     O_R   0.820960 0.874160 0.325570 -0.429819
O17   O     O_3   0.665350 0.165340 0.749070 -0.330370
O18   O     O_3   0.334650 0.165340 0.250930 -0.324105
O19   O     O_3   0.165350 0.665340 0.749070 -0.307007
O20   O     O_3   0.834650 0.665340 0.250930 -0.324310
O21   O     O_R   0.762640 0.040960 0.825200 -0.535722
O22   O     O_R   0.237360 0.040960 0.174800 -0.538522
O23   O     O_R   0.262640 0.540960 0.825200 -0.537423
O24   O     O_R   0.737360 0.540960 0.174800 -0.538759
O25   O     O_R   0.667400 0.923970 0.829950 -0.436345
O26   O     O_R   0.332600 0.923970 0.170050 -0.448081
O27   O     O_R   0.167400 0.423970 0.829950 -0.437703
O28   O     O_R   0.832600 0.423970 0.170050 -0.448128
O29   O     O_R   0.553960 0.081340 0.821780 -0.481634
O30   O     O_R   0.446040 0.081340 0.178220 -0.474490
O31   O     O_R   0.053960 0.581340 0.821780 -0.487114
O32   O     O_R   0.946040 0.581340 0.178220 -0.473579
O33   O     O_R   0.543180 0.283240 0.826740 -0.511275
O34   O     O_R   0.456820 0.283240 0.173260 -0.504513
O35   O     O_R   0.043180 0.783240 0.826740 -0.514284
O36   O     O_R   0.956820 0.783240 0.173260 -0.503318
O37   O     O_R   0.678360 0.375140 0.822710 -0.459740
O38   O     O_R   0.321640 0.375140 0.177290 -0.467710
O39   O     O_R   0.178360 0.875140 0.822710 -0.460570
O40   O     O_R   0.821640 0.875140 0.177290 -0.468359
O41   O     O_R   0.785050 0.289380 0.670560 -0.492707
O42   O     O_R   0.214950 0.289380 0.329440 -0.520180
O43   O     O_R   0.285050 0.789380 0.670560 -0.485781
O44   O     O_R   0.714950 0.789380 0.329440 -0.523619
O45   O     O_R   0.763320 0.039990 0.676930 -0.514867
O46   O     O_R   0.236680 0.039990 0.323070 -0.513402
O47   O     O_R   0.263320 0.539990 0.676930 -0.510957
O48   O     O_R   0.736680 0.539990 0.323070 -0.511985
O49   O     O_R   0.668130 0.922920 0.670000 -0.506918
O50   O     O_R   0.331870 0.922920 0.330000 -0.462343
O51   O     O_R   0.168130 0.422920 0.670000 -0.495705
O52   O     O_R   0.831870 0.422920 0.330000 -0.468156
C93   C     C_1   0.702080 0.232781 0.401112 0.240306
N1    N     N_1   0.681840 0.159542 0.361418 -0.264882
C94   C     C_1   0.176022 0.222791 0.585321 0.267414
N2    N     N_1   0.144371 0.150257 0.617132 -0.251096
C95   C     C_1   0.185500 0.750556 0.400699 0.233224
N3    N     N_1   0.160773 0.682047 0.360668 -0.267078
C96   C     C_1   0.664364 0.733054 0.581364 0.275064
N4    N     N_1   0.628817 0.663657 0.611282 -0.249404
Cl1   Cl    Cl    0.821948 0.599682 0.608753 -0.617426
Cl2   Cl    Cl    0.343868 0.589309 0.414004 -0.563015
Cl3   Cl    Cl    0.339023 0.078546 0.608201 -0.575588
Cl4   Cl    Cl    0.857596 0.071939 0.418711 -0.567624
Cl5   Cl    Cl    0.853048 0.212330 0.094942 -0.586005
Cl6   Cl    Cl    0.147404 0.210748 0.905729 -0.590904
Cl7   Cl    Cl    0.353061 0.712348 0.094934 -0.585302
Cl8   Cl    Cl    0.647412 0.710740 0.905724 -0.588784

loop_
_geom_bond_atom_site_label_1
_geom_bond_atom_site_label_2
_ccdc_geom_bond_type
C58   C62   A    
C87   C88   S    
Cr3   O3    S    
Cr7   O19   S    
Cr8   O32   S    
C27   H27   S    
C14   C18   A    
Cr9   O33   S    
C35   C36   A    
C84   C87   D    
Cr6   O50   S    
C25   H25   S    
Cr10  O18   S    
C32   C75   S    
C71   O47   A    
C3    O27   A    
Cr12  O36   S    
C63   C79   S    
C85   C86   S    
C91   H15   S    
C7    C11   A    
C66   O38   A    
C50   C54   A    
Cr3   O19   S    
C32   C36   A    
C56   C60   A    
C45   C81   S    
Cr12  O20   S    
C33   H29   S    
C38   C42   A    
C55   C59   A    
C88   H4    S    
C49   C53   A    
Cr7   O31   S    
C4    O24   A    
C76   O12   A    
C90   H14   S    
C5    H17   S    
Cr5   O29   S    
C54   H6    S    
C23   C67   S    
C57   C61   A    
C9    C13   A    
C72   O48   A    
C41   C93   S    
C52   C69   S    
C77   O13   A    
C48   O32   A    
Cr1   O41   S    
C60   Cl4   S    
C22   C66   S    
C12   C16   A    
C29   C33   A    
C61   C77   S    
C49   C72   S    
C81   H10   S    
C77   O41   A    
C46   O34   A    
C8    C92   A    
C51   C70   S    
C47   C83   S    
C8    C12   A    
C2    O26   A    
C51   C55   A    
C81   C86   D    
C26   H26   S    
Cr11  O11   S    
C55   H7    S    
C44   C52   A    
Cr5   O49   S    
C83   C88   D    
C67   O3    A    
C96   N4    T    
Cr2   O18   S    
C46   C82   S    
C64   C80   S    
Cr10  O38   S    
C2    O22   A    
C86   H2    S    
C1    C12   S    
C11   C15   A    
Cr4   O44   S    
C85   H1    S    
C2    C11   S    
C36   H32   S    
C13   Cl5   S    
C41   C49   A    
C62   C78   S    
C80   O16   A    
Cr7   O27   S    
Cr9   O17   S    
C38   H34   S    
C39   H35   S    
C30   C34   A    
Cr3   O47   S    
Cr2   O2    S    
Cr6   O18   S    
Cr8   O52   S    
C65   O1    A    
C10   C14   A    
C35   H31   S    
C30   C73   S    
C53   C57   A    
C19   C23   A    
C8    H20   S    
C21   C89   A    
C29   C74   S    
Cr6   O6    S    
C75   O7    A    
C25   C26   A    
C6    C90   A    
C24   C68   S    
C79   O15   A    
C68   O40   A    
C17   C21   A    
Cr4   O24   S    
C73   O5    A    
C28   H28   S    
Cr5   O17   S    
C15   C19   A    
C50   C71   S    
C17   H21   S    
C5    C9    A    
C45   O33   A    
Cr4   O4    S    
C48   C84   S    
Cr8   O20   S    
C47   O31   A    
C95   N3    T    
Cr3   O43   S    
Cr9   O13   S    
C16   C20   A    
C7    C91   A    
Cr11  O35   S    
C33   C34   A    
C22   C90   A    
C43   C95   S    
C38   C62   A    
Cr12  O16   S    
Cr1   O17   S    
C58   Cl2   S    
Cr8   O28   S    
Cr6   O26   S    
C46   O30   A    
C42   C50   A    
Cr11  O15   S    
Cr4   O20   S    
Cr10  O10   S    
Cr1   O21   S    
C89   H13   S    
C84   H11   S    
C14   Cl6   S    
C24   C92   A    
C23   C91   A    
C6    H18   S    
C69   O49   A    
C69   O45   A    
Cr1   O1    S    
C70   O50   A    
Cr11  O19   S    
C54   C58   A    
C53   H5    S    
C25   C30   A    
Cr2   O22   S    
C73   O9    A    
C27   C32   A    
C18   C22   A    
C4    O28   A    
Cr5   O5    S    
C83   H12   S    
C74   O6    A    
C28   C31   A    
C78   O14   A    
Cr2   O46   S    
C82   H9    S    
C7    H19   S    
C16   Cl8   S    
C45   O29   A    
C71   O51   A    
C6    C10   A    
C37   C61   A    
C20   H24   S    
C44   C96   S    
C66   O2    A    
C3    O23   A    
Cr10  O34   S    
C82   C85   D    
C39   C63   A    
C19   H23   S    
C59   C63   A    
C40   C64   A    
C13   C17   A    
Cr3   O23   S    
C60   C64   A    
C21   C65   S    
Cr12  O12   S    
C92   H16   S    
Cr7   O7    S    
C3    C10   S    
C67   O39   A    
Cr10  O14   S    
C18   H22   S    
C72   O52   A    
Cr7   O51   S    
C43   C51   A    
C31   C76   S    
Cr12  O40   S    
C65   O37   A    
Cr8   O8    S    
Cr5   O25   S    
C40   H36   S    
C31   C35   A    
Cr9   O9    S    
C79   O43   A    
C68   O4    A    
Cr11  O39   S    
C80   O44   A    
C75   O11   A    
C37   C41   A    
C42   C94   S    
C20   C24   A    
C15   Cl7   S    
Cr9   O37   S    
C70   O46   A    
C47   O35   A    
C1    O21   A    
C94   N2    T    
Cr6   O30   S    
C59   Cl3   S    
C40   C44   A    
C87   H3    S    
C1    O25   A    
C76   O8    A    
C26   C29   A    
C93   N1    T    
C39   C43   A    
C57   Cl1   S    
C27   C28   A    
C34   H30   S    
C74   O10   A    
C37   H33   S    
Cr2   O42   S    
C78   O42   A    
C4    C9    S    
Cr4   O48   S    
C56   H8    S    
C5    C89   A    
C52   C56   A    
C48   O36   A    
Cr1   O45   S    
