data_mof_unit_39892.cif
_audit_creation_date              2012-12-11T17:33:29-0500
_audit_creation_method            fapswitch 2.2
_symmetry_space_group_name_H-M    P1
_symmetry_Int_Tables_number       1
_space_group_crystal_system       triclinic
_cell_length_a                    6.926439
_cell_length_b                    21.792391
_cell_length_c                    22.191841
_cell_angle_alpha                 107.552935
_cell_angle_beta                  91.538137
_cell_angle_gamma                 91.271343
_cell_volume                      3190.98804919

loop_
_atom_site_label
_atom_site_type_symbol
_atom_type_description
_atom_site_fract_x
_atom_site_fract_y
_atom_site_fract_z
_atom_type_partial_charge
O1    O     O_R   0.505730 0.449200 0.552060 -0.543693
O2    O     O_R   0.171560 0.427840 0.423150 -0.545254
O3    O     O_R   0.005630 0.550800 0.447940 -0.540532
C1    C     C_R   0.336645 0.408969 0.398828 0.726537
O4    O     O_R   0.175730 0.441570 0.550050 -0.538620
O5    O     O_R   0.009820 0.564620 0.575740 -0.506326
C2    C     C_R   0.345057 0.428009 0.568418 0.699441
O6    O     O_R   0.501530 0.435380 0.424260 -0.537057
O7    O     O_3   0.340640 0.540360 0.508280 -0.356579
V1    V     V_3+5 0.064080 0.492510 0.498460 1.435823
O8    O     O_R   0.680360 0.572160 0.576850 -0.538106
C3    C     C_R   0.854472 0.588987 0.602218 0.735328
O9    O     O_R   0.676190 0.558430 0.449950 -0.543018
C4    C     C_R   0.844788 0.571813 0.431490 0.689029
V2    V     V_3+5 0.564610 0.507490 0.501540 1.423555
O10   O     O_3   0.837920 0.459640 0.491720 -0.375632
C5    C     C_R   0.082754 0.808802 0.157953 -0.264576
H1    H     H_    0.203866 0.779624 0.162344 0.211377
C6    C     C_R   0.095285 0.847863 0.118053 0.621245
C7    C     C_R   0.939589 0.886387 0.111197 -0.437040
C8    C     C_R   0.771851 0.884417 0.145746 0.511619
C9    C     C_R   0.760395 0.845078 0.185334 0.593203
C10   C     C_R   0.915640 0.807109 0.191696 -0.214599
C11   C     C_1   0.903545 0.766642 0.232922 0.145410
C12   C     C_1   0.892307 0.733055 0.267531 -0.043739
C13   C     C_R   0.047058 0.668682 0.328874 -0.131382
H2    H     H_    0.187037 0.679778 0.313414 0.111821
C14   C     C_R   0.035592 0.629722 0.368756 -0.160083
H3    H     H_    0.168060 0.611649 0.382985 0.121164
C15   C     C_R   0.855799 0.614146 0.389717 -0.054175
C16   C     C_R   0.687909 0.638897 0.369630 -0.169500
H4    H     H_    0.547148 0.628013 0.384611 0.119323
C17   C     C_R   0.699843 0.677921 0.329669 -0.115836
H5    H     H_    0.568767 0.696304 0.314796 0.120625
C18   C     C_R   0.879449 0.692936 0.309021 0.111602
C19   C     C_R   0.888152 0.641764 0.663032 -0.164222
C20   C     C_R   0.908234 0.856059 0.839075 -0.063020
C21   C     C_R   0.684603 0.798732 0.751889 -0.171182
C22   C     C_R   0.733664 0.852403 0.803584 -0.163096
C23   C     C_R   0.035354 0.805057 0.820554 -0.209325
C24   C     C_R   0.985524 0.750476 0.768729 0.095201
C25   C     C_R   0.808641 0.747044 0.734201 0.154148
C26   C     C_R   0.760309 0.692697 0.681972 -0.300661
C27   C     C_R   0.061562 0.644476 0.699872 0.414378
C28   C     C_R   0.109502 0.699017 0.751260 -0.271637
H6    H     H_    0.627364 0.691307 0.654600 0.156766
H7    H     H_    0.548656 0.797480 0.726133 0.119932
H8    H     H_    0.246009 0.701110 0.777014 0.137210
H9    H     H_    0.632379 0.891014 0.816443 0.121356
H10   H     H_    0.169040 0.806764 0.847654 0.129789
C29   C     C_R   0.333396 0.352848 0.339688 -0.150628
C30   C     C_R   0.461985 0.147435 0.160087 -0.117140
C31   C     C_R   0.638543 0.216483 0.253994 -0.052684
C32   C     C_R   0.629451 0.162718 0.199807 -0.086276
C33   C     C_R   0.302784 0.187814 0.176096 -0.188493
C34   C     C_R   0.312275 0.242986 0.230104 0.033193
C35   C     C_R   0.481928 0.257418 0.269406 0.065470
C36   C     C_R   0.492259 0.312399 0.323448 -0.220008
C37   C     C_R   0.165952 0.337913 0.299930 -0.249476
C38   C     C_R   0.156017 0.284326 0.245516 0.587139
H11   H     H_    0.622290 0.322862 0.353514 0.136552
H12   H     H_    0.041884 0.368242 0.310720 0.155208
H13   H     H_    0.769265 0.226325 0.283683 0.129963
H14   H     H_    0.754329 0.132766 0.189083 0.131656
H15   H     H_    0.173318 0.176972 0.145805 0.172491
C39   C     C_R   0.584991 0.161146 0.813775 0.394456
C40   C     C_R   0.598339 0.123104 0.854953 -0.256329
H16   H     H_    0.732106 0.099316 0.858295 0.146161
C41   C     C_R   0.439682 0.114732 0.890324 -0.163653
C42   C     C_R   0.269284 0.147203 0.885462 -0.253041
H17   H     H_    0.144573 0.141716 0.912041 0.151093
C43   C     C_R   0.258474 0.188201 0.847288 0.379117
C44   C     C_R   0.415390 0.194431 0.810328 -0.098154
C45   C     C_1   0.401880 0.234465 0.768497 0.047912
C46   C     C_1   0.390842 0.267698 0.733522 -0.065492
C47   C     C_R   0.547325 0.332592 0.673197 -0.135655
H18   H     H_    0.687644 0.322409 0.690018 0.104898
C48   C     C_R   0.536380 0.371279 0.632963 -0.164074
H19   H     H_    0.669447 0.390229 0.619984 0.115645
C49   C     C_R   0.356156 0.385722 0.610301 -0.058327
C50   C     C_R   0.187365 0.360140 0.629046 -0.174336
H20   H     H_    0.046197 0.370239 0.612855 0.118108
C51   C     C_R   0.198775 0.321286 0.669194 -0.147278
H21   H     H_    0.066974 0.302125 0.682789 0.106125
C52   C     C_R   0.378740 0.307455 0.691632 0.118719
O11   O     O_R   0.294110 0.064720 0.075690 -0.541931
O12   O     O_R   0.619980 0.058360 0.949870 -0.548767
O13   O     O_R   0.785810 0.935300 0.924300 -0.547698
C53   C     C_R   0.450665 0.071930 0.931568 0.707177
O14   O     O_R   0.624080 0.072230 0.076800 -0.538526
O15   O     O_R   0.789930 0.949270 0.052130 -0.499596
C54   C     C_R   0.458980 0.091158 0.101087 0.739771
O16   O     O_R   0.289980 0.050750 0.947860 -0.549200
O17   O     O_3   0.454970 0.959660 0.991750 -0.340025
V3    V     V_3+5 0.731560 0.007480 0.001530 1.488034
O18   O     O_R   0.119360 0.941610 0.050140 -0.494908
C55   C     C_R   0.950765 0.928412 0.068860 0.845376
O19   O     O_R   0.115260 0.927740 0.923220 -0.544551
C56   C     C_R   0.941277 0.910115 0.898536 0.673921
V4    V     V_3+5 0.231020 0.992470 0.998490 1.525554
O20   O     O_3   0.957740 0.040330 0.008250 -0.389548
O21   O     O_3   0.195292 0.596595 0.682160 -0.561352
C57   C     C_3   0.197259 0.559407 0.724585 0.061801
H22   H     H_    0.110435 0.514241 0.702609 0.122042
H23   H     H_    0.136044 0.583833 0.771568 0.105547
C58   C     C_3   0.405883 0.542731 0.735608 -0.279436
H24   H     H_    0.469887 0.518079 0.689569 0.193331
H25   H     H_    0.492323 0.587847 0.758103 0.191986
C59   C     C_3   0.417152 0.499275 0.778091 -0.838352
H26   H     H_    0.364147 0.524630 0.825687 0.232000
H27   H     H_    0.569469 0.486233 0.783223 0.229958
H28   H     H_    0.328639 0.454388 0.757210 0.244496
F1    F     F_    0.993646 0.273288 0.207712 -0.708927
F2    F     F_    0.258892 0.846903 0.085519 -0.612186
O22   O     O_3   0.743204 0.169883 0.780359 -0.542805
C60   C     C_3   0.758720 0.115438 0.726965 0.113396
H29   H     H_    0.622436 0.106344 0.697229 0.104359
H30   H     H_    0.791209 0.072095 0.741702 0.106204
C61   C     C_3   0.923869 0.128016 0.687492 -0.265415
H31   H     H_    0.894912 0.171890 0.673439 0.190892
H32   H     H_    0.061039 0.136495 0.716309 0.215400
C62   C     C_3   0.946997 0.071220 0.628207 -0.850550
H33   H     H_    0.979423 0.027077 0.641266 0.231509
H34   H     H_    0.068266 0.081925 0.600837 0.238617
H35   H     H_    0.812811 0.062574 0.597898 0.239005
O23   O     O_3   0.088623 0.218805 0.843044 -0.532141
C63   C     C_3   0.094011 0.279091 0.890311 0.140916
H36   H     H_    0.224841 0.308616 0.887154 0.093383
H37   H     H_    0.094124 0.272244 0.938075 0.076792
C64   C     C_3   0.914336 0.316138 0.882935 -0.258751
H38   H     H_    0.782455 0.287452 0.886131 0.202559
H39   H     H_    0.914822 0.362022 0.922271 0.133005
C65   C     C_3   0.907790 0.331449 0.820105 -0.687613
H40   H     H_    0.037665 0.360754 0.816382 0.202168
H41   H     H_    0.777102 0.359157 0.817165 0.194923
H42   H     H_    0.901056 0.286406 0.779784 0.264780
F3    F     F_    0.619252 0.921450 0.142416 -0.597557
F4    F     F_    0.597364 0.844336 0.217804 -0.638917

loop_
_geom_bond_atom_site_label_1
_geom_bond_atom_site_label_2
_ccdc_geom_bond_type
C33   C34   A    
O23   C63   S    
C24   C25   A    
C64   H39   S    
C6    C7    A    
C8    F3    S    
C1    O6    A    
C50   H20   S    
O14   V3    S    
C31   C32   A    
C34   C35   A    
C13   H2    S    
C5    C10   A    
C58   H25   S    
C14   H3    S    
C47   C48   A    
C21   C25   A    
C20   C23   A    
C59   H27   S    
O5    C3    A    
C21   C22   A    
C17   C18   A    
C48   C49   A    
C61   C62   S    
C58   H24   S    
V2    O10   S    
C60   H29   S    
C44   C45   S    
C33   H15   S    
O8    V2    S    
C46   C52   S    
C7    C55   S    
C16   H4    S    
O12   V3    S    
C65   H42   S    
C10   C11   S    
C16   C17   A    
C42   H17   S    
O1    V2    S    
C3    C19   S    
O11   V4    S    
O7    V1    S    
C30   C33   A    
C36   H11   S    
C39   C40   A    
O13   V3    S    
C37   C38   A    
C8    C9    A    
C38   F1    S    
C41   C42   A    
C4    C15   S    
C41   C53   S    
C50   C51   A    
C30   C32   A    
C5    H1    S    
C61   H32   S    
C39   O22   S    
C1    C29   S    
C40   H16   S    
C11   C12   T    
C45   C46   T    
C59   H28   S    
O4    C2    A    
C27   O21   S    
C48   H19   S    
C49   C50   A    
C6    F2    S    
C39   C44   A    
O15   C55   A    
C34   C38   A    
C43   O23   S    
C40   C41   A    
O2    C1    A    
C63   H37   S    
O14   C54   A    
C51   H21   S    
O17   V4    S    
C61   H31   S    
O18   C55   A    
C17   H5    S    
O17   V3    S    
C57   H23   S    
C29   C36   A    
C47   H18   S    
O16   V4    S    
C21   H7    S    
O3    C4    A    
C12   C18   S    
C23   C24   A    
C22   H9    S    
O6    V2    S    
O19   V4    S    
O9    V2    S    
C65   H40   S    
C19   C27   A    
C64   C65   S    
C29   C37   A    
C25   C26   A    
C62   H34   S    
C63   H36   S    
O2    V1    S    
C20   C56   S    
C27   C28   A    
C28   H8    S    
C37   H12   S    
C31   C35   A    
C51   C52   A    
O1    C2    A    
C43   C44   A    
O5    V1    S    
C42   C43   A    
O8    C3    A    
C9    F4    S    
C13   C14   A    
C60   C61   S    
C62   H35   S    
O12   C53   A    
C64   H38   S    
O7    V2    S    
C63   C64   S    
O4    V1    S    
C20   C22   A    
O3    V1    S    
O11   C54   A    
C59   H26   S    
C31   H13   S    
C35   C36   A    
C15   C16   A    
C32   H14   S    
C23   H10   S    
O18   V4    S    
C14   C15   A    
V4    O20   S    
C5    C6    A    
C60   H30   S    
C57   C58   S    
C53   O16   A    
O21   C57   S    
C26   H6    S    
O13   C56   A    
C30   C54   S    
O15   V3    S    
C13   C18   A    
C7    C8    A    
O19   C56   A    
C57   H22   S    
C65   H41   S    
C24   C28   A    
C9    C10   A    
C19   C26   A    
V1    O10   S    
O22   C60   S    
C62   H33   S    
O9    C4    A    
C47   C52   A    
V3    O20   S    
C2    C49   S    
C58   C59   S    
