data_mof_unit_21563.cif
_audit_creation_date              2012-12-10T17:49:39-0500
_audit_creation_method            fapswitch 2.2
_symmetry_space_group_name_H-M    P1
_symmetry_Int_Tables_number       1
_space_group_crystal_system       triclinic
_cell_length_a                    10.493519
_cell_length_b                    10.688859
_cell_length_c                    9.974701
_cell_angle_alpha                 88.465612
_cell_angle_beta                  88.952047
_cell_angle_gamma                 93.290237
_cell_volume                      1116.33475137

loop_
_atom_site_label
_atom_site_type_symbol
_atom_type_description
_atom_site_fract_x
_atom_site_fract_y
_atom_site_fract_z
_atom_type_partial_charge
C1    C     C_R   0.511989 0.260980 0.502334 0.930642
C2    C     C_3   0.960858 0.473042 0.373942 -0.199504
C3    C     C_3   0.034809 0.386921 0.466545 0.282257
C4    C     C_3   0.122236 0.499345 0.502397 -0.054682
C5    C     C_R   0.526391 0.103960 0.759841 -0.195177
C6    C     C_R   0.473521 0.041568 0.875209 -0.013838
C7    C     C_R   0.404346 0.925071 0.862189 0.030045
C8    C     C_R   0.395690 0.873558 0.734460 -0.142455
C9    C     C_R   0.458001 0.933264 0.621072 0.061838
C10   C     C_R   0.505131 0.056757 0.630491 0.128493
C11   C     C_R   0.526413 0.127578 0.508862 -0.122987
C12   C     C_R   0.257572 0.499775 0.500977 0.935647
C13   C     C_R   0.538049 0.067822 0.386857 -0.145502
C14   C     C_R   0.519003 0.940233 0.382735 -0.161688
C15   C     C_R   0.479808 0.872315 0.499124 -0.116831
C16   C     C_R   0.306935 0.369939 0.152994 -0.105924
C17   C     C_R   0.188440 0.345450 0.100494 -0.205162
C18   C     C_R   0.171861 0.360298 0.964892 0.264893
C19   C     C_R   0.280091 0.383718 0.879701 0.246811
C20   C     C_R   0.396925 0.439756 0.933441 0.055086
C21   C     C_R   0.402556 0.436937 0.077561 0.120560
C22   C     C_R   0.595051 0.559186 0.067478 -0.105959
C23   C     C_R   0.489721 0.738995 0.499115 0.853105
C24   C     C_R   0.595897 0.557842 0.924937 -0.083485
C25   C     C_R   0.742336 0.501191 0.498632 0.876332
C26   C     C_3   0.038022 0.526945 0.623594 -0.129208
C27   C     C_3   0.948519 0.413551 0.587111 -0.110724
C28   C     C_3   0.877377 0.500995 0.495616 -0.060022
C29   C     C_3   0.963875 0.614417 0.531729 -0.175081
C30   C     C_3   0.050331 0.586762 0.410316 -0.194770
H1    H     H_    0.897994 0.341245 0.653307 0.200219
H2    H     H_    0.340991 0.785478 0.724147 0.193574
H3    H     H_    0.536262 0.895023 0.288696 0.164071
H4    H     H_    0.672777 0.608260 0.117596 0.147377
H5    H     H_    0.320947 0.336683 0.253102 0.244785
H6    H     H_    0.110615 0.306858 0.163818 0.220548
H7    H     H_    0.674295 0.605711 0.868959 0.153491
H8    H     H_    0.073520 0.549280 0.724848 0.193024
H9    H     H_    0.929850 0.707360 0.557712 0.164761
H10   H     H_    0.096333 0.657558 0.338650 0.182889
H11   H     H_    0.925736 0.450838 0.272479 0.179646
H12   H     H_    0.561899 0.119869 0.294327 0.190287
H13   H     H_    0.583298 0.190165 0.772921 0.167431
N1    N     N_R   0.498800 0.498800 0.142780 -0.114452
N2    N     N_R   0.498760 0.498720 0.857170 -0.109072
O1    O     O_R   0.500000 0.316780 0.614690 -0.594986
O2    O     O_R   0.499990 0.316750 0.385360 -0.634581
O3    O     O_R   0.313960 0.499980 0.614650 -0.599239
O4    O     O_R   0.313940 0.499960 0.385310 -0.642448
O5    O     O_R   0.500010 0.683250 0.614640 -0.629767
O6    O     O_R   0.500000 0.683220 0.385310 -0.618490
O7    O     O_R   0.686060 0.500040 0.614690 -0.626425
O8    O     O_R   0.686040 0.500020 0.385350 -0.624565
Zn1   Zn    Zn3+2 0.500010 0.500020 0.653130 0.977158
Zn2   Zn    Zn3+2 0.499990 0.499980 0.346870 0.957379
C31   C     C_2   0.350569 0.850152 0.979990 0.450279
H14   H     H_    0.379802 0.871237 0.080814 0.111892
O9    O     O_2   0.274331 0.761030 0.965540 -0.590963
Br1   Br    Br    0.004623 0.309021 0.904772 -0.522255
Br2   Br    Br    0.269771 0.262732 0.742002 -0.396617
Br3   Br    Br    0.085634 0.219094 0.432027 -0.485640
C32   C     C_2   0.485520 0.107423 0.003713 0.323218
H15   H     H_    0.566207 0.173555 0.018249 0.081999
O10   O     O_2   0.402113 0.095546 0.090708 -0.577240

loop_
_geom_bond_atom_site_label_1
_geom_bond_atom_site_label_2
_ccdc_geom_bond_type
C17   C18   A    
C4    C26   S    
C16   C21   A    
C17   H6    S    
C19   Br2   S    
C4    C12   S    
C21   N1    A    
C9    C10   A    
C32   O10   D    
C19   C20   A    
C1    C11   S    
C2    C30   S    
C12   O3    A    
C4    C30   S    
C26   H8    S    
C29   H9    S    
C32   H15   S    
C15   C23   S    
C12   O4    A    
C5    H13   S    
C25   O7    A    
C30   H10   S    
C7    C8    A    
O5    Zn1   S    
C13   C14   A    
C31   H14   S    
C25   C28   S    
O3    Zn1   S    
C11   C13   A    
N1    Zn2   S    
C6    C32   S    
C26   C27   S    
C29   C30   S    
C7    C31   S    
C14   H3    S    
C24   N2    A    
C3    C27   S    
C28   C29   S    
O1    Zn1   S    
O7    Zn1   S    
N2    Zn1   S    
C2    C3    S    
C6    C7    A    
O6    Zn2   S    
O8    Zn2   S    
C16   H5    S    
C9    C15   A    
C5    C6    A    
C22   H4    S    
C22   C24   A    
C1    O1    A    
C16   C17   A    
C10   C11   A    
C3    Br3   S    
C27   H1    S    
C3    C4    S    
C8    H2    S    
C18   Br1   S    
C5    C10   A    
C20   C21   A    
C26   C29   S    
C24   H7    S    
C18   C19   A    
C27   C28   S    
O2    Zn2   S    
C14   C15   A    
C1    O2    A    
C23   O5    A    
C2    C28   S    
C2    H11   S    
O4    Zn2   S    
C31   O9    D    
C23   O6    A    
C13   H12   S    
C22   N1    A    
C20   N2    A    
C25   O8    A    
C8    C9    A    
