data_mof_unit_45778.cif
_audit_creation_date              2012-12-11T15:27:43-0500
_audit_creation_method            fapswitch 2.2
_symmetry_space_group_name_H-M    P1
_symmetry_Int_Tables_number       1
_space_group_crystal_system       monoclinic
_cell_length_a                    23.269605
_cell_length_b                    7.335837
_cell_length_c                    15.225709
_cell_angle_alpha                 90.0
_cell_angle_beta                  108.513452
_cell_angle_gamma                 90.0
_cell_volume                      2464.5558425

loop_
_atom_site_label
_atom_site_type_symbol
_atom_type_description
_atom_site_fract_x
_atom_site_fract_y
_atom_site_fract_z
_atom_type_partial_charge
O1    O     O_R   0.711000 0.648610 0.341170 -0.541128
O2    O     O_R   0.289000 0.351390 0.658830 -0.540190
O3    O     O_R   0.789000 0.148610 0.158830 -0.541128
O4    O     O_R   0.211000 0.851390 0.841170 -0.540190
O5    O     O_R   0.829650 0.322030 0.336650 -0.532549
O6    O     O_R   0.170350 0.677970 0.663350 -0.537681
O7    O     O_R   0.670350 0.822030 0.163350 -0.532549
O8    O     O_R   0.329650 0.177970 0.836650 -0.537681
C1    C     C_R   0.854004 0.485786 0.357418 0.699028
C2    C     C_R   0.146068 0.514042 0.642312 0.697077
C3    C     C_R   0.645996 0.985786 0.142582 0.699027
C4    C     C_R   0.353932 0.014042 0.857688 0.697078
O9    O     O_R   0.713950 0.319280 0.352070 -0.547850
O10   O     O_R   0.286050 0.680720 0.647930 -0.547215
O11   O     O_R   0.786050 0.819280 0.147930 -0.547851
O12   O     O_R   0.213950 0.180720 0.852070 -0.547215
O13   O     O_R   0.672470 0.142870 0.174360 -0.536402
O14   O     O_R   0.327530 0.857130 0.825640 -0.529429
O15   O     O_R   0.827530 0.642870 0.325640 -0.536402
O16   O     O_R   0.172470 0.357130 0.674360 -0.529429
C5    C     C_R   0.701061 0.487433 0.374835 0.743682
C6    C     C_R   0.298822 0.512749 0.625043 0.742490
C7    C     C_R   0.798939 0.987433 0.125165 0.743683
C8    C     C_R   0.201178 0.012749 0.874957 0.742489
O17   O     O_3   0.736530 0.478650 0.191680 -0.381221
O18   O     O_3   0.263470 0.521350 0.808320 -0.381950
O19   O     O_3   0.763470 0.978650 0.308320 -0.381221
O20   O     O_3   0.236530 0.021350 0.691680 -0.381950
V1    V     V_3+5 0.752500 0.206170 0.260820 1.424370
V2    V     V_3+5 0.247500 0.793830 0.739180 1.424474
V3    V     V_3+5 0.747500 0.706170 0.239180 1.424369
V4    V     V_3+5 0.252500 0.293830 0.760820 1.424474
C9    C     C_R   0.828907 0.998234 0.054041 -0.103221
C10   C     C_R   0.171564 0.008274 0.946599 -0.104532
C11   C     C_R   0.671093 0.498234 0.445959 -0.103221
C12   C     C_R   0.328436 0.508274 0.553401 -0.104532
C13   C     C_R   0.823014 0.068518 0.896625 -0.167824
C14   C     C_R   0.177610 0.062501 0.105547 -0.168697
C15   C     C_R   0.676986 0.568518 0.603375 -0.167824
C16   C     C_R   0.322390 0.562501 0.394453 -0.168697
C17   C     C_R   0.794847 0.045827 0.963829 -0.249725
C18   C     C_R   0.205676 0.048331 0.037830 -0.248969
C19   C     C_R   0.705153 0.545827 0.536171 -0.249725
C20   C     C_R   0.294324 0.548331 0.462170 -0.248969
C21   C     C_R   0.891989 0.973204 0.077937 0.332069
C22   C     C_R   0.108520 0.981966 0.922240 0.331621
C23   C     C_R   0.608011 0.473204 0.422063 0.332069
C24   C     C_R   0.391480 0.481966 0.577760 0.331621
C25   C     C_R   0.922361 0.022370 0.013215 -0.025753
C26   C     C_R   0.078197 0.024352 0.987936 -0.024832
C27   C     C_R   0.577639 0.522370 0.486785 -0.025753
C28   C     C_R   0.421802 0.524352 0.512064 -0.024832
C29   C     C_R   0.886228 0.057155 0.920364 0.106240
C30   C     C_R   0.114397 0.051507 0.081514 0.106809
C31   C     C_R   0.613772 0.557155 0.579636 0.106239
C32   C     C_R   0.385603 0.551507 0.418486 0.106809
C33   C     C_R   0.986816 0.037370 0.036635 0.052007
C34   C     C_R   0.013793 0.040603 0.964823 0.052419
C35   C     C_R   0.513183 0.537370 0.463365 0.052007
C36   C     C_R   0.486207 0.540603 0.535176 0.052419
C37   C     C_R   0.975877 0.072023 0.873306 -0.201343
C38   C     C_R   0.024819 0.061409 0.128753 -0.199802
C39   C     C_R   0.524123 0.572023 0.626694 -0.201343
C40   C     C_R   0.475181 0.561409 0.371247 -0.199802
C41   C     C_R   0.913464 0.084171 0.852078 -0.201691
C42   C     C_R   0.087244 0.072138 0.150291 -0.202173
C43   C     C_R   0.586536 0.584171 0.647922 -0.201691
C44   C     C_R   0.412755 0.572137 0.349709 -0.202173
H1    H     H_    0.886231 0.113145 0.781257 0.124056
H2    H     H_    0.114539 0.095507 0.221672 0.124072
H3    H     H_    0.613769 0.613145 0.718743 0.124056
H4    H     H_    0.385461 0.595507 0.278328 0.124072
H5    H     H_    0.254254 0.067596 0.056635 0.125880
H6    H     H_    0.746224 0.063637 0.945302 0.125409
H7    H     H_    0.245745 0.567596 0.443365 0.125880
H8    H     H_    0.753776 0.563638 0.554698 0.125409
H9    H     H_    0.795422 0.099938 0.826311 0.125139
H10   H     H_    0.205247 0.088269 0.176496 0.125400
H11   H     H_    0.704578 0.599939 0.673689 0.125138
H12   H     H_    0.294753 0.588269 0.323504 0.125400
H13   H     H_    0.993651 0.098544 0.817312 0.187187
H14   H     H_    0.007155 0.083749 0.185225 0.187901
H15   H     H_    0.506349 0.598544 0.682688 0.187187
H16   H     H_    0.492845 0.583748 0.314774 0.187901
C45   C     C_1   0.416551 0.006871 0.919334 -0.169312
C46   C     C_1   0.583373 0.992924 0.080942 -0.170752
C47   C     C_1   0.083448 0.506871 0.580666 -0.169313
C48   C     C_1   0.916627 0.492924 0.419058 -0.170752
C49   C     C_1   0.469042 0.002315 0.970259 -0.000953
C50   C     C_1   0.530881 0.997503 0.030020 0.000530
C51   C     C_1   0.030958 0.502315 0.529741 -0.000953
C52   C     C_1   0.969119 0.497503 0.469980 0.000530
O21   O     O_3   0.078243 0.923066 0.832972 -0.588218
C53   C     C_3   0.052778 0.748040 0.834358 0.048765
H17   H     H_    0.016621 0.729506 0.766801 0.151651
H18   H     H_    0.030543 0.731655 0.888660 0.123625
C54   C     C_3   0.100234 0.598716 0.845455 -0.298916
H19   H     H_    0.124003 0.619942 0.794144 0.221708
H20   H     H_    0.134035 0.604805 0.915900 0.188213
C55   C     C_3   0.070723 0.411616 0.830348 -0.823933
H21   H     H_    0.050808 0.382787 0.886134 0.234337
H22   H     H_    0.105383 0.307655 0.831815 0.255785
H23   H     H_    0.034851 0.404135 0.761867 0.225667
O22   O     O_3   0.922351 0.908547 0.166016 -0.589108
C56   C     C_3   0.947692 0.734602 0.161395 0.046406
H24   H     H_    0.985935 0.715953 0.226588 0.153163
H25   H     H_    0.967104 0.719354 0.103737 0.122396
C57   C     C_3   0.900995 0.584966 0.154340 -0.299593
H26   H     H_    0.879225 0.607674 0.207902 0.225417
H27   H     H_    0.865637 0.589390 0.085230 0.190033
C58   C     C_3   0.930679 0.398335 0.169134 -0.829173
H28   H     H_    0.949253 0.368760 0.111989 0.237281
H29   H     H_    0.896382 0.294543 0.169935 0.255490
H30   H     H_    0.967620 0.392288 0.236554 0.226343
O23   O     O_3   0.421757 0.423067 0.667028 -0.588218
C59   C     C_3   0.447222 0.248040 0.665642 0.048766
H31   H     H_    0.483379 0.229507 0.733199 0.151652
H32   H     H_    0.469457 0.231655 0.611340 0.123625
C60   C     C_3   0.399766 0.098716 0.654545 -0.298917
H33   H     H_    0.375997 0.119942 0.705856 0.221709
H34   H     H_    0.365965 0.104805 0.584099 0.188213
C61   C     C_3   0.429277 0.911616 0.669652 -0.823933
H35   H     H_    0.449193 0.882788 0.613866 0.234336
H36   H     H_    0.394616 0.807655 0.668185 0.255785
H37   H     H_    0.465149 0.904135 0.738133 0.225667
O24   O     O_3   0.577649 0.408546 0.333984 -0.589108
C62   C     C_3   0.552307 0.234602 0.338605 0.046406
H38   H     H_    0.514065 0.215953 0.273413 0.153163
H39   H     H_    0.532896 0.219354 0.396263 0.122396
C63   C     C_3   0.599004 0.084965 0.345660 -0.299593
H40   H     H_    0.620775 0.107674 0.292098 0.225417
H41   H     H_    0.634363 0.089389 0.414769 0.190033
C64   C     C_3   0.569320 0.898335 0.330866 -0.829173
H42   H     H_    0.550747 0.868759 0.388011 0.237281
H43   H     H_    0.603618 0.794543 0.330064 0.255489
H44   H     H_    0.532380 0.892288 0.263446 0.226343

loop_
_geom_bond_atom_site_label_1
_geom_bond_atom_site_label_2
_ccdc_geom_bond_type
O17   V3    S    
O1    C5    A    
O24   C62   S    
C47   C51   T    
O19   V1    S    
C9    C21   A    
O3    C7    A    
C58   H28   S    
C10   C18   A    
O15   V3    S    
C54   H19   S    
C25   C33   A    
C33   C38   A    
C57   H26   S    
O7    C3    A    
C56   H25   S    
C35   C40   A    
C26   C30   A    
C4    C45   S    
C36   C39   A    
C40   C44   A    
O9    V1    S    
C14   C18   A    
C1    C48   S    
O4    C8    A    
C25   C29   A    
C3    C46   S    
O23   C59   S    
O1    V3    S    
O13   V1    S    
C59   H31   S    
O2    V4    S    
O3    V1    S    
C40   H16   S    
C28   C36   A    
C17   H6    S    
C1    O15   A    
C15   C31   A    
C48   C52   T    
C2    O16   A    
C7    C9    S    
O2    C6    A    
C64   H44   S    
C16   H12   S    
C10   C22   A    
C11   C19   A    
C16   C20   A    
C43   H3    S    
C44   H4    S    
C13   C29   A    
C34   C37   A    
O11   C7    A    
C38   H14   S    
C11   C23   A    
C35   C36   A    
O12   C8    A    
O10   V2    S    
O22   C56   S    
C54   H20   S    
O5    V1    S    
C60   H34   S    
C56   C57   S    
C39   C43   A    
C2    C47   S    
O7    V3    S    
C38   C42   A    
O8    V4    S    
C46   C50   T    
C51   C52   S    
C45   C49   T    
O18   V4    S    
C15   C19   A    
C14   H10   S    
C53   C54   S    
C16   C32   A    
C32   C44   A    
C13   H9    S    
C55   H23   S    
C8    C10   S    
C39   H15   S    
C26   C34   A    
C20   H7    S    
C63   H41   S    
C62   H39   S    
O5    C1    A    
C21   O22   S    
C31   C43   A    
C14   C30   A    
C21   C25   A    
O8    C4    A    
C55   H22   S    
O9    C5    A    
C58   H29   S    
O21   C53   S    
C53   H18   S    
C24   O23   S    
C5    C11   S    
O6    V2    S    
C64   H42   S    
C12   C20   A    
C63   C64   S    
C27   C35   A    
C61   H36   S    
C62   H38   S    
C54   C55   S    
C29   C41   A    
C23   O24   S    
O16   V4    S    
C60   C61   S    
C19   H8    S    
C3    O13   A    
C18   H5    S    
C57   H27   S    
O6    C2    A    
C23   C27   A    
C60   H33   S    
C59   C60   S    
O11   V3    S    
C30   C42   A    
O12   V4    S    
C6    C12   S    
C56   H24   S    
C22   C26   A    
C57   C58   S    
C9    C17   A    
O10   C6    A    
C61   H37   S    
O20   V2    S    
C63   H40   S    
C49   C50   S    
C62   C63   S    
C37   H13   S    
C33   C34   A    
C42   H2    S    
C22   O21   S    
C41   H1    S    
C55   H21   S    
C59   H32   S    
C12   C24   A    
C58   H30   S    
C27   C31   A    
C13   C17   A    
C53   H17   S    
O14   V2    S    
C37   C41   A    
C24   C28   A    
C4    O14   A    
C64   H43   S    
C61   H35   S    
O4    V2    S    
C28   C32   A    
C15   H11   S    
