data_mof_unit_7480.cif
_audit_creation_date              2012-12-10T17:59:15-0500
_audit_creation_method            fapswitch 2.2
_symmetry_space_group_name_H-M    P1
_symmetry_Int_Tables_number       1
_space_group_crystal_system       triclinic
_cell_length_a                    10.789445
_cell_length_b                    9.61388
_cell_length_c                    10.758033
_cell_angle_alpha                 89.816537
_cell_angle_beta                  92.022753
_cell_angle_gamma                 90.269597
_cell_volume                      1115.20103788

loop_
_atom_site_label
_atom_site_type_symbol
_atom_type_description
_atom_site_fract_x
_atom_site_fract_y
_atom_site_fract_z
_atom_type_partial_charge
C1    C     C_R   0.262686 0.499927 0.498850 0.870834
C2    C     C_3   0.595693 0.391839 0.931223 -0.591029
C3    C     C_R   0.068176 0.407718 0.575570 -0.323421
C4    C     C_R   0.063119 0.595610 0.424544 -0.289595
C5    C     C_R   0.939244 0.409455 0.579577 0.348144
C6    C     C_R   0.933643 0.596307 0.424010 0.365706
C7    C     C_R   0.872151 0.501915 0.501364 -0.085703
C8    C     C_R   0.129199 0.500362 0.498827 -0.088801
C9    C     C_R   0.407267 0.074052 0.438387 0.406051
C10   C     C_R   0.411898 0.924237 0.431813 0.419580
C11   C     C_R   0.591851 0.926915 0.561903 0.407696
C12   C     C_R   0.591939 0.073327 0.561597 0.365442
C13   C     C_R   0.503845 0.500064 0.260342 0.870602
C14   C     C_R   0.737652 0.500453 0.500863 0.870475
C15   C     C_R   0.502110 0.500303 0.740077 0.819106
C16   C     C_3   0.550720 0.643694 0.074010 0.099546
C17   C     C_3   0.371298 0.472201 0.068768 0.081833
C18   C     C_3   0.544677 0.648360 0.930158 0.315001
C19   C     C_3   0.370613 0.464922 0.924017 0.331040
C20   C     C_3   0.593174 0.386272 0.074321 -0.342438
C21   C     C_3   0.505158 0.500041 0.122202 0.008716
C22   C     C_3   0.502430 0.502285 0.878520 -0.055279
Cu1   Cu    Cu3+1 0.500020 0.640660 0.500000 1.038899
Cu2   Cu    Cu3+1 0.500020 0.359340 0.500000 0.998898
H1    H     H_    0.488351 0.724489 0.109556 0.126571
H2    H     H_    0.311869 0.559920 0.098422 0.105776
H3    H     H_    0.639500 0.667980 0.895070 0.097609
H4    H     H_    0.351042 0.355841 0.893200 0.108309
H5    H     H_    0.688656 0.401051 0.114763 0.209667
H6    H     H_    0.561423 0.281276 0.103719 0.217765
H7    H     H_    0.691150 0.417549 0.902174 0.212580
H8    H     H_    0.572349 0.286749 0.893821 0.206524
H9    H     H_    0.121276 0.336797 0.634649 0.138974
H10   H     H_    0.112254 0.667005 0.365362 0.172788
N1    N     N_R   0.500030 0.852070 0.500030 -0.290920
N2    N     N_R   0.500030 0.147930 0.500030 -0.306761
O1    O     O_R   0.319660 0.618740 0.499990 -0.526751
O2    O     O_R   0.319660 0.381260 0.499990 -0.548337
O3    O     O_R   0.499990 0.618790 0.317690 -0.558375
O4    O     O_R   0.499990 0.381210 0.317690 -0.533536
O5    O     O_R   0.680370 0.618830 0.500010 -0.545670
O6    O     O_R   0.680370 0.381170 0.500010 -0.557762
O7    O     O_R   0.500030 0.618780 0.682310 -0.561700
O8    O     O_R   0.500030 0.381220 0.682310 -0.643706
O9    O     O_3   0.672531 0.670435 0.119108 -0.713264
H11   H     H_    0.687071 0.771937 0.109986 0.328722
O10   O     O_3   0.325122 0.346638 0.116936 -0.719777
H12   H     H_    0.233366 0.350427 0.108161 0.322096
O11   O     O_3   0.688625 0.863549 0.626065 -0.674455
H13   H     H_    0.657759 0.776305 0.661185 0.348809
O12   O     O_3   0.686544 0.136897 0.628645 -0.638563
H14   H     H_    0.652908 0.220809 0.666263 0.374498
O13   O     O_3   0.460546 0.753354 0.887731 -0.524592
C23   C     C_3   0.515289 0.887143 0.895968 -0.317661
H15   H     H_    0.607401 0.892033 0.853308 0.177277
H16   H     H_    0.523633 0.922566 0.993972 0.137414
H17   H     H_    0.454116 0.961720 0.844651 0.189993
O14   O     O_3   0.281897 0.557620 0.869377 -0.540671
C24   C     C_3   0.159993 0.505481 0.879348 -0.312603
H18   H     H_    0.127376 0.519083 0.975220 0.156192
H19   H     H_    0.151116 0.394681 0.850983 0.132137
H20   H     H_    0.097414 0.566784 0.816431 0.212379
O15   O     O_3   0.877559 0.326185 0.662118 -0.714350
H21   H     H_    0.938564 0.269136 0.710643 0.332440
O16   O     O_3   0.865648 0.685637 0.347549 -0.677896
H22   H     H_    0.923220 0.743916 0.299566 0.325483
O17   O     O_3   0.311804 0.146109 0.378693 -0.523340
C25   C     C_3   0.199712 0.118367 0.438744 -0.234282
H23   H     H_    0.129097 0.193854 0.404143 0.187660
H24   H     H_    0.210121 0.130491 0.541536 0.141240
H25   H     H_    0.162662 0.013314 0.416305 0.179361
O18   O     O_3   0.325406 0.848851 0.361117 -0.563547
C26   C     C_3   0.325601 0.890267 0.234919 -0.258364
H26   H     H_    0.296292 0.800174 0.176834 0.160565
H27   H     H_    0.418384 0.925542 0.204606 0.140091
H28   H     H_    0.256038 0.972746 0.215710 0.202663

loop_
_geom_bond_atom_site_label_1
_geom_bond_atom_site_label_2
_ccdc_geom_bond_type
C16   C21   S    
C1    C8    S    
Cu2   O6    S    
C26   H26   S    
C4    C8    A    
C20   H6    S    
O13   C23   S    
Cu2   N2    S    
C17   H2    S    
C15   O8    A    
C3    H9    S    
Cu1   O7    S    
C5    O15   S    
C2    H8    S    
C13   O4    A    
C18   O13   S    
C17   C19   S    
C6    O16   S    
C25   H23   S    
C2    C22   S    
C9    N2    A    
Cu2   O2    S    
Cu1   Cu2   S    
C10   N1    A    
C12   N2    A    
C9    C10   A    
C1    O1    A    
C14   O6    A    
C24   H18   S    
C26   H27   S    
C4    H10   S    
C20   H5    S    
C15   C22   S    
C19   O14   S    
C23   H16   S    
C24   H19   S    
C2    C20   S    
O12   H14   S    
C19   C22   S    
C4    C6    A    
C3    C8    A    
C5    C7    A    
O14   C24   S    
Cu1   O1    S    
C7    C14   S    
O17   C25   S    
C2    H7    S    
C9    O17   S    
C11   O11   S    
O10   H12   S    
C13   C21   S    
C19   H4    S    
C1    O2    A    
C14   O5    A    
C25   H24   S    
O11   H13   S    
Cu1   N1    S    
Cu2   O8    S    
C26   H28   S    
C12   O12   S    
C16   H1    S    
C23   H15   S    
C24   H20   S    
C18   C22   S    
C18   H3    S    
C17   O10   S    
O18   C26   S    
C3    C5    A    
C16   O9    S    
C11   C12   A    
C6    C7    A    
Cu1   O5    S    
C11   N1    A    
C15   O7    A    
C25   H25   S    
Cu1   O3    S    
Cu2   O4    S    
C17   C21   S    
C13   O3    A    
O15   H21   S    
O9    H11   S    
C20   C21   S    
C16   C18   S    
O16   H22   S    
C23   H17   S    
C10   O18   S    
