data_mof_unit_7217.cif
_audit_creation_date              2012-12-10T17:33:02-0500
_audit_creation_method            fapswitch 2.2
_symmetry_space_group_name_H-M    P1
_symmetry_Int_Tables_number       1
_space_group_crystal_system       triclinic
_cell_length_a                    12.429092
_cell_length_b                    13.312761
_cell_length_c                    14.355347
_cell_angle_alpha                 94.083053
_cell_angle_beta                  107.947641
_cell_angle_gamma                 117.324667
_cell_volume                      1943.00428864

loop_
_atom_site_label
_atom_site_type_symbol
_atom_type_description
_atom_site_fract_x
_atom_site_fract_y
_atom_site_fract_z
_atom_type_partial_charge
C1    C     C_R   0.652679 0.714408 0.511819 0.764968
C2    C     C_R   0.847442 0.498254 0.918370 0.089277
C3    C     C_R   0.800613 0.518602 0.991963 0.167664
C4    C     C_R   0.951861 0.474124 0.945657 0.062840
C5    C     C_R   0.017212 0.483077 0.049099 0.066851
C6    C     C_R   0.967108 0.503396 0.120171 -0.216987
C7    C     C_R   0.860048 0.519464 0.091642 -0.241823
C8    C     C_R   0.990777 0.438399 0.872707 -0.219743
C9    C     C_R   0.094775 0.418014 0.900769 -0.231174
C10   C     C_R   0.165156 0.433999 0.002268 0.164316
C11   C     C_R   0.128526 0.468464 0.077569 0.079185
C12   C     C_R   0.618380 0.516861 0.686454 0.784201
C13   C     C_R   0.272011 0.415528 0.029330 -0.197007
C14   C     C_R   0.343619 0.431311 0.130675 -0.212337
C15   C     C_R   0.206082 0.488901 0.179162 -0.209903
C16   C     C_R   0.116313 0.969277 0.347285 -0.183291
C17   C     C_R   0.247132 0.161612 0.461824 -0.038603
C18   C     C_R   0.754796 0.919964 0.601592 -0.189932
C19   C     C_R   0.857665 0.034598 0.633007 -0.140382
C20   C     C_R   0.954066 0.068840 0.592986 -0.163199
C21   C     C_R   0.945904 0.989549 0.515984 0.069532
C22   C     C_R   0.834342 0.875259 0.478079 0.085607
C23   C     C_R   0.344890 0.285205 0.484424 0.816822
C24   C     C_R   0.043474 0.020133 0.474221 0.065743
C25   C     C_R   0.023296 0.939318 0.391359 0.167710
C26   C     C_R   0.908212 0.831204 0.350417 -0.237512
C27   C     C_R   0.814195 0.800302 0.391946 -0.195516
C28   C     C_R   0.159591 0.129446 0.510687 -0.237077
C29   C     C_R   0.226337 0.080534 0.381147 -0.192518
C30   C     C_R   0.744541 0.838699 0.526783 -0.096921
C31   C     C_R   0.260614 0.696881 0.657028 -0.294088
C32   C     C_R   0.658734 0.346390 0.357613 0.378868
C33   C     C_R   0.740931 0.340004 0.312693 -0.235859
C34   C     C_R   0.381173 0.482492 0.313463 0.814119
C35   C     C_R   0.875094 0.409155 0.361454 -0.224028
C36   C     C_R   0.930926 0.479939 0.459530 0.016245
C37   C     C_R   0.845401 0.501382 0.494470 0.254756
C38   C     C_R   0.069836 0.536998 0.519706 -0.071018
C39   C     C_R   0.124343 0.632486 0.602380 0.163407
C40   C     C_R   0.041911 0.661397 0.630727 -0.264639
C41   C     C_R   0.905469 0.595089 0.580125 -0.186952
C42   C     C_R   0.156068 0.499870 0.504104 0.111619
C43   C     C_R   0.342244 0.664581 0.631551 0.041584
C44   C     C_R   0.681821 0.521469 0.792672 -0.050117
C45   C     C_R   0.310700 0.468111 0.206072 -0.050721
C46   C     C_R   0.694417 0.537943 0.965010 -0.204239
C47   C     C_R   0.634369 0.538121 0.865605 -0.195861
C48   C     C_R   0.789332 0.504676 0.820068 -0.254915
Cu1   Cu    Cu3+1 0.416420 0.526630 0.522910 0.963703
Cu2   Cu    Cu3+1 0.583580 0.473370 0.477090 0.924256
H1    H     H_    0.824324 0.533757 0.148433 0.144614
H2    H     H_    0.299715 0.388255 0.971983 0.132992
H3    H     H_    0.289773 0.104616 0.339898 0.145417
H4    H     H_    0.889943 0.770576 0.285051 0.141252
H5    H     H_    0.100721 0.908499 0.283344 0.136522
H6    H     H_    0.182770 0.193767 0.574712 0.150177
H7    H     H_    0.686180 0.893681 0.639031 0.147501
H8    H     H_    0.032085 0.158537 0.623003 0.155311
H9    H     H_    0.865369 0.096541 0.691462 0.145126
H10   H     H_    0.724011 0.717745 0.353920 0.166259
H11   H     H_    0.447339 0.716244 0.672761 0.127489
H12   H     H_    0.188596 0.523413 0.239316 0.163179
H13   H     H_    0.083119 0.734185 0.694833 0.151919
H14   H     H_    0.304047 0.772305 0.719205 0.141104
H15   H     H_    0.933577 0.406015 0.320762 0.163317
H16   H     H_    0.701484 0.278450 0.240863 0.153561
H17   H     H_    0.850928 0.622142 0.609203 0.200012
H18   H     H_    0.424524 0.414962 0.149891 0.155348
H19   H     H_    0.120737 0.390136 0.842405 0.146073
H20   H     H_    0.657367 0.552261 0.020775 0.132242
H21   H     H_    0.551180 0.551281 0.845975 0.155350
H22   H     H_    0.827763 0.499023 0.763521 0.155775
H23   H     H_    0.005681 0.503942 0.198440 0.145475
H24   H     H_    0.940150 0.421331 0.792442 0.152768
N1    N     N_R   0.290690 0.566960 0.557640 -0.217089
N2    N     N_R   0.709100 0.433710 0.442970 -0.203954
O1    O     O_R   0.545970 0.684450 0.528810 -0.583285
O2    O     O_R   0.687130 0.639470 0.490120 -0.597281
O3    O     O_R   0.519670 0.535100 0.660030 -0.589279
O4    O     O_R   0.660830 0.490120 0.621340 -0.599517
O5    O     O_R   0.312870 0.360530 0.509880 -0.560240
O6    O     O_R   0.454030 0.315550 0.471190 -0.585085
O7    O     O_R   0.339170 0.509880 0.378660 -0.544091
O8    O     O_R   0.480330 0.464900 0.339970 -0.605257
C49   C     C_2   0.097624 0.378573 0.446342 0.860151
O9    O     O_2   0.111603 0.358436 0.367886 -0.604075
O10   O     O_R   0.016425 0.286651 0.478062 -0.785740
H25   H     H_    0.974275 0.207993 0.429271 0.334851
C50   C     C_3   0.518429 0.249183 0.314023 -0.811767
H26   H     H_    0.496084 0.188773 0.244296 0.184039
H27   H     H_    0.502769 0.196793 0.370150 0.230688
H28   H     H_    0.448267 0.280252 0.292874 0.251239

loop_
_geom_bond_atom_site_label_1
_geom_bond_atom_site_label_2
_ccdc_geom_bond_type
O10   H25   S    
C23   O6    A    
C17   C29   A    
C35   C36   A    
C4    C8    A    
C28   H6    S    
Cu2   O8    S    
C41   H17   S    
C49   O9    D    
Cu2   O6    S    
C42   N1    A    
C17   C23   S    
C40   H13   S    
C31   C43   A    
C36   C37   A    
C9    H19   S    
C5    C11   A    
C3    C7    A    
C27   H10   S    
C5    C6    A    
C35   H15   S    
C12   O3    A    
C26   H4    S    
C1    O1    A    
C18   C19   A    
Cu1   O5    S    
C11   C15   A    
C19   C20   A    
Cu1   O1    S    
C8    C9    A    
Cu1   N1    S    
C18   C30   A    
C50   H27   S    
C23   O5    A    
C9    C10   A    
C44   C47   A    
C21   C22   A    
C1    O2    A    
C34   O8    A    
C48   H22   S    
Cu2   O2    S    
C33   H16   S    
C14   C45   A    
C49   O10   S    
C43   N1    A    
C24   C25   A    
C39   C40   A    
C34   C45   S    
C2    C48   A    
C16   C29   A    
Cu1   O3    S    
C2    C4    A    
Cu2   N2    S    
C13   H2    S    
C18   H7    S    
C32   C50   S    
C8    H24   S    
C26   C27   A    
C42   C49   S    
C50   H28   S    
C47   H21   S    
C40   C41   A    
C37   N2    A    
C22   C27   A    
C34   O7    A    
C15   C45   A    
C20   H8    S    
C43   H11   S    
C6    H23   S    
C16   C25   A    
C46   C47   A    
C22   C30   A    
C17   C28   A    
C31   H14   S    
C24   C28   A    
C4    C5    A    
C10   C13   A    
Cu2   O4    S    
C32   N2    A    
C38   C42   A    
C6    C7    A    
C3    C46   A    
C19   H9    S    
C32   C33   A    
Cu1   O7    S    
C36   C38   A    
C2    C3    A    
C25   C26   A    
C16   H5    S    
C7    H1    S    
C12   C44   S    
C38   C39   A    
C29   H3    S    
C12   O4    A    
C1    C30   S    
C33   C35   A    
C15   H12   S    
C31   C39   A    
C37   C41   A    
C46   H20   S    
C10   C11   A    
C20   C21   A    
Cu1   Cu2   S    
C21   C24   A    
C14   H18   S    
C50   H26   S    
C13   C14   A    
C44   C48   A    
