data_mof_unit_56584.cif
_audit_creation_date              2012-12-10T19:44:14-0500
_audit_creation_method            fapswitch 2.2
_symmetry_space_group_name_H-M    P1
_symmetry_Int_Tables_number       1
_space_group_crystal_system       triclinic
_cell_length_a                    18.322028
_cell_length_b                    18.283277
_cell_length_c                    34.438905
_cell_angle_alpha                 89.948101
_cell_angle_beta                  90.042035
_cell_angle_gamma                 89.863357
_cell_volume                      11536.534926

loop_
_atom_site_label
_atom_site_type_symbol
_atom_type_description
_atom_site_fract_x
_atom_site_fract_y
_atom_site_fract_z
_atom_type_partial_charge
C1    C     C_R   0.999976 0.500009 0.894238 0.504058
C2    C     C_R   0.564702 0.018155 0.291284 0.018449
C3    C     C_R   0.294560 0.814210 0.993493 -0.018570
C4    C     C_R   0.697650 0.195111 0.503123 -0.038144
C5    C     C_R   0.807800 0.699579 0.503486 -0.014150
C6    C     C_R   0.302350 0.804874 0.503127 -0.038182
C7    C     C_R   0.192303 0.300497 0.503501 -0.014100
C8    C     C_R   0.301870 0.193238 0.503179 -0.023138
C9    C     C_R   0.202424 0.689423 0.496527 -0.022616
C10   C     C_R   0.698060 0.806663 0.503195 -0.023042
C11   C     C_R   0.797576 0.310593 0.496520 -0.022547
C12   C     C_R   0.165290 0.779151 0.002626 -0.007379
C13   C     C_R   0.933894 0.486134 0.290441 0.025674
C14   C     C_R   0.284540 0.228138 0.039335 -0.009720
C15   C     C_R   0.834714 0.220811 0.002571 -0.006585
C16   C     C_R   0.715683 0.770276 0.039673 -0.006603
C17   C     C_R   0.771308 0.715234 0.039442 -0.012728
C18   C     C_R   0.779113 0.165079 0.002795 -0.003960
C19   C     C_R   0.225492 0.279531 0.039810 -0.011447
C20   C     C_R   0.220873 0.834892 0.002886 -0.003000
C21   C     C_R   0.691870 0.257228 0.528040 -0.004620
C22   C     C_R   0.786013 0.731233 0.539513 -0.005127
C23   C     C_R   0.308178 0.742706 0.528068 -0.004650
C24   C     C_R   0.435096 0.982716 0.291229 0.018601
C25   C     C_R   0.214155 0.268677 0.539521 -0.005223
C26   C     C_R   0.269707 0.213541 0.539285 -0.014617
C27   C     C_R   0.267596 0.679515 0.518449 0.008917
C28   C     C_R   0.730380 0.786290 0.539291 -0.014651
C29   C     C_R   0.732430 0.320445 0.518412 0.009012
C30   C     C_3   0.365409 0.692940 0.972781 0.193214
C31   C     C_3   0.244210 0.306936 0.932252 0.186734
C32   C     C_3   0.634602 0.307152 0.972338 0.193406
C33   C     C_3   0.755670 0.694745 0.932057 0.186374
C34   C     C_3   0.692785 0.749325 0.933259 0.195263
C35   C     C_R   0.499956 0.000200 0.770058 0.012214
C36   C     C_3   0.694225 0.366335 0.972188 0.194051
C37   C     C_3   0.307002 0.252110 0.932986 0.194603
C38   C     C_3   0.305800 0.633783 0.972466 0.194023
C39   C     C_3   0.865944 0.196202 0.468328 0.198226
C40   C     C_3   0.743089 0.804378 0.431768 0.185326
C41   C     C_3   0.134007 0.803871 0.468278 0.198189
C42   C     C_3   0.256670 0.195860 0.431758 0.185101
C43   C     C_3   0.193846 0.250540 0.432887 0.195304
C44   C     C_3   0.190808 0.864783 0.469484 0.194740
C45   C     C_3   0.805932 0.749708 0.432865 0.195065
C46   C     C_R   0.999961 0.500223 0.770825 0.012901
C47   C     C_3   0.809149 0.135285 0.469545 0.194779
C48   C     C_R   0.438418 0.973743 0.830673 -0.027321
C49   C     C_R   0.942768 0.465000 0.831220 -0.019406
C50   C     C_R   0.561425 0.026754 0.830697 -0.027563
C51   C     C_R   0.057032 0.535395 0.831263 -0.019093
C52   C     C_R   0.939206 0.471554 0.330797 -0.027327
C53   C     C_R   0.441732 0.966922 0.331173 -0.019918
C54   C     C_R   0.060607 0.528745 0.330813 -0.027338
C55   C     C_R   0.558067 0.033687 0.331236 -0.019872
C56   C     C_R   0.499956 0.000160 0.851265 0.023998
C57   C     C_R   0.999925 0.500105 0.270025 0.010856
C58   C     C_R   0.999930 0.500111 0.851773 0.034445
C59   C     C_R   0.999928 0.500117 0.351292 0.022504
C60   C     C_R   0.499927 0.000199 0.351770 0.032668
C61   C     C_3   0.085305 0.798600 0.009474 -0.236462
C62   C     C_3   0.067324 0.804677 0.052794 -0.416490
C63   C     C_3   0.329703 0.211562 0.075752 -0.250779
C64   C     C_3   0.294113 0.155012 0.102368 -0.389050
C65   C     C_3   0.914682 0.201182 0.009375 -0.236488
C66   C     C_3   0.932578 0.193962 0.052671 -0.421441
C67   C     C_3   0.676307 0.791435 0.077212 -0.255410
C68   C     C_R   0.499903 0.000468 0.270855 0.012017
C69   C     C_3   0.599986 0.758099 0.079029 -0.446968
C70   C     C_3   0.792159 0.674444 0.076567 -0.243582
C71   C     C_3   0.849040 0.716393 0.100233 -0.408477
C72   C     C_3   0.798471 0.084912 0.011065 -0.252601
C73   C     C_3   0.788248 0.037020 0.975086 -0.400657
C74   C     C_3   0.196022 0.309557 0.078149 -0.230975
C75   C     C_3   0.133335 0.262772 0.093890 -0.406528
C76   C     C_3   0.201520 0.914969 0.011308 -0.252636
C77   C     C_3   0.211491 0.963218 0.975405 -0.401275
C78   C     C_3   0.653049 0.253370 0.567416 -0.252595
C79   C     C_R   0.633862 0.003581 0.769843 0.004902
C80   C     C_3   0.701722 0.277738 0.601221 -0.473562
C81   C     C_3   0.826956 0.711426 0.576803 -0.257788
C82   C     C_3   0.902877 0.745778 0.577612 -0.451639
C83   C     C_3   0.347104 0.746470 0.567445 -0.252642
C84   C     C_3   0.298507 0.722057 0.601257 -0.473590
C85   C     C_3   0.173345 0.288393 0.576813 -0.257843
C86   C     C_3   0.097397 0.254097 0.577633 -0.451514
C87   C     C_3   0.288852 0.170920 0.576097 -0.244725
C88   C     C_3   0.344940 0.211319 0.601005 -0.399446
C89   C     C_3   0.296282 0.604149 0.530252 -0.243243
C90   C     C_R   0.131286 0.525636 0.770635 0.002762
C91   C     C_3   0.307578 0.554582 0.494994 -0.405899
C92   C     C_3   0.711303 0.828760 0.576105 -0.244883
C93   C     C_3   0.655304 0.788221 0.600999 -0.399641
C94   C     C_3   0.703737 0.395781 0.530170 -0.243171
C95   C     C_3   0.692398 0.445416 0.494887 -0.405905
C96   C     C_3   0.472724 0.671516 0.939289 0.007983
C97   C     C_3   0.499680 0.653195 0.898722 -0.376884
C98   C     C_3   0.199487 0.346952 0.873117 0.001628
C99   C     C_3   0.157282 0.322568 0.837440 -0.364290
C100  C     C_3   0.527902 0.328828 0.938231 0.007836
C101  C     C_R   0.366058 0.996990 0.769731 0.004930
C102  C     C_3   0.501721 0.347104 0.897477 -0.377073
C103  C     C_3   0.800620 0.655350 0.872908 0.000598
C104  C     C_3   0.842106 0.680362 0.837123 -0.364749
C105  C     C_3   0.636423 0.788004 0.877174 -0.001110
C106  C     C_3   0.639138 0.842778 0.844177 -0.367133
C107  C     C_3   0.674950 0.472003 0.936639 0.013489
C108  C     C_3   0.678078 0.503553 0.895851 -0.368817
C109  C     C_3   0.363373 0.213644 0.876889 -0.001933
C110  C     C_3   0.360727 0.158848 0.843936 -0.367426
C111  C     C_3   0.325736 0.528221 0.937064 0.013475
C112  C     C_R   0.500006 0.000040 0.894053 0.498221
C113  C     C_R   0.868598 0.475085 0.770523 0.002739
C114  C     C_3   0.323497 0.496860 0.896246 -0.368762
C115  C     C_3   0.970352 0.176945 0.432099 0.007157
C116  C     C_3   0.993794 0.156631 0.391157 -0.381816
C117  C     C_3   0.695227 0.843971 0.373202 -0.000658
C118  C     C_3   0.652393 0.818931 0.337862 -0.364975
C119  C     C_3   0.029534 0.823244 0.432024 0.007124
C120  C     C_3   0.005968 0.843521 0.391059 -0.381767
C121  C     C_3   0.304724 0.156330 0.373290 -0.000817
C122  C     C_3   0.347485 0.181477 0.337955 -0.365512
C123  C     C_3   0.140206 0.289314 0.376029 0.002132
C124  C     C_R   0.133201 0.513561 0.269463 0.005357
C125  C     C_3   0.143079 0.345753 0.343778 -0.366017
C126  C     C_3   0.172483 0.970544 0.433918 0.012193
C127  C     C_3   0.178817 0.003739 0.393620 -0.370567
C128  C     C_3   0.859617 0.710729 0.376127 0.001834
C129  C     C_3   0.856638 0.654270 0.343938 -0.365970
C130  C     C_3   0.827465 0.029602 0.434030 0.012222
C131  C     C_3   0.821040 0.996469 0.393749 -0.370564
C132  C     C_3   0.387262 0.918834 0.849917 -0.267340
C133  C     C_3   0.421373 0.842499 0.850604 -0.412386
C134  C     C_3   0.896645 0.404980 0.850120 -0.264358
C135  C     C_R   0.632186 0.020540 0.270778 0.000630
C136  C     C_3   0.942720 0.341128 0.865175 -0.421903
C137  C     C_3   0.612457 0.081758 0.849939 -0.267284
C138  C     C_3   0.578073 0.157962 0.850676 -0.412579
C139  C     C_3   0.102837 0.595614 0.850176 -0.264524
C140  C     C_3   0.056393 0.659211 0.865116 -0.422190
C141  C     C_3   0.888924 0.416518 0.350648 -0.265997
C142  C     C_3   0.923451 0.340520 0.350986 -0.412928
C143  C     C_3   0.394453 0.907491 0.349743 -0.263667
C144  C     C_3   0.439413 0.842498 0.364345 -0.417971
C145  C     C_3   0.110851 0.583825 0.350642 -0.265942
C146  C     C_R   0.866648 0.486702 0.269354 0.005463
C147  C     C_3   0.076176 0.659756 0.350988 -0.412985
C148  C     C_3   0.605267 0.093076 0.349882 -0.263652
C149  C     C_3   0.560213 0.157890 0.364526 -0.418066
C150  C     C_3   0.707205 0.988294 0.788884 -0.284195
C151  C     C_3   0.763779 0.047258 0.779430 -0.450118
C152  C     C_3   0.205551 0.516979 0.789922 -0.285351
C153  C     C_3   0.256858 0.581208 0.781697 -0.447588
C154  C     C_3   0.292805 0.012686 0.788702 -0.284095
C155  C     C_3   0.235947 0.953948 0.779348 -0.450193
C156  C     C_3   0.794378 0.484254 0.789724 -0.285251
C157  C     C_R   0.367611 0.980490 0.270670 0.000854
C158  C     C_3   0.742652 0.420351 0.781547 -0.447612
C159  C     C_3   0.207065 0.497347 0.287731 -0.283975
C160  C     C_3   0.262633 0.558331 0.280340 -0.450051
C161  C     C_3   0.706042 0.010147 0.290257 -0.286296
C162  C     C_3   0.759241 0.072639 0.281676 -0.446542
C163  C     C_3   0.792789 0.503018 0.287525 -0.283886
C164  C     C_3   0.737185 0.442050 0.280189 -0.450061
C165  C     C_3   0.293772 0.990924 0.290093 -0.286424
C166  C     C_3   0.240456 0.928574 0.281446 -0.446512
C167  C     C_3   0.139380 0.602801 0.143710 -0.009592
C168  C     C_R   0.131429 0.514246 0.228871 -0.106913
C169  C     C_3   0.198659 0.617397 0.113799 -0.371138
C170  C     C_3   0.631993 0.111238 0.145734 0.001600
C171  C     C_3   0.702352 0.131568 0.124994 -0.367092
C172  C     C_3   0.860301 0.397592 0.143542 -0.009268
C173  C     C_3   0.801115 0.383349 0.113498 -0.371257
C174  C     C_3   0.367795 0.889514 0.145853 0.003067
C175  C     C_3   0.297523 0.869225 0.124991 -0.368868
C176  C     C_3   0.658324 0.064766 0.639085 -0.014600
C177  C     C_3   0.717324 0.058765 0.608175 -0.380341
C178  C     C_3   0.130058 0.624645 0.653360 -0.016610
C179  C     C_R   0.630943 0.019521 0.230229 -0.104182
C180  C     C_3   0.103040 0.663581 0.616958 -0.368936
C181  C     C_3   0.341667 0.935122 0.639043 -0.014613
C182  C     C_3   0.282650 0.941046 0.608086 -0.380399
C183  C     C_3   0.869902 0.375519 0.653458 -0.016514
C184  C     C_3   0.897319 0.336423 0.617245 -0.369235
C185  C     C_R   0.868442 0.485937 0.228763 -0.107043
C186  C     C_R   0.368869 0.981593 0.230123 -0.105161
C187  C     C_R   0.632283 0.998366 0.729292 -0.105577
C188  C     C_R   0.499976 0.000028 0.394234 0.504533
C189  C     C_R   0.129786 0.525804 0.730067 -0.108657
C190  C     C_R   0.367646 0.001966 0.729168 -0.105599
C191  C     C_R   0.870150 0.474749 0.729960 -0.108674
C192  C     C_R   0.065707 0.510541 0.208523 -0.014959
C193  C     C_R   0.565314 0.012891 0.209765 -0.016124
C194  C     C_R   0.934178 0.489573 0.208472 -0.015124
C195  C     C_R   0.434527 0.988097 0.209719 -0.016289
C196  C     C_R   0.566672 0.000206 0.708656 -0.011116
C197  C     C_R   0.064374 0.516805 0.709677 -0.022847
C198  C     C_R   0.433267 0.999943 0.708595 -0.011131
C199  C     C_R   0.999988 0.500034 0.394068 0.498518
C200  C     C_R   0.935619 0.483522 0.709636 -0.022846
C201  C     C_R   0.999938 0.500062 0.229034 -0.037921
C202  C     C_R   0.499915 0.000494 0.230089 -0.038191
C203  C     C_R   0.499966 0.000115 0.729098 -0.037104
C204  C     C_R   0.999988 0.500181 0.730036 -0.038626
C205  C     C_R   0.065005 0.514112 0.167737 0.191566
C206  C     C_R   0.564693 0.016728 0.169122 0.201264
C207  C     C_R   0.934907 0.485948 0.167690 0.190372
C208  C     C_R   0.435202 0.984041 0.169093 0.196024
C209  C     C_R   0.566640 0.000006 0.667809 0.192932
C210  C     C_R   0.566576 0.010287 0.790552 0.025729
C211  C     C_R   0.062864 0.522535 0.669012 0.213440
C212  C     C_R   0.433322 0.999950 0.667748 0.192825
C213  C     C_R   0.937182 0.477611 0.668991 0.213519
C214  C     C_R   0.999978 0.499954 0.147738 0.039743
C215  C     C_R   0.499983 0.000252 0.148590 0.010058
C216  C     C_R   0.499986 0.999927 0.647799 0.040775
C217  C     C_R   0.000037 0.500027 0.648541 0.029738
C218  C     C_R   0.999990 0.499978 0.105619 0.592203
C219  C     C_R   0.500010 0.000050 0.105914 0.519677
C220  C     C_R   0.499997 0.999972 0.605635 0.580674
C221  C     C_R   0.064054 0.520417 0.791245 0.018674
C222  C     C_R   0.000020 0.500001 0.605900 0.532585
C223  C     C_R   0.859457 0.639219 0.000686 0.509516
C224  C     C_R   0.357992 0.861793 0.998818 0.492788
C225  C     C_R   0.140745 0.360846 0.001038 0.510306
C226  C     C_R   0.642011 0.138237 0.998809 0.492595
C227  C     C_R   0.137961 0.642164 0.998657 0.490496
C228  C     C_R   0.638702 0.858828 0.001041 0.515496
C229  C     C_R   0.862040 0.357816 0.998652 0.491332
C230  C     C_R   0.360966 0.140757 0.000576 0.510084
C231  C     C_R   0.359417 0.139172 0.500672 0.512380
C232  C     C_R   0.433319 0.990215 0.790506 0.025834
C233  C     C_R   0.858417 0.361526 0.499050 0.490159
C234  C     C_R   0.640554 0.860789 0.500681 0.512429
C235  C     C_R   0.141594 0.638493 0.499051 0.490524
C236  C     C_R   0.641737 0.138433 0.501663 0.500072
C237  C     C_R   0.138614 0.358744 0.501063 0.517456
C238  C     C_R   0.358247 0.861555 0.501669 0.500417
C239  C     C_R   0.861426 0.641288 0.501056 0.517497
C240  C     C_R   0.252553 0.695085 0.975440 0.022963
C241  C     C_R   0.273742 0.220859 0.968956 0.022392
C242  C     C_R   0.747397 0.305010 0.975447 0.022634
C243  C     C_R   0.935820 0.480097 0.791192 0.018720
C244  C     C_R   0.726410 0.779633 0.969314 0.020487
C245  C     C_R   0.781158 0.728294 0.969155 0.013099
C246  C     C_R   0.695155 0.252724 0.975246 0.021860
C247  C     C_R   0.219304 0.272409 0.969170 0.014104
C248  C     C_R   0.304826 0.747378 0.975316 0.022122
C249  C     C_R   0.752525 0.193396 0.475180 0.031053
C250  C     C_R   0.773169 0.720102 0.469332 0.024824
C251  C     C_R   0.247438 0.806655 0.475162 0.031062
C252  C     C_R   0.226778 0.280025 0.469338 0.024962
C253  C     C_R   0.281503 0.228652 0.469193 0.018381
C254  C     C_R   0.065940 0.514131 0.290483 0.025530
C255  C     C_R   0.196124 0.751849 0.473483 0.020353
C256  C     C_R   0.718387 0.771414 0.469201 0.018507
C257  C     C_R   0.803836 0.248212 0.473500 0.020332
C258  C     C_R   0.185670 0.705510 0.993267 -0.024619
C259  C     C_R   0.307746 0.199173 0.003053 -0.026127
C260  C     C_R   0.814334 0.294506 0.993256 -0.023784
C261  C     C_R   0.692597 0.800794 0.003540 -0.016360
C262  C     C_R   0.802187 0.693583 0.003222 -0.024514
C263  C     C_R   0.705410 0.185827 0.993436 -0.018497
C264  C     C_R   0.196927 0.305059 0.003537 -0.025087
H1    H     H_    0.400576 0.693619 0.999292 0.020872
H2    H     H_    0.760073 0.862591 0.435268 0.045724
H3    H     H_    0.744653 0.456949 0.479884 0.171210
H4    H     H_    0.654220 0.419322 0.474030 0.146577
H5    H     H_    0.668555 0.498334 0.504417 0.141121
H6    H     H_    0.649618 0.391406 0.544329 0.130698
H7    H     H_    0.739471 0.422536 0.551850 0.182977
H8    H     H_    0.475938 0.620649 0.957120 0.087065
H9    H     H_    0.508826 0.713738 0.952261 0.143957
H10   H     H_    0.493010 0.701051 0.879200 0.143106
H11   H     H_    0.558123 0.637863 0.899902 0.064036
H12   H     H_    0.468144 0.606631 0.886749 0.152540
H13   H     H_    0.096194 0.802652 0.493725 0.025892
H14   H     H_    0.257306 0.355496 0.864293 0.105047
H15   H     H_    0.175765 0.399394 0.883628 0.147294
H16   H     H_    0.099871 0.311171 0.845396 0.158210
H17   H     H_    0.158231 0.366195 0.815025 0.092569
H18   H     H_    0.182230 0.272129 0.825277 0.158421
H19   H     H_    0.524643 0.379787 0.955934 0.087079
H20   H     H_    0.491367 0.286850 0.951090 0.142860
H21   H     H_    0.508122 0.299018 0.878146 0.142733
H22   H     H_    0.443430 0.363054 0.898324 0.064485
H23   H     H_    0.533926 0.393227 0.885505 0.153299
H24   H     H_    0.239676 0.137634 0.435236 0.045435
H25   H     H_    0.742890 0.645798 0.864177 0.104478
H26   H     H_    0.825297 0.603336 0.883475 0.147173
H27   H     H_    0.899244 0.693294 0.845014 0.158475
H28   H     H_    0.842130 0.636451 0.814891 0.092711
H29   H     H_    0.815892 0.730041 0.824763 0.157344
H30   H     H_    0.583455 0.795203 0.892482 0.142300
H31   H     H_    0.639954 0.731937 0.864720 0.108488
H32   H     H_    0.691836 0.837785 0.828495 0.153014
H33   H     H_    0.593669 0.832698 0.823542 0.094322
H34   H     H_    0.633517 0.898688 0.856235 0.162708
H35   H     H_    0.139713 0.224757 0.438646 0.021169
H36   H     H_    0.708824 0.506675 0.956128 0.131740
H37   H     H_    0.617195 0.472914 0.946648 0.102484
H38   H     H_    0.643774 0.470674 0.875869 0.152918
H39   H     H_    0.657824 0.560627 0.895968 0.059499
H40   H     H_    0.735208 0.502851 0.885208 0.140432
H41   H     H_    0.416099 0.206050 0.892439 0.142008
H42   H     H_    0.360412 0.269727 0.864370 0.108573
H43   H     H_    0.308144 0.163944 0.828107 0.153205
H44   H     H_    0.406344 0.168826 0.823406 0.094289
H45   H     H_    0.366169 0.102906 0.856048 0.162288
H46   H     H_    0.186377 0.901567 0.495288 0.014167
H47   H     H_    0.291585 0.493389 0.956335 0.131100
H48   H     H_    0.383300 0.527424 0.947433 0.102393
H49   H     H_    0.358650 0.529514 0.876578 0.152635
H50   H     H_    0.343224 0.439605 0.896541 0.059103
H51   H     H_    0.266696 0.498130 0.885086 0.140724
H52   H     H_    0.976086 0.126909 0.450437 0.087170
H53   H     H_    0.007329 0.219985 0.443496 0.144616
H54   H     H_    0.988814 0.204390 0.371509 0.137767
H55   H     H_    0.051468 0.138150 0.391417 0.066369
H56   H     H_    0.959107 0.111667 0.379957 0.158507
H57   H     H_    0.860082 0.775501 0.438591 0.020960
H58   H     H_    0.752389 0.854607 0.363816 0.102253
H59   H     H_    0.670275 0.895398 0.384314 0.149260
H60   H     H_    0.596117 0.804129 0.346529 0.160409
H61   H     H_    0.649850 0.863479 0.315994 0.094404
H62   H     H_    0.679220 0.770378 0.324712 0.156533
H63   H     H_    0.023900 0.873305 0.450298 0.087292
H64   H     H_    0.992562 0.780245 0.443484 0.144381
H65   H     H_    0.010754 0.795706 0.371487 0.137638
H66   H     H_    0.948335 0.862131 0.391312 0.066482
H67   H     H_    0.040709 0.888383 0.379775 0.158629
H68   H     H_    0.813628 0.098456 0.495368 0.014194
H69   H     H_    0.247628 0.145407 0.363858 0.102010
H70   H     H_    0.329892 0.105051 0.384524 0.149608
H71   H     H_    0.403588 0.196830 0.346680 0.160685
H72   H     H_    0.350498 0.136805 0.316227 0.094240
H73   H     H_    0.320306 0.229701 0.324611 0.155842
H74   H     H_    0.086151 0.294061 0.390483 0.135671
H75   H     H_    0.146205 0.233934 0.362990 0.110221
H76   H     H_    0.196426 0.342605 0.328583 0.152824
H77   H     H_    0.098575 0.335748 0.322542 0.093071
H78   H     H_    0.135956 0.401054 0.356430 0.163140
H79   H     H_    0.182427 0.514122 0.212975 0.156391
H80   H     H_    0.203942 0.005180 0.454557 0.127593
H81   H     H_    0.113856 0.970304 0.442397 0.102884
H82   H     H_    0.147633 0.970652 0.372335 0.152026
H83   H     H_    0.156767 0.060247 0.393770 0.060911
H84   H     H_    0.236962 0.005180 0.384730 0.139317
H85   H     H_    0.913586 0.705747 0.390702 0.136094
H86   H     H_    0.853924 0.766124 0.363010 0.110098
H87   H     H_    0.803357 0.657617 0.328641 0.152903
H88   H     H_    0.901257 0.664079 0.322769 0.093230
H89   H     H_    0.863494 0.598948 0.356670 0.162941
H90   H     H_    0.682123 0.021506 0.214549 0.159250
H91   H     H_    0.796085 0.994911 0.454685 0.127559
H92   H     H_    0.886115 0.029868 0.442509 0.102903
H93   H     H_    0.852183 0.029582 0.372450 0.151953
H94   H     H_    0.843075 0.939956 0.393932 0.060875
H95   H     H_    0.762878 0.995058 0.384851 0.139384
H96   H     H_    0.475241 0.842628 0.865021 0.175977
H97   H     H_    0.385013 0.804304 0.866513 0.177647
H98   H     H_    0.428540 0.822068 0.820469 0.132130
H99   H     H_    0.372438 0.936599 0.879712 0.153224
H100  H     H_    0.335618 0.911764 0.834310 0.148589
H101  H     H_    0.817453 0.486056 0.212819 0.156442
H102  H     H_    0.972517 0.315456 0.840656 0.136699
H103  H     H_    0.982229 0.358423 0.887708 0.163394
H104  H     H_    0.906334 0.299320 0.878250 0.143938
H105  H     H_    0.861461 0.427087 0.873515 0.188380
H106  H     H_    0.859679 0.379794 0.828763 0.152657
H107  H     H_    0.570668 0.178504 0.820552 0.131910
H108  H     H_    0.524283 0.157596 0.865135 0.176343
H109  H     H_    0.614398 0.196210 0.866562 0.178303
H110  H     H_    0.627492 0.063890 0.879717 0.153401
H111  H     H_    0.663980 0.089134 0.834291 0.148682
H112  H     H_    0.260958 0.364971 0.936493 0.046730
H113  H     H_    0.317696 0.979695 0.214395 0.158259
H114  H     H_    0.026380 0.684607 0.840545 0.136836
H115  H     H_    0.017035 0.641718 0.887668 0.163056
H116  H     H_    0.092534 0.701288 0.878128 0.143502
H117  H     H_    0.138088 0.573669 0.873635 0.188184
H118  H     H_    0.139706 0.621006 0.828844 0.152642
H119  H     H_    0.977663 0.341184 0.365033 0.175287
H120  H     H_    0.887652 0.302132 0.367104 0.187146
H121  H     H_    0.929982 0.320212 0.320786 0.130903
H122  H     H_    0.874937 0.434181 0.380561 0.157149
H123  H     H_    0.836582 0.409074 0.335899 0.149079
H124  H     H_    0.683229 0.991518 0.713772 0.153535
H125  H     H_    0.469204 0.817266 0.339693 0.135762
H126  H     H_    0.478861 0.858553 0.387173 0.165225
H127  H     H_    0.402285 0.800780 0.376893 0.148616
H128  H     H_    0.359747 0.929732 0.373297 0.189308
H129  H     H_    0.356950 0.883530 0.328237 0.152736
H130  H     H_    0.022032 0.658959 0.365064 0.175266
H131  H     H_    0.111981 0.698165 0.367080 0.187164
H132  H     H_    0.069465 0.680138 0.320788 0.130891
H133  H     H_    0.125003 0.566086 0.380549 0.157257
H134  H     H_    0.163100 0.591442 0.335855 0.149147
H135  H     H_    0.180670 0.530221 0.714265 0.152075
H136  H     H_    0.530364 0.183242 0.339879 0.135579
H137  H     H_    0.520808 0.141607 0.387315 0.165099
H138  H     H_    0.597284 0.199583 0.377137 0.148593
H139  H     H_    0.640046 0.070743 0.373430 0.189450
H140  H     H_    0.642695 0.117247 0.328412 0.152686
H141  H     H_    0.781876 0.042595 0.748776 0.137112
H142  H     H_    0.741288 0.103008 0.783948 0.148644
H143  H     H_    0.812304 0.039993 0.798388 0.141697
H144  H     H_    0.703049 0.981049 0.820671 0.141459
H145  H     H_    0.728177 0.935033 0.777968 0.137991
H146  H     H_    0.316715 0.008804 0.713587 0.153589
H147  H     H_    0.277191 0.578750 0.751372 0.135864
H148  H     H_    0.229315 0.634640 0.786002 0.148707
H149  H     H_    0.304686 0.578051 0.801460 0.140923
H150  H     H_    0.201048 0.508098 0.821623 0.132994
H151  H     H_    0.231628 0.466384 0.778561 0.135939
H152  H     H_    0.217788 0.958613 0.748685 0.137128
H153  H     H_    0.258201 0.898110 0.783960 0.148620
H154  H     H_    0.187504 0.961479 0.798292 0.141683
H155  H     H_    0.297052 0.020044 0.820478 0.141408
H156  H     H_    0.272071 0.066001 0.777665 0.138062
H157  H     H_    0.819279 0.470414 0.714105 0.152148
H158  H     H_    0.722342 0.422891 0.751201 0.135944
H159  H     H_    0.769838 0.366746 0.785955 0.148791
H160  H     H_    0.694837 0.423859 0.801261 0.140451
H161  H     H_    0.798931 0.493159 0.821416 0.133087
H162  H     H_    0.768648 0.535006 0.778269 0.136080
H163  H     H_    0.281971 0.556680 0.249814 0.137677
H164  H     H_    0.238785 0.613174 0.285907 0.149626
H165  H     H_    0.310617 0.550485 0.299620 0.143363
H166  H     H_    0.203203 0.485670 0.319178 0.140871
H167  H     H_    0.228825 0.445976 0.274868 0.138706
H168  H     H_    0.078177 0.752299 0.068024 0.178621
H169  H     H_    0.779214 0.069205 0.251311 0.136319
H170  H     H_    0.733404 0.126939 0.285885 0.150270
H171  H     H_    0.807147 0.068239 0.301310 0.138188
H172  H     H_    0.701067 0.002238 0.321994 0.133007
H173  H     H_    0.730688 0.958516 0.279314 0.135519
H174  H     H_    0.717870 0.443622 0.249641 0.137680
H175  H     H_    0.760995 0.387209 0.285880 0.149616
H176  H     H_    0.689192 0.449986 0.299408 0.143312
H177  H     H_    0.796647 0.514785 0.318952 0.140686
H178  H     H_    0.771070 0.554370 0.274553 0.138893
H179  H     H_    0.100344 0.847712 0.067060 0.124249
H180  H     H_    0.220469 0.932203 0.251071 0.136012
H181  H     H_    0.266200 0.874205 0.285644 0.150402
H182  H     H_    0.192570 0.932957 0.301054 0.138024
H183  H     H_    0.298763 0.998664 0.321838 0.133057
H184  H     H_    0.269224 0.042653 0.279148 0.134837
H185  H     H_    0.157140 0.625947 0.172041 0.120650
H186  H     H_    0.088986 0.631907 0.134036 0.143618
H187  H     H_    0.182249 0.594707 0.085195 0.166396
H188  H     H_    0.207233 0.677245 0.110723 0.085730
H189  H     H_    0.250660 0.591405 0.123102 0.140889
H190  H     H_    0.008678 0.818561 0.056346 0.128921
H191  H     H_    0.632042 0.138377 0.174696 0.114754
H192  H     H_    0.585240 0.132444 0.128303 0.123841
H193  H     H_    0.703904 0.105647 0.095897 0.182850
H194  H     H_    0.705500 0.191857 0.121434 0.079262
H195  H     H_    0.750139 0.112611 0.142157 0.138510
H196  H     H_    0.842348 0.374352 0.171825 0.120646
H197  H     H_    0.910650 0.368384 0.133953 0.143700
H198  H     H_    0.817713 0.406184 0.084948 0.165986
H199  H     H_    0.792394 0.323545 0.110351 0.086304
H200  H     H_    0.749144 0.409427 0.122716 0.140417
H201  H     H_    0.070412 0.849763 0.994047 0.123954
H202  H     H_    0.367529 0.862524 0.174878 0.115937
H203  H     H_    0.414609 0.868126 0.128585 0.126837
H204  H     H_    0.296210 0.895031 0.095840 0.182199
H205  H     H_    0.294277 0.808930 0.121553 0.080365
H206  H     H_    0.249674 0.888364 0.141991 0.137411
H207  H     H_    0.682679 0.089119 0.665671 0.121109
H208  H     H_    0.615113 0.102345 0.627979 0.138894
H209  H     H_    0.693495 0.037467 0.580759 0.142872
H210  H     H_    0.741421 0.113348 0.602507 0.087410
H211  H     H_    0.761186 0.021104 0.618111 0.146885
H212  H     H_    0.048275 0.758365 0.995719 0.170792
H213  H     H_    0.188741 0.637777 0.657285 0.134232
H214  H     H_    0.101095 0.647582 0.679155 0.113181
H215  H     H_    0.044409 0.651638 0.612068 0.137086
H216  H     H_    0.109755 0.723572 0.620342 0.072776
H217  H     H_    0.135125 0.645328 0.591451 0.185781
H218  H     H_    0.317333 0.910818 0.665652 0.121192
H219  H     H_    0.384884 0.897538 0.628018 0.138833
H220  H     H_    0.306456 0.962318 0.580657 0.142884
H221  H     H_    0.258583 0.886440 0.602477 0.087427
H222  H     H_    0.238771 0.978697 0.617942 0.146803
H223  H     H_    0.599060 0.306547 0.998677 0.020591
H224  H     H_    0.254680 0.181664 0.122214 0.127783
H225  H     H_    0.811172 0.362424 0.657174 0.134331
H226  H     H_    0.898551 0.352691 0.679422 0.113257
H227  H     H_    0.956030 0.348258 0.612590 0.136778
H228  H     H_    0.890466 0.276453 0.620712 0.072950
H229  H     H_    0.865590 0.354639 0.591562 0.185830
H230  H     H_    0.266152 0.111861 0.085272 0.180584
H231  H     H_    0.336602 0.128561 0.120676 0.164598
H232  H     H_    0.384792 0.191040 0.067906 0.137158
H233  H     H_    0.342438 0.262199 0.092037 0.109296
H234  H     H_    0.925376 0.247002 0.067798 0.177591
H235  H     H_    0.896908 0.153266 0.067089 0.127855
H236  H     H_    0.990185 0.176149 0.056131 0.124014
H237  H     H_    0.929382 0.150324 0.993669 0.124398
H238  H     H_    0.951867 0.241620 0.995907 0.171005
H239  H     H_    0.738998 0.636575 0.935988 0.046654
H240  H     H_    0.603523 0.697556 0.077055 0.136305
H241  H     H_    0.573776 0.772848 0.107025 0.128598
H242  H     H_    0.565032 0.778851 0.055099 0.145437
H243  H     H_    0.705914 0.774327 0.103625 0.136108
H244  H     H_    0.672940 0.851513 0.080506 0.189548
H245  H     H_    0.900396 0.722676 0.083550 0.181878
H246  H     H_    0.829101 0.771707 0.108139 0.130209
H247  H     H_    0.861424 0.685771 0.127318 0.142884
H248  H     H_    0.743286 0.662845 0.094512 0.128733
H249  H     H_    0.813970 0.619070 0.070235 0.159789
H250  H     H_    0.638888 0.723561 0.939575 0.024201
H251  H     H_    0.730712 0.037030 0.965097 0.163584
H252  H     H_    0.823546 0.057044 0.951139 0.140380
H253  H     H_    0.803954 0.979754 0.982001 0.146218
H254  H     H_    0.855210 0.076613 0.020723 0.126775
H255  H     H_    0.767065 0.063211 0.035898 0.174787
H256  H     H_    0.082014 0.272853 0.077807 0.185769
H257  H     H_    0.146026 0.203599 0.091649 0.138678
H258  H     H_    0.123482 0.276562 0.124847 0.125079
H259  H     H_    0.238748 0.312940 0.100696 0.127760
H260  H     H_    0.177583 0.367124 0.075032 0.160899
H261  H     H_    0.694969 0.402621 0.998247 0.019904
H262  H     H_    0.268942 0.963244 0.965321 0.163572
H263  H     H_    0.175968 0.943478 0.951476 0.140546
H264  H     H_    0.195906 0.020431 0.982460 0.145030
H265  H     H_    0.144847 0.923133 0.021038 0.125613
H266  H     H_    0.233046 0.936469 0.036150 0.172349
H267  H     H_    0.755957 0.250730 0.599390 0.144125
H268  H     H_    0.709073 0.337795 0.601640 0.150543
H269  H     H_    0.675980 0.261963 0.629191 0.124179
H270  H     H_    0.601732 0.285743 0.566892 0.147143
H271  H     H_    0.638871 0.196568 0.575211 0.175182
H272  H     H_    0.361016 0.277666 0.939300 0.022058
H273  H     H_    0.898629 0.806111 0.574478 0.137475
H274  H     H_    0.929715 0.733258 0.605767 0.127877
H275  H     H_    0.937589 0.723790 0.553933 0.144821
H276  H     H_    0.797976 0.728840 0.603325 0.137057
H277  H     H_    0.831343 0.651457 0.580449 0.186197
H278  H     H_    0.244301 0.749136 0.599424 0.144067
H279  H     H_    0.291086 0.662009 0.601688 0.150596
H280  H     H_    0.324351 0.737726 0.629222 0.124233
H281  H     H_    0.398405 0.714076 0.566936 0.147099
H282  H     H_    0.361327 0.803248 0.575222 0.175214
H283  H     H_    0.304766 0.597481 0.998550 0.020543
H284  H     H_    0.101590 0.193770 0.574508 0.137438
H285  H     H_    0.070654 0.266558 0.605788 0.127855
H286  H     H_    0.062627 0.276177 0.553955 0.144882
H287  H     H_    0.202391 0.270863 0.603332 0.137071
H288  H     H_    0.169020 0.348355 0.580453 0.186018
H289  H     H_    0.397101 0.217822 0.585078 0.186054
H290  H     H_    0.325112 0.266448 0.609334 0.128509
H291  H     H_    0.355798 0.179404 0.627856 0.160165
H292  H     H_    0.239180 0.158810 0.593317 0.129061
H293  H     H_    0.310735 0.115780 0.569245 0.157838
H294  H     H_    0.903811 0.197372 0.493781 0.025932
H295  H     H_    0.255307 0.543094 0.479967 0.171234
H296  H     H_    0.345745 0.580708 0.474148 0.146604
H297  H     H_    0.331415 0.501639 0.504558 0.141084
H298  H     H_    0.350413 0.608477 0.544439 0.130734
H299  H     H_    0.260557 0.577358 0.551921 0.182859
H300  H     H_    0.603126 0.781713 0.585053 0.185901
H301  H     H_    0.675215 0.733089 0.609337 0.128662
H302  H     H_    0.644456 0.820038 0.627845 0.159936
H303  H     H_    0.761006 0.840844 0.593332 0.129033
H304  H     H_    0.689369 0.883911 0.569260 0.157679
O1    O     O_3   1.000000 0.500000 0.999990 -0.430278
O2    O     O_R   0.000000 0.560740 0.412560 -0.547529
O3    O     O_R   0.439260 0.000000 0.412560 -0.555445
O4    O     O_R   0.000000 0.439260 0.412560 -0.547096
O5    O     O_R   1.000000 0.560680 0.087420 -0.550250
O6    O     O_R   0.439320 1.000000 0.087420 -0.510363
O7    O     O_R   1.000000 0.439320 0.087420 -0.551551
O8    O     O_R   0.560680 1.000000 0.087420 -0.507505
O9    O     O_R   0.500000 0.060680 0.587420 -0.554318
O10   O     O_R   0.939320 0.500000 0.587420 -0.508205
O11   O     O_R   0.500000 0.939320 0.587420 -0.554388
O12   O     O_3   0.500000 1.000000 0.999990 -0.436937
O13   O     O_R   0.060680 0.500000 0.587420 -0.508413
O14   O     O_R   0.853840 0.585430 0.977070 -0.554217
O15   O     O_R   0.414570 0.853840 0.977070 -0.524884
O16   O     O_R   0.146160 0.414570 0.977070 -0.551802
O17   O     O_R   0.585430 0.146160 0.977070 -0.524745
O18   O     O_R   0.146160 0.585430 0.977070 -0.521163
O19   O     O_R   0.585430 0.853840 0.977070 -0.548803
O20   O     O_R   0.853840 0.414570 0.977070 -0.520830
O21   O     O_R   0.414570 0.146160 0.977070 -0.550634
O22   O     O_R   0.353840 0.085430 0.477070 -0.557557
O23   O     O_3   0.500000 1.000000 0.499990 -0.433330
O24   O     O_R   0.914570 0.353840 0.477070 -0.528841
O25   O     O_R   0.646160 0.914570 0.477070 -0.557220
O26   O     O_R   0.085430 0.646160 0.477070 -0.528749
O27   O     O_R   0.646160 0.085430 0.477070 -0.520717
O28   O     O_R   0.085430 0.353840 0.477070 -0.549749
O29   O     O_R   0.353840 0.914570 0.477070 -0.520624
O30   O     O_R   0.914570 0.646160 0.477070 -0.550074
O31   O     O_R   0.085450 0.353820 0.022910 -0.555942
O32   O     O_R   0.646180 0.085450 0.022910 -0.565928
O33   O     O_R   0.914550 0.646180 0.022910 -0.551701
O34   O     O_3   1.000000 0.500000 0.499990 -0.438057
O35   O     O_R   0.353820 0.914550 0.022910 -0.566031
O36   O     O_R   0.914550 0.353820 0.022910 -0.565815
O37   O     O_R   0.353820 0.085450 0.022910 -0.545641
O38   O     O_R   0.085450 0.646180 0.022910 -0.564936
O39   O     O_R   0.646180 0.914550 0.022910 -0.552965
O40   O     O_R   0.585450 0.853820 0.522910 -0.542594
O41   O     O_R   0.146180 0.585450 0.522910 -0.563583
O42   O     O_R   0.414550 0.146180 0.522910 -0.542421
O43   O     O_R   0.853820 0.414550 0.522910 -0.563621
O44   O     O_R   0.414550 0.853820 0.522910 -0.561965
O45   O     O_R   0.060740 0.500000 0.912560 -0.555633
O46   O     O_R   0.853820 0.585450 0.522910 -0.550765
O47   O     O_R   0.585450 0.146180 0.522910 -0.562006
O48   O     O_R   0.146180 0.414550 0.522910 -0.550978
O49   O     O_3   0.401148 0.699450 0.936608 -0.498760
O50   O     O_3   0.193328 0.293057 0.902250 -0.501398
O51   O     O_3   0.599372 0.300507 0.936009 -0.498994
O52   O     O_3   0.806072 0.709416 0.901950 -0.501924
O53   O     O_3   0.694843 0.801222 0.902852 -0.498972
O54   O     O_3   0.702725 0.400225 0.935591 -0.493388
O55   O     O_3   0.304446 0.200937 0.902280 -0.499230
O56   O     O_R   0.500000 0.060740 0.912560 -0.548772
O57   O     O_3   0.297735 0.599900 0.935868 -0.493360
O58   O     O_3   0.898189 0.204263 0.431282 -0.502655
O59   O     O_3   0.691987 0.789257 0.402040 -0.499542
O60   O     O_3   0.101678 0.795883 0.431232 -0.502659
O61   O     O_3   0.307673 0.211144 0.402029 -0.499633
O62   O     O_3   0.196670 0.303150 0.402836 -0.496686
O63   O     O_3   0.201316 0.899052 0.433092 -0.493760
O64   O     O_3   0.802952 0.697179 0.402826 -0.496822
O65   O     O_3   0.798582 0.101076 0.433167 -0.493751
O66   O     O_3   0.128545 0.526490 0.146962 -0.576513
O67   O     O_R   0.939260 0.500000 0.912560 -0.556140
O68   O     O_3   0.628280 0.034343 0.149494 -0.544039
O69   O     O_3   0.871328 0.473849 0.146865 -0.577013
O70   O     O_3   0.371603 0.966417 0.149445 -0.550331
O71   O     O_3   0.631275 0.994063 0.647164 -0.577948
O72   O     O_3   0.123653 0.547719 0.649047 -0.544818
O73   O     O_3   0.368700 0.005846 0.647033 -0.578083
O74   O     O_3   0.876377 0.452424 0.649016 -0.544804
O75   O     O_R   0.500000 0.939260 0.912560 -0.548473
O76   O     O_R   0.560740 0.000000 0.412560 -0.555135
Zn1   Zn    Zn3+2 0.000000 0.586730 0.032740 0.904378
Zn2   Zn    Zn3+2 0.500000 0.913250 0.967240 0.918586
Zn3   Zn    Zn3+2 0.086750 0.500000 0.967240 0.921753
Zn4   Zn    Zn3+2 0.500000 0.086750 0.967240 0.917564
Zn5   Zn    Zn3+2 0.413250 1.000000 0.467240 0.923319
Zn6   Zn    Zn3+2 1.000000 0.413250 0.467240 0.918939
Zn7   Zn    Zn3+2 0.586750 1.000000 0.467240 0.923393
Zn8   Zn    Zn3+2 0.000000 0.586750 0.467240 0.918838
Zn9   Zn    Zn3+2 0.413270 1.000000 0.032740 0.906272
Zn10  Zn    Zn3+2 1.000000 0.413270 0.032740 0.901703
Zn11  Zn    Zn3+2 0.586730 1.000000 0.032740 0.910245
Zn12  Zn    Zn3+2 0.500000 0.086730 0.532740 0.910594
Zn13  Zn    Zn3+2 0.913270 0.500000 0.532740 0.913265
Zn14  Zn    Zn3+2 0.500000 0.913270 0.532740 0.910767
Zn15  Zn    Zn3+2 0.086730 0.500000 0.532740 0.913309
Zn16  Zn    Zn3+2 0.913250 0.500000 0.967240 0.920631

loop_
_geom_bond_atom_site_label_1
_geom_bond_atom_site_label_2
_ccdc_geom_bond_type
C104  H28   S    
O23   Zn7   S    
O39   Zn11  S    
C126  C127  S    
C122  H72   S    
C8    C26   A    
C74   H259  S    
C226  O17   A    
C82   H275  S    
C231  O22   A    
O75   Zn2   S    
C182  H220  S    
O15   Zn2   S    
C207  O69   S    
C176  H207  S    
C61   H201  S    
C120  H65   S    
C6    C238  S    
C71   H247  S    
C3    C224  S    
C30   C248  S    
C69   H242  S    
C183  H225  S    
C129  H88   S    
C102  H21   S    
C84   H279  S    
C91   H296  S    
C123  H74   S    
C2    C55   A    
C109  O55   S    
O46   Zn13  S    
C236  O47   A    
C187  H124  S    
C81   H277  S    
O2    Zn8   S    
C143  C144  S    
C206  O68   S    
C244  C245  A    
C30   C38   S    
C169  H189  S    
C132  H100  S    
C128  H86   S    
C57   C254  A    
C75   H256  S    
C143  H128  S    
C139  H117  S    
C124  C168  A    
C160  H163  S    
C71   H245  S    
C7    C237  S    
C113  C243  A    
C114  H50   S    
C103  O52   S    
O21   Zn4   S    
C181  H218  S    
C224  O35   A    
C72   H254  S    
C86   H286  S    
C171  H194  S    
C227  O38   A    
C60   C188  S    
C241  C247  A    
C153  H149  S    
O48   Zn15  S    
C114  H49   S    
C46   C243  A    
C5    C250  A    
O27   Zn7   S    
C165  H183  S    
C116  H55   S    
C76   H265  S    
C33   H239  S    
C76   C77   S    
C19   C74   S    
C161  H173  S    
C162  H170  S    
C164  H174  S    
C68   C202  A    
C105  H31   S    
C142  H120  S    
C105  H30   S    
C90   C152  S    
O9    Zn12  S    
C104  H29   S    
C181  C182  S    
C82   H273  S    
C21   C29   A    
C150  H145  S    
C185  H101  S    
C31   C37   S    
C75   H258  S    
C183  C184  S    
C197  C211  A    
C118  H60   S    
C186  C195  A    
C61   H212  S    
C199  O4    A    
C36   H261  S    
C220  O11   A    
C100  H20   S    
C54   C254  A    
C108  H38   S    
C157  C186  A    
C93   H302  S    
C106  H34   S    
C154  C155  S    
C23   C83   S    
C54   C145  S    
C110  H43   S    
C111  H48   S    
O23   Zn5   S    
C205  C214  A    
C30   O49   S    
C36   O54   S    
O13   Zn15  S    
C228  O19   A    
C3    C248  A    
C115  O58   S    
C156  H161  S    
C80   H268  S    
O37   Zn9   S    
C228  C261  S    
C180  H215  S    
C39   C47   S    
C100  C102  S    
C179  C193  A    
C136  H103  S    
C189  C197  A    
C120  H67   S    
C105  O53   S    
C184  H228  S    
C222  O10   A    
C14   C19   A    
C93   H300  S    
C72   C73   S    
C159  H166  S    
C140  H116  S    
C107  H36   S    
O34   Zn8   S    
C139  C140  S    
C178  H213  S    
C153  H147  S    
C125  H78   S    
C168  C192  A    
C211  O72   S    
C14   C259  A    
C156  C158  S    
C130  C131  S    
C16   C17   A    
O19   Zn2   S    
C51   C221  A    
C223  O14   A    
O12   Zn2   S    
C8    C231  S    
O7    Zn10  S    
C130  H91   S    
O31   Zn10  S    
C148  H139  S    
C152  H150  S    
C86   H284  S    
C38   C240  S    
C40   C256  S    
C238  O29   A    
C138  H108  S    
C230  C259  S    
O20   Zn16  S    
C98   C99   S    
O1    Zn16  S    
C63   H232  S    
C64   H224  S    
C228  O39   A    
C67   C69   S    
C226  C263  S    
C223  C262  S    
C230  O37   A    
O4    Zn6   S    
C147  H132  S    
C166  H182  S    
C123  H75   S    
C11   C233  S    
C15   C18   A    
C96   O49   S    
C164  H176  S    
C9    C235  S    
C192  C205  A    
C182  H221  S    
C239  O30   A    
C62   H168  S    
C128  C129  S    
C167  C169  S    
C138  H109  S    
C85   C86   S    
C209  O71   S    
O76   Zn7   S    
C194  C207  A    
C158  H158  S    
C140  H115  S    
O12   Zn11  S    
C144  H125  S    
C11   C257  A    
C31   O50   S    
C127  H84   S    
C2    C68   A    
C80   H269  S    
C78   C80   S    
C103  H25   S    
C13   C57   A    
C170  C171  S    
O3    Zn5   S    
C199  O2    A    
C119  H64   S    
C109  H41   S    
C184  H229  S    
C131  H94   S    
C35   C232  A    
C160  H165  S    
C17   C262  A    
C84   H278  S    
C174  C175  S    
O10   Zn13  S    
C107  H37   S    
C19   C264  A    
C174  H202  S    
C195  C208  A    
O44   Zn14  S    
C26   C87   S    
C32   O51   S    
C107  C108  S    
C73   H251  S    
C89   C91   S    
C198  C212  A    
C227  C258  S    
C121  H69   S    
C163  H177  S    
C83   H281  S    
O43   Zn13  S    
O28   Zn6   S    
C89   H298  S    
C135  C161  S    
C9    C255  A    
C66   H236  S    
C170  H192  S    
C49   C243  A    
C151  H142  S    
C33   C34   S    
O23   Zn14  S    
C54   C59   A    
O45   Zn3   S    
C171  H195  S    
C219  O6    A    
C37   C241  S    
C37   H272  S    
C190  H146  S    
O12   Zn4   S    
C181  O73   S    
C191  C200  A    
C90   C221  A    
C169  H187  S    
C214  C218  S    
C157  C165  S    
C30   H1    S    
C116  H54   S    
C24   C157  A    
C134  H106  S    
O16   Zn3   S    
C117  H58   S    
C44   O63   S    
C25   C26   A    
C219  O8    A    
C207  C214  A    
C50   C56   A    
C62   H179  S    
C92   H303  S    
C67   H243  S    
C224  O15   A    
C99   H18   S    
O34   Zn15  S    
C115  H52   S    
C44   C251  S    
C95   H3    S    
C83   C84   S    
C126  H81   S    
C177  H210  S    
C200  C204  A    
C149  H138  S    
C25   C85   S    
O12   Zn9   S    
C16   C67   S    
C137  H110  S    
C208  O70   S    
C147  H130  S    
C166  H180  S    
C16   C261  A    
C175  H205  S    
C78   H271  S    
C208  C215  A    
C133  H98   S    
O6    Zn9   S    
C85   H287  S    
O22   Zn5   S    
C1    O45   A    
C180  H217  S    
C198  C203  A    
C4    C236  S    
C226  O32   A    
C64   H231  S    
C250  C256  A    
C144  H127  S    
C74   H260  S    
O1    Zn3   S    
C216  C220  S    
C127  H82   S    
C142  H121  S    
C176  H208  S    
C42   O61   S    
C136  H102  S    
C213  O74   S    
C120  H66   S    
C41   C255  S    
C2    C135  A    
C110  H44   S    
C129  H87   S    
C222  O13   A    
C36   C242  S    
C102  H22   S    
C89   H299  S    
C84   H280  S    
C32   H223  S    
C91   H295  S    
C18   C263  A    
C159  H167  S    
C117  C118  S    
C11   C29   A    
C55   C148  S    
C81   H276  S    
C101  C154  S    
C122  H71   S    
C46   C204  A    
C107  O54   S    
C83   H282  S    
C73   H253  S    
C158  H159  S    
O34   Zn6   S    
C169  H188  S    
C155  H154  S    
C61   C62   S    
C230  O21   A    
C47   C249  S    
C41   H13   S    
C63   C64   S    
C229  C260  S    
C154  H155  S    
C152  C153  S    
C62   H190  S    
C57   C201  A    
C239  O46   A    
C150  C151  S    
C252  C253  A    
C22   C28   A    
C66   H234  S    
C112  O56   A    
C234  O25   A    
C15   C260  A    
C40   H2    S    
C206  C215  A    
C171  H193  S    
C87   C88   S    
C148  H140  S    
C187  C196  A    
C123  O62   S    
C229  O36   A    
C185  C194  A    
C141  H122  S    
C139  H118  S    
C121  O61   S    
C161  C162  S    
C116  H56   S    
C77   H264  S    
O5    Zn1   S    
C184  H227  S    
C175  H204  S    
C161  H172  S    
C162  H171  S    
C242  C246  A    
C146  C185  A    
C88   H290  S    
C6    C251  A    
C10   C256  A    
C91   H297  S    
C35   C210  A    
C4    C249  A    
C76   H266  S    
O34   Zn13  S    
C87   H293  S    
C167  H186  S    
C150  H144  S    
C172  O69   S    
C123  C125  S    
C94   H6    S    
C8    C253  A    
O38   Zn1   S    
C140  H114  S    
C197  C204  A    
C48   C56   A    
C75   H257  S    
O26   Zn8   S    
C69   H240  S    
C47   O65   S    
C118  H61   S    
C145  H134  S    
C21   C78   S    
C192  C201  A    
C33   C245  S    
C70   C71   S    
C97   H10   S    
O32   Zn11  S    
C104  H27   S    
C111  H47   S    
C32   C36   S    
C238  O44   A    
C55   C60   A    
O1    Zn1   S    
C33   O52   S    
C117  O59   S    
C156  H162  S    
C145  C147  S    
C180  H216  S    
C136  H104  S    
C18   C72   S    
C40   C45   S    
C211  C217  A    
C10   C234  S    
C183  H226  S    
C34   C244  S    
C22   C81   S    
C162  H169  S    
C124  C254  A    
C101  C190  A    
C225  O31   A    
C235  O26   A    
C151  H143  S    
C178  H214  S    
C88   H291  S    
C88   H289  S    
C173  H199  S    
C42   C253  S    
C24   C53   A    
C125  H77   S    
C193  C202  A    
C149  H136  S    
C153  H148  S    
C128  H85   S    
C215  C219  S    
C13   C52   A    
C119  O60   S    
C251  C255  A    
C159  C160  S    
C39   O58   S    
O18   Zn3   S    
C179  H90   S    
C133  H96   S    
C130  H92   S    
C3    C20   A    
C51   C58   A    
C181  H219  S    
C196  C203  A    
C121  C122  S    
C86   H285  S    
C39   H294  S    
C87   H292  S    
C172  H197  S    
C125  H76   S    
C47   H68   S    
C188  O3    A    
C98   H14   S    
C41   C44   S    
O14   Zn16  S    
C42   C43   S    
C113  C156  S    
C63   H233  S    
O29   Zn5   S    
C191  H157  S    
C165  H184  S    
C190  C198  A    
C147  H131  S    
C137  C138  S    
C10   C28   A    
C217  C222  S    
O25   Zn7   S    
C100  O51   S    
C5    C239  S    
O42   Zn12  S    
C182  H222  S    
C70   H249  S    
C234  O40   A    
C142  H119  S    
C52   C141  S    
C249  C257  A    
C106  H32   S    
C178  C180  S    
C119  C120  S    
C173  H198  S    
C69   H241  S    
C237  O28   A    
C105  C106  S    
C64   H230  S    
C7    C25   A    
C144  H126  S    
C122  H73   S    
C127  H83   S    
C109  C110  S    
C12   C61   S    
C194  C201  A    
C29   C94   S    
C119  H63   S    
C14   C63   S    
C100  H19   S    
C92   C93   S    
C223  O33   A    
C174  O70   S    
C111  C114  S    
C94   C95   S    
C106  H33   S    
C24   C68   A    
C170  O68   S    
C174  H203  S    
C108  H39   S    
C103  C104  S    
C240  C248  A    
C34   O53   S    
C48   C132  S    
C186  H113  S    
C205  O66   S    
C1    C58   S    
C80   H267  S    
C115  C116  S    
C98   H15   S    
C49   C134  S    
C71   H246  S    
C165  C166  S    
C77   H262  S    
C163  C164  S    
O47   Zn12  S    
C178  O72   S    
C81   C82   S    
C151  H141  S    
C50   C137  S    
C195  C202  A    
C231  O42   A    
C46   C221  A    
C79   C187  A    
O1    Zn10  S    
C45   H57   S    
C40   O59   S    
C6    C23   A    
C124  C159  S    
C20   C76   S    
C233  O24   A    
C97   H12   S    
C92   H304  S    
C72   H255  S    
C65   H237  S    
C39   C257  S    
C43   C252  S    
C138  H107  S    
C212  C216  A    
C177  H209  S    
C132  C133  S    
C149  H137  S    
O17   Zn4   S    
C27   C89   S    
C15   C65   S    
C23   C27   A    
C101  C232  A    
O36   Zn10  S    
C247  C264  A    
C9    C27   A    
C166  H181  S    
C188  O76   A    
C82   H274  S    
C155  H152  S    
C17   C70   S    
C164  H175  S    
C133  H97   S    
C12   C20   A    
C96   H9    S    
C31   C247  S    
C12   C258  A    
C13   C146  A    
O56   Zn4   S    
C245  C262  A    
C168  H79   S    
C38   H283  S    
C95   H5    S    
C173  H200  S    
C218  O7    A    
C233  O43   A    
C113  C191  A    
C31   H112  S    
C209  C216  A    
O33   Zn1   S    
C74   C75   S    
C5    C22   A    
C44   H46   S    
C212  O73   S    
C148  C149  S    
C130  O65   S    
C59   C199  S    
C38   O57   S    
C213  C217  A    
C103  H26   S    
C134  C136  S    
C126  O63   S    
C109  H42   S    
C229  O20   A    
C49   C58   A    
C110  H45   S    
C32   C246  S    
C53   C143  S    
C48   C232  A    
C102  H23   S    
C65   H238  S    
C1    O67   A    
C52   C59   A    
C45   C250  S    
C97   H11   S    
C99   H16   S    
O23   Zn12  S    
C96   C97   S    
O11   Zn14  S    
C53   C60   A    
C200  C213  A    
O41   Zn15  S    
C73   H252  S    
C158  H160  S    
C28   C92   S    
C155  H153  S    
C176  O71   S    
C50   C210  A    
C121  H70   S    
C163  H178  S    
C45   O64   S    
C154  H156  S    
C176  C177  S    
C65   C66   S    
C79   C150  S    
C132  H99   S    
C56   C112  S    
C66   H235  S    
C196  C209  A    
C70   H248  S    
C128  O64   S    
C108  H40   S    
C236  O27   A    
C172  C173  S    
C34   H250  S    
C129  H89   S    
C172  H196  S    
C43   H35   S    
C193  C206  A    
C241  C259  A    
C242  C260  A    
C114  H51   S    
C143  H129  S    
C77   H263  S    
C134  H105  S    
C117  H59   S    
O8    Zn11  S    
O30   Zn8   S    
C96   H8    S    
O40   Zn14  S    
C146  C163  S    
C79   C210  A    
C98   O50   S    
C160  H164  S    
C7    C252  A    
C183  O74   S    
C240  C258  A    
C67   H244  S    
C152  H151  S    
C135  C179  A    
C227  O18   A    
C141  C142  S    
C111  O57   S    
C4    C21   A    
C167  H185  S    
C225  O16   A    
C35   C203  A    
C95   H4    S    
C167  O66   S    
C126  H80   S    
C131  H93   S    
C177  H211  S    
O24   Zn6   S    
C94   H7    S    
C235  O41   A    
C170  H191  S    
C237  O48   A    
C189  H135  S    
C112  O75   A    
C141  H123  S    
C137  H111  S    
C37   O55   S    
C43   O62   S    
C118  H62   S    
C175  H206  S    
O67   Zn16  S    
C78   H270  S    
C145  H133  S    
C220  O9    A    
C99   H17   S    
C131  H95   S    
C244  C261  A    
C41   O60   S    
C225  C264  S    
C85   H288  S    
C93   H301  S    
C90   C189  A    
C42   H24   S    
C246  C263  A    
C51   C139  S    
O35   Zn9   S    
C218  O5    A    
C115  H53   S    
