data_mof_unit_65538.cif
_audit_creation_date              2012-10-26T20:45:13-0400
_audit_creation_method            fapswitch 2.2
_symmetry_space_group_name_H-M    P1
_symmetry_Int_Tables_number       1
_space_group_crystal_system       triclinic
_cell_length_a                    12.741316
_cell_length_b                    13.903287
_cell_length_c                    23.533232
_cell_angle_alpha                 90.207057
_cell_angle_beta                  93.190724
_cell_angle_gamma                 97.955714
_cell_volume                      4122.02815077

loop_
_atom_site_label
_atom_site_type_symbol
_atom_type_description
_atom_site_fract_x
_atom_site_fract_y
_atom_site_fract_z
_atom_type_partial_charge
C1    C     C_R   0.483557 0.315795 0.499410 0.552008
C2    C     C_R   0.404731 0.495219 0.699506 -0.140360
C3    C     C_R   0.594709 0.509693 0.241368 -0.078330
C4    C     C_R   0.405654 0.494144 0.758673 -0.078126
C5    C     C_R   0.498773 0.504621 0.208684 0.218115
C6    C     C_R   0.501314 0.496424 0.791307 0.215501
C7    C     C_1   0.525864 0.787543 0.500924 0.002383
C8    C     C_1   0.474136 0.212457 0.499078 0.002603
C9    C     C_2   0.543580 0.978414 0.501552 -0.108353
C10   C     C_2   0.456421 0.021586 0.498454 -0.108372
C11   C     C_1   0.465580 0.125401 0.498777 -0.031272
C12   C     C_R   0.516443 0.684205 0.500590 0.551891
C13   C     C_1   0.534421 0.874599 0.501228 -0.031437
C14   C     C_2   0.028120 0.473392 0.483859 -0.153226
C15   C     C_2   0.971880 0.526606 0.516147 -0.153755
C16   C     C_R   0.500245 0.500152 0.390665 0.551840
C17   C     C_R   0.499756 0.499839 0.609335 0.551146
C18   C     C_1   0.854681 0.519215 0.511570 0.155740
C19   C     C_1   0.145319 0.480784 0.488433 0.155341
C20   C     C_R   0.520794 0.584774 0.880775 0.434154
C21   C     C_R   0.479378 0.416251 0.119214 0.435109
C22   C     C_R   0.475070 0.412077 0.880129 0.436310
C23   C     C_R   0.401516 0.498209 0.235651 0.093122
C24   C     C_R   0.525346 0.588931 0.119867 0.442910
C25   C     C_R   0.475209 0.411340 0.939736 0.037688
C26   C     C_R   0.525173 0.589666 0.060260 0.037799
C27   C     C_R   0.499391 0.500004 0.969995 -0.023169
C28   C     C_R   0.500908 0.501012 0.030000 -0.023515
C29   C     C_R   0.522088 0.587661 0.940393 0.038284
C30   C     C_R   0.478154 0.413362 0.059599 0.037239
C31   C     C_R   0.452653 0.324388 0.969684 -0.113036
C32   C     C_R   0.547721 0.676619 0.030311 -0.113792
C33   C     C_R   0.454161 0.325384 0.029010 -0.113507
C34   C     C_R   0.598300 0.499432 0.764268 0.092512
C35   C     C_R   0.546111 0.675636 0.970982 -0.112654
C36   C     C_2   0.297345 0.494351 0.202921 0.612676
C37   C     C_2   0.702505 0.500334 0.796586 0.609690
C38   C     C_R   0.403759 0.496096 0.295364 -0.141400
C39   C     C_R   0.595997 0.501110 0.704595 -0.138668
C40   C     C_R   0.500132 0.501211 0.328042 -0.020758
C41   C     C_R   0.499892 0.498906 0.671960 -0.022116
C42   C     C_R   0.595593 0.508140 0.300532 -0.139859
Cu1   Cu    Cu3+1 0.395330 0.493960 0.496390 1.013240
Cu2   Cu    Cu3+1 0.604670 0.506040 0.503610 1.013826
H1    H     H_    0.433919 0.255310 0.947412 0.174398
H2    H     H_    0.331652 0.492014 0.779458 0.137921
H3    H     H_    0.377887 0.979276 0.495664 0.145055
H4    H     H_    0.622114 0.020724 0.504342 0.145136
H5    H     H_    0.216812 0.516459 0.128842 0.349769
H6    H     H_    0.862322 0.519175 0.794673 0.352428
H7    H     H_    0.014312 0.577720 0.547245 0.136196
H8    H     H_    0.985687 0.422278 0.452761 0.137525
H9    H     H_    0.566492 0.745694 0.052584 0.174346
H10   H     H_    0.436325 0.257065 0.050779 0.175054
H11   H     H_    0.563912 0.743958 0.949212 0.174849
H12   H     H_    0.329919 0.491487 0.316553 0.173318
H13   H     H_    0.669478 0.503182 0.683317 0.182401
H14   H     H_    0.670979 0.512195 0.324681 0.147374
H15   H     H_    0.329575 0.493455 0.675382 0.145834
H16   H     H_    0.668979 0.514282 0.220621 0.141036
N1    N     N_R   0.498647 0.497807 0.852125 -0.380404
N2    N     N_R   0.501533 0.503220 0.147872 -0.374949
N3    N     N_1   0.238030 0.484870 0.490960 -0.182719
N4    N     N_1   0.761970 0.515130 0.509040 -0.182442
O1    O     O_R   0.399110 0.356330 0.496510 -0.486447
O2    O     O_2   0.458007 0.333115 0.148387 -0.479048
O3    O     O_2   0.452677 0.327930 0.850346 -0.478099
O4    O     O_2   0.547835 0.673078 0.149644 -0.476675
O5    O     O_2   0.214969 0.467576 0.226178 -0.509019
O6    O     O_R   0.292259 0.522485 0.145966 -0.672781
O7    O     O_2   0.706877 0.482161 0.847381 -0.484052
O8    O     O_R   0.796758 0.521045 0.768447 -0.701654
O9    O     O_R   0.600890 0.643670 0.503490 -0.486488
O10   O     O_R   0.575900 0.366540 0.502610 -0.489353
O11   O     O_R   0.424100 0.633460 0.497390 -0.489532
O12   O     O_R   0.411590 0.494870 0.414830 -0.495766
O13   O     O_R   0.588410 0.505130 0.585170 -0.496028
O14   O     O_R   0.588370 0.505070 0.420930 -0.496610
O15   O     O_R   0.411630 0.494930 0.579070 -0.496695
O16   O     O_2   0.542143 0.667901 0.851591 -0.479297

loop_
_geom_bond_atom_site_label_1
_geom_bond_atom_site_label_2
_ccdc_geom_bond_type
C25   C31   A    
C15   C18   S    
C3    C42   A    
C26   C32   A    
C21   O2    S    
C27   C29   A    
C34   C37   S    
C42   H14   S    
Cu1   N3    S    
C39   C41   A    
C4    H2    S    
Cu2   N4    S    
C1    O10   A    
C6    N1    S    
Cu2   O13   S    
C24   C26   A    
C2    C41   A    
Cu1   O15   S    
C1    C8    S    
C17   O15   A    
C20   N1    A    
H6    O8    S    
C9    C13   S    
C14   H8    S    
C19   N3    T    
C22   C25   A    
C1    O1    A    
C31   C33   A    
C15   H7    S    
C9    C10   D    
C3    H16   S    
C40   C42   A    
C12   O9    A    
C36   O6    S    
C20   C29   A    
Cu1   O11   S    
C7    C12   S    
C20   O16   S    
C35   H11   S    
C34   C39   A    
C32   C35   A    
C4    C6    A    
C2    H15   S    
C6    C34   A    
C2    C4    A    
Cu1   Cu2   S    
C5    C23   A    
Cu1   O1    S    
C17   O13   A    
Cu2   O10   S    
C21   N2    A    
C16   C40   S    
H5    O6    S    
C37   O7    D    
C12   O11   A    
C32   H9    S    
C10   H3    S    
C36   O5    D    
C33   H10   S    
C24   N2    A    
C30   C33   A    
C16   O12   A    
C14   C19   S    
C3    C5    A    
C25   C27   A    
C23   C38   A    
C21   C30   A    
C29   C35   A    
C26   C28   A    
C28   C30   A    
C22   N1    A    
C38   C40   A    
C18   N4    T    
C8    C11   T    
Cu2   O14   S    
C5    N2    S    
C16   O14   A    
Cu2   O9    S    
C17   C41   S    
C22   O3    S    
C10   C11   S    
C24   O4    S    
C7    C13   T    
C38   H12   S    
C9    H4    S    
C23   C36   S    
C31   H1    S    
C37   O8    S    
C27   C28   A    
C14   C15   D    
Cu1   O12   S    
C39   H13   S    
