data_mof_unit_33487.cif
_audit_creation_date              2012-12-11T17:06:37-0500
_audit_creation_method            fapswitch 2.2
_symmetry_space_group_name_H-M    P1
_symmetry_Int_Tables_number       1
_space_group_crystal_system       triclinic
_cell_length_a                    6.961283
_cell_length_b                    14.533724
_cell_length_c                    15.959616
_cell_angle_alpha                 90.472639
_cell_angle_beta                  89.992167
_cell_angle_gamma                 90.021662
_cell_volume                      1614.63300027

loop_
_atom_site_label
_atom_site_type_symbol
_atom_type_description
_atom_site_fract_x
_atom_site_fract_y
_atom_site_fract_z
_atom_type_partial_charge
O1    O     O_R   0.494400 0.415450 0.412630 -0.543576
O2    O     O_R   0.823940 0.405730 0.586760 -0.530960
O3    O     O_R   0.994240 0.584550 0.587370 -0.511191
C1    C     C_R   0.655121 0.383149 0.614928 0.772352
O4    O     O_R   0.824110 0.404430 0.413240 -0.550726
O5    O     O_R   0.994420 0.583240 0.412620 -0.545716
C2    C     C_R   0.655322 0.382197 0.384275 0.666314
O6    O     O_R   0.494230 0.416760 0.587380 -0.540393
O7    O     O_3   0.660800 0.558670 0.500000 -0.363589
V1    V     V_3+5 0.935650 0.489120 0.500000 1.455658
O8    O     O_R   0.324140 0.594270 0.413240 -0.544040
C3    C     C_R   0.155123 0.615907 0.384095 0.674763
O9    O     O_R   0.323960 0.595570 0.586760 -0.535592
C4    C     C_R   0.155073 0.617009 0.616092 0.760596
V2    V     V_3+5 0.435660 0.510880 0.500000 1.447787
O10   O     O_3   0.160640 0.441330 0.500000 -0.383661
C5    C     C_3   0.032623 0.674337 0.768752 0.524513
C6    C     C_3   0.204705 0.711935 0.819234 -0.171932
H1    H     H_    0.262880 0.681844 0.877685 0.150233
C7    C     C_3   0.121165 0.809481 0.810099 -0.079478
C8    C     C_3   0.947338 0.771597 0.760890 -0.171581
C9    C     C_3   0.060230 0.784178 0.677841 -0.223495
C10   C     C_3   0.233590 0.823274 0.727868 -0.133642
C11   C     C_3   0.317140 0.724798 0.736018 -0.153840
C12   C     C_3   0.143738 0.686380 0.686524 -0.124294
H2    H     H_    0.794582 0.790304 0.771499 0.133070
H3    H     H_    0.001171 0.813819 0.619375 0.122922
H4    H     H_    0.317061 0.885657 0.711387 0.109314
H5    H     H_    0.469749 0.705835 0.725599 0.177271
C13   C     C_R   0.273075 0.814988 0.239155 0.093409
C14   C     C_R   0.118492 0.815045 0.182887 -0.111120
C15   C     C_R   0.966793 0.753402 0.198736 -0.165990
H6    H     H_    0.844222 0.750922 0.157282 0.142160
C16   C     C_R   0.977892 0.689764 0.264768 -0.174673
H7    H     H_    0.862901 0.640498 0.272333 0.129019
C17   C     C_R   0.141379 0.685537 0.316798 -0.106244
C18   C     C_R   0.284515 0.751748 0.304243 0.099339
C19   C     C_3   0.495012 0.739034 0.292030 -0.408891
C20   C     C_3   0.482684 0.808297 0.221461 -0.395778
H8    H     H_    0.530505 0.668306 0.270037 0.169820
H9    H     H_    0.579589 0.764261 0.346646 0.171881
H10   H     H_    0.511829 0.777978 0.158562 0.178733
H11   H     H_    0.559394 0.873750 0.235429 0.163727
C21   C     C_R   0.489813 0.313104 0.738853 0.167276
C22   C     C_R   0.647372 0.316572 0.684534 -0.098826
C23   C     C_R   0.800577 0.255824 0.699817 -0.163634
H12   H     H_    0.924131 0.255350 0.658925 0.127531
C24   C     C_R   0.789530 0.190376 0.764165 -0.174771
H13   H     H_    0.905732 0.141767 0.771351 0.126584
C25   C     C_R   0.624574 0.183561 0.814901 -0.118326
C26   C     C_R   0.478662 0.248332 0.802680 0.116864
C27   C     C_3   0.270432 0.232021 0.787140 -0.419377
C28   C     C_3   0.283073 0.302033 0.717397 -0.408627
H14   H     H_    0.179951 0.255280 0.840659 0.203280
H15   H     H_    0.241675 0.160940 0.764112 0.157926
H16   H     H_    0.199537 0.365586 0.730017 0.238837
H17   H     H_    0.262444 0.271577 0.653879 0.149935
C29   C     C_R   0.493122 0.315456 0.256642 0.107504
C30   C     C_R   0.647389 0.316184 0.313051 -0.106532
C31   C     C_R   0.798989 0.254268 0.297282 -0.181645
H18   H     H_    0.921407 0.252412 0.338820 0.130391
C32   C     C_R   0.787877 0.189572 0.231225 -0.178462
H19   H     H_    0.902664 0.140090 0.223703 0.126170
C33   C     C_R   0.624518 0.184624 0.179141 -0.111266
C34   C     C_R   0.481687 0.251176 0.191505 0.112729
C35   C     C_3   0.270996 0.238922 0.203397 -0.408564
C36   C     C_3   0.283326 0.309350 0.274060 -0.402748
H20   H     H_    0.234840 0.168608 0.225257 0.162851
H21   H     H_    0.187000 0.263344 0.148691 0.183900
H22   H     H_    0.253518 0.280128 0.336884 0.165895
H23   H     H_    0.207201 0.374672 0.260060 0.172567
O11   O     O_R   0.771650 0.079500 0.908680 -0.540324
O12   O     O_R   0.441690 0.091800 0.082800 -0.540453
O13   O     O_R   0.271460 0.912980 0.083410 -0.537878
C37   C     C_R   0.610716 0.113908 0.111916 0.694440
O14   O     O_R   0.441930 0.090510 0.909280 -0.541582
O15   O     O_R   0.271690 0.911670 0.908660 -0.538390
C38   C     C_R   0.611023 0.112537 0.880631 0.698868
O16   O     O_R   0.771410 0.080810 0.083440 -0.540438
O17   O     O_3   0.605100 0.937580 0.996050 -0.366435
V3    V     V_3+5 0.330220 0.007110 0.996030 1.407875
O18   O     O_R   0.941980 0.900620 0.909250 -0.538183
C39   C     C_R   0.110732 0.878996 0.880182 0.714938
O19   O     O_R   0.941740 0.901920 0.082770 -0.543461
C40   C     C_R   0.110520 0.880067 0.111719 0.696159
V4    V     V_3+5 0.830220 0.985300 0.996000 1.417914
O20   O     O_3   0.105210 0.054870 0.996020 -0.371693
S1    S     S_3+6 0.892277 0.577727 0.799244 -0.044281
O21   O     O_2   0.739562 0.559567 0.734682 -0.361820
O22   O     O_2   0.019415 0.494843 0.807147 -0.360375
O23   O     O_3   0.788394 0.600840 0.892138 -0.517693
H24   H     H_    0.705098 0.547026 0.903281 0.362870

loop_
_geom_bond_atom_site_label_1
_geom_bond_atom_site_label_2
_ccdc_geom_bond_type
C35   H20   S    
C8    H2    S    
C14   C40   S    
C5    S1    S    
C1    O6    A    
C22   C23   A    
C21   C22   A    
C32   H19   S    
C6    C11   S    
C17   C18   A    
O19   V4    S    
C16   H7    S    
O5    C3    A    
C19   C20   S    
C35   H21   S    
O15   C39   A    
V2    O10   S    
C31   C32   A    
C6    H1    S    
O12   V3    S    
C11   H5    S    
C32   C33   A    
O8    V2    S    
C21   C28   S    
C9    C12   S    
O17   V4    S    
C10   C11   S    
S1    O23   S    
O1    V2    S    
C3    C17   S    
O7    V1    S    
C6    C7    S    
C27   H15   S    
C24   C25   A    
C35   C36   S    
C30   C31   A    
O13   C40   A    
C8    C9    S    
O12   C37   A    
C25   C38   S    
C2    C30   S    
C27   H14   S    
C25   C26   A    
C20   H10   S    
C1    C22   S    
C23   C24   A    
C26   C27   S    
C11   C12   S    
C19   H9    S    
O23   H24   S    
O4    C2    A    
C28   H17   S    
V4    O20   S    
C20   H11   S    
C29   C30   A    
O18   V4    S    
C5    C8    S    
C13   C18   A    
C31   H18   S    
C15   C16   A    
O2    C1    A    
C18   C19   S    
C29   C34   A    
C14   C15   A    
C7    C10   S    
O15   V3    S    
C7    C8    S    
C5    C6    S    
C10   H4    S    
O19   C40   A    
V3    O20   S    
O3    C4    A    
C21   C26   A    
C24   H13   S    
S1    O22   D    
O18   C39   A    
O6    V2    S    
C9    H3    S    
O9    V2    S    
O13   V3    S    
O2    V1    S    
C27   C28   S    
C28   H16   S    
C23   H12   S    
O1    C2    A    
O14   C38   A    
O17   V3    S    
O14   V3    S    
O5    V1    S    
O11   V4    S    
O8    C3    A    
C36   H22   S    
C5    C12   S    
C15   H6    S    
O7    V2    S    
O4    V1    S    
O3    V1    S    
V1    O10   S    
C33   C34   A    
C19   H8    S    
C13   C14   A    
C33   C37   S    
C13   C20   S    
C36   H23   S    
C4    C12   S    
C29   C36   S    
S1    O21   D    
C16   C17   A    
C34   C35   S    
C7    C39   S    
O11   C38   A    
C9    C10   S    
O9    C4    A    
C37   O16   A    
O16   V4    S    
