data_mof_unit_37200.cif
_audit_creation_date              2013-03-05T15:44:40-0500
_audit_creation_method            fapswitch 2.2
_symmetry_space_group_name_H-M    P1
_symmetry_Int_Tables_number       1
_space_group_crystal_system       triclinic
_cell_length_a                    24.730573
_cell_length_b                    7.191149
_cell_length_c                    14.437868
_cell_angle_alpha                 88.920349
_cell_angle_beta                  102.366354
_cell_angle_gamma                 90.80261
_cell_volume                      2507.49824326

loop_
_atom_site_label
_atom_site_type_symbol
_atom_site_description
_atom_site_fract_x
_atom_site_fract_y
_atom_site_fract_z
_atom_type_partial_charge
O1    O     O_R   0.319150 0.364170 0.330530 -0.567013
O2    O     O_R   0.680850 0.635830 0.669470 -0.568795
O3    O     O_R   0.180850 0.864170 0.169470 -0.593931
O4    O     O_R   0.819150 0.135830 0.830530 -0.594424
O5    O     O_R   0.210330 0.696850 0.354180 -0.592836
O6    O     O_R   0.789670 0.303150 0.645820 -0.587410
O7    O     O_R   0.289670 0.196850 0.145820 -0.559927
O8    O     O_R   0.710330 0.803150 0.854180 -0.560076
C1    C     C_R   0.198842 0.522830 0.380522 0.999380
C2    C     C_R   0.802263 0.477258 0.620741 1.022255
C3    C     C_R   0.301232 0.026954 0.119290 1.000786
C4    C     C_R   0.698677 0.972999 0.880597 0.998588
O9    O     O_R   0.320550 0.694110 0.341970 -0.591183
O10   O     O_R   0.679450 0.305890 0.658030 -0.589806
O11   O     O_R   0.179450 0.194110 0.158030 -0.563687
O12   O     O_R   0.820550 0.805890 0.841970 -0.564439
O13   O     O_R   0.291860 0.861000 0.157170 -0.596902
O14   O     O_R   0.708140 0.139000 0.842830 -0.597616
O15   O     O_R   0.208140 0.361000 0.342830 -0.562883
O16   O     O_R   0.791860 0.639000 0.657170 -0.576773
C5    C     C_R   0.341819 0.525786 0.361565 0.979467
C6    C     C_R   0.657810 0.473844 0.639268 1.001949
C7    C     C_R   0.158078 0.025334 0.138512 0.977766
C8    C     C_R   0.841963 0.974537 0.861334 0.974978
O17   O     O_3   0.240460 0.529330 0.189380 -0.276883
O18   O     O_3   0.759540 0.470670 0.810620 -0.278297
O19   O     O_3   0.259540 0.029330 0.310620 -0.268948
O20   O     O_3   0.740460 0.970670 0.689380 -0.273860
V1    V     V_3+5 0.251770 0.805510 0.261240 1.239914
V2    V     V_3+5 0.748230 0.194490 0.738760 1.241593
V3    V     V_3+5 0.248230 0.305510 0.238760 1.282674
V4    V     V_3+5 0.751770 0.694490 0.761240 1.278444
C9    C     C_R   0.103174 0.014567 0.074069 -0.181143
C10   C     C_R   0.896894 0.984459 0.925679 -0.180188
C11   C     C_R   0.396657 0.518038 0.426180 -0.182616
C12   C     C_R   0.602598 0.480335 0.575164 -0.187440
C13   C     C_R   0.952735 0.026710 0.084903 0.376534
C14   C     C_R   0.047345 0.966841 0.915257 0.376715
C15   C     C_R   0.546118 0.470934 0.414669 0.370568
C16   C     C_R   0.452823 0.523582 0.586987 0.376138
C17   C     C_R   0.901039 0.017927 0.021722 -0.200533
C18   C     C_R   0.099046 0.978119 0.978308 -0.199191
C19   C     C_R   0.597422 0.454666 0.478185 -0.185614
C20   C     C_R   0.401280 0.536219 0.523508 -0.196405
C21   C     C_R   0.945000 0.962019 0.890878 -0.148710
C22   C     C_R   0.055032 0.035443 0.108901 -0.147563
C23   C     C_R   0.555144 0.509909 0.610916 -0.150709
C24   C     C_R   0.444159 0.490897 0.390455 -0.145409
C25   C     C_R   0.998038 0.981757 0.950672 0.005809
C26   C     C_R   0.002021 0.013927 0.049248 0.006884
C27   C     C_R   0.501822 0.507168 0.550710 0.009079
C28   C     C_R   0.497309 0.491191 0.450864 0.007010
H1    H     H_    0.059872 0.068905 0.182851 0.180295
H2    H     H_    0.940105 0.929070 0.816852 0.179230
H3    H     H_    0.438663 0.468480 0.315238 0.179620
H4    H     H_    0.560721 0.534464 0.685953 0.180135
H5    H     H_    0.136589 0.963369 0.951960 0.198684
H6    H     H_    0.863484 0.031509 0.048161 0.199254
H7    H     H_    0.364024 0.552916 0.550457 0.201202
H8    H     H_    0.634018 0.428779 0.451084 0.210376
C29   C     C_R   0.667500 0.972544 0.956655 -0.282721
C30   C     C_R   0.332298 0.027116 0.043082 -0.284483
C31   C     C_R   0.833247 0.497997 0.544621 -0.275620
C32   C     C_R   0.167948 0.503493 0.456485 -0.280426
C33   C     C_R   0.655862 0.895241 0.115080 -0.176699
C34   C     C_R   0.344048 0.103742 0.884658 -0.168412
C35   C     C_R   0.846775 0.630894 0.395601 -0.185762
C36   C     C_R   0.157187 0.393539 0.611061 -0.172130
C37   C     C_R   0.690208 0.906768 0.049574 0.344651
C38   C     C_R   0.309648 0.093080 0.950115 0.346113
C39   C     C_R   0.812654 0.603256 0.460638 0.348947
C40   C     C_R   0.191270 0.423285 0.546053 0.344830
C41   C     C_R   0.611864 0.024773 0.932737 -0.211146
C42   C     C_R   0.387827 0.973640 0.066909 -0.210450
C43   C     C_R   0.888373 0.439065 0.564118 -0.217315
C44   C     C_R   0.111801 0.548511 0.434455 -0.210717
C45   C     C_R   0.575167 0.983793 0.992919 0.143888
C46   C     C_R   0.424601 0.014071 0.006836 0.143091
C47   C     C_R   0.925475 0.500405 0.507975 0.147288
C48   C     C_R   0.075714 0.489930 0.492847 0.145006
C49   C     C_R   0.599082 0.932607 0.087554 0.028033
C50   C     C_R   0.400760 0.065517 0.912213 0.027558
C51   C     C_R   0.902301 0.577748 0.418009 0.032818
C52   C     C_R   0.100065 0.425739 0.585201 0.028610
C53   C     C_R   0.516251 0.000947 0.964064 -0.052149
C54   C     C_R   0.483504 0.996238 0.035749 -0.053282
C55   C     C_R   0.984201 0.481325 0.535914 -0.052750
C56   C     C_R   0.016839 0.503613 0.464814 -0.050778
C57   C     C_R   0.511547 0.978008 0.133038 0.246961
C58   C     C_R   0.488209 0.018723 0.866785 0.244980
C59   C     C_R   0.988785 0.537962 0.368831 0.241367
C60   C     C_R   0.012108 0.449015 0.632113 0.245608
C61   C     C_R   0.567285 0.932171 0.155996 -0.073342
C62   C     C_R   0.432532 0.065129 0.843767 -0.069186
C63   C     C_R   0.933707 0.591508 0.349062 -0.079289
C64   C     C_R   0.068182 0.407161 0.653390 -0.078097
H9    H     H_    0.587147 0.909394 0.229850 0.186223
H10   H     H_    0.412693 0.087734 0.769888 0.184386
H11   H     H_    0.913967 0.630607 0.276962 0.188598
H12   H     H_    0.088135 0.374568 0.726234 0.187078
H13   H     H_    0.401010 0.895651 0.131772 0.172794
H14   H     H_    0.598507 0.102044 0.867675 0.172726
H15   H     H_    0.097365 0.632783 0.372002 0.170873
H16   H     H_    0.901729 0.346231 0.623805 0.171470
H17   H     H_    0.673399 0.854046 0.187811 0.205526
H18   H     H_    0.326612 0.144696 0.811864 0.207512
H19   H     H_    0.830193 0.696843 0.327531 0.212915
H20   H     H_    0.175150 0.341738 0.681762 0.210223
N1    N     N_R   0.953723 0.044122 0.184493 0.239985
O21   O     O_R   0.914657 0.134401 0.211468 -0.354608
O22   O     O_R   0.986502 0.941395 0.246787 -0.414782
N2    N     N_R   0.046387 0.942673 0.816116 0.240601
O23   O     O_R   0.084800 0.846008 0.790885 -0.358364
O24   O     O_R   0.014618 0.045087 0.752216 -0.412338
N3    N     N_R   0.545281 0.472357 0.314496 0.241337
O25   O     O_R   0.583097 0.383928 0.283013 -0.369760
O26   O     O_R   0.514620 0.590306 0.257801 -0.414610
N4    N     N_R   0.453739 0.520948 0.687164 0.241728
O27   O     O_R   0.415459 0.606343 0.718857 -0.358522
O28   O     O_R   0.485564 0.406056 0.743942 -0.415642
N5    N     N_R   0.251745 0.135631 0.918429 0.226227
O29   O     O_R   0.224144 0.213184 0.974238 -0.415578
O30   O     O_R   0.227300 0.111032 0.830233 -0.369595
N6    N     N_R   0.748147 0.865102 0.081056 0.222464
O31   O     O_R   0.775161 0.781283 0.026313 -0.414399
O32   O     O_R   0.773039 0.895350 0.168492 -0.360034
N7    N     N_R   0.249322 0.381372 0.574458 0.223514
O33   O     O_R   0.275868 0.310882 0.515073 -0.419007
O34   O     O_R   0.274521 0.394265 0.663035 -0.364101
N8    N     N_R   0.757761 0.680269 0.438943 0.242900
O35   O     O_R   0.719086 0.615556 0.479188 -0.449602
O36   O     O_R   0.745509 0.813380 0.375870 -0.355542
I1    I     I_    0.482088 0.053030 0.256616 -0.340202
I2    I     I_    0.517540 0.941567 0.743472 -0.345792
I3    I     I_    0.017297 0.474769 0.242856 -0.336049
I4    I     I_    0.981389 0.504896 0.756834 -0.339673

loop_
_geom_bond_atom_site_label_1
_geom_bond_atom_site_label_2
_geom_bond_distance
_ccdc_geom_bond_type
O17   V3    1.744280 S    
C24   H3    1.080062 S    
C16   N4    1.441423 S    
C55   C56   1.440845 A    
O1    C5    1.326486 A    
C50   C62   1.388065 A    
O19   V1    1.763994 S    
C1    C32   1.468368 S    
O13   V1    2.001062 S    
O3    C7    1.323275 A    
C2    C31   1.472593 S    
C60   C64   1.390595 A    
C48   C52   1.412221 A    
C3    C30   1.470673 S    
O15   V3    2.017822 S    
N2    O24   1.300365 A    
C14   C25   1.425715 A    
C53   C54   1.443985 A    
O7    C3    1.339953 A    
C9    C18   1.393941 A    
O9    V1    2.011811 S    
O10   V2    2.011811 S    
C17   H6    1.083336 S    
C14   C18   1.404062 A    
N1    O22   1.300469 A    
O4    C8    1.323941 A    
C63   H11   1.084510 S    
C62   H10   1.084643 S    
C20   H7    1.083101 S    
N3    O25   1.302007 A    
O1    V3    2.003642 S    
C30   C38   1.414859 A    
C12   C23   1.399843 A    
O2    V4    2.003641 S    
C52   C64   1.390456 A    
C33   H17   1.084135 S    
O3    V1    2.003477 S    
N4    O27   1.301960 A    
C1    O15   1.337264 A    
C2    O16   1.336056 A    
C7    C9    1.474426 S    
O2    C6    1.328844 A    
O14   V2    2.001062 S    
C45   C49   1.411802 A    
C16   C20   1.404553 A    
C13   N1    1.440621 S    
C36   C40   1.401222 A    
C46   C54   1.433686 A    
C44   H15   1.074860 S    
O11   C7    1.327763 A    
C15   C28   1.424551 A    
C45   C53   1.433445 A    
O12   C8    1.326939 A    
C55   C60   1.428679 A    
C57   C61   1.389787 A    
C9    C22   1.399019 A    
C60   I4    2.145442 S    
C10   C17   1.393645 A    
C34   H18   1.083984 S    
C11   C24   1.397845 A    
C18   H5    1.083335 S    
C47   C55   1.429447 A    
N2    O23   1.301776 A    
C58   C62   1.389394 A    
O5    V1    1.997126 S    
O7    V3    2.027904 S    
C40   N7    1.440641 S    
C27   C28   1.428536 A    
C36   C52   1.403062 A    
C57   I1    2.146921 S    
O18   V4    1.744281 S    
C15   C19   1.402210 A    
C37   N6    1.441315 S    
C29   C41   1.399836 A    
C8    C10   1.474055 S    
O8    V4    2.027906 S    
N8    O36   1.301715 A    
N7    O34   1.301512 A    
O5    C1    1.345275 A    
C34   C50   1.403084 A    
C49   C61   1.388319 A    
C46   C50   1.411703 A    
C33   C49   1.403361 A    
C56   C59   1.429285 A    
C21   C25   1.414308 A    
O8    C4    1.339727 A    
C51   C63   1.388965 A    
C32   C44   1.397708 A    
O9    C5    1.327806 A    
C10   C21   1.399419 A    
C35   C51   1.398608 A    
C11   C20   1.393722 A    
C23   H4    1.080014 S    
N5    O29   1.299768 A    
C19   H8    1.079817 S    
C42   H13   1.073495 S    
C41   H14   1.073707 S    
O6    V2    1.997126 S    
C31   C39   1.419255 A    
C21   H2    1.079993 S    
C15   N3    1.441842 S    
C43   H16   1.077020 S    
C14   N2    1.440261 S    
N7    O33   1.299948 A    
C61   H9    1.084627 S    
N6    O32   1.301394 A    
O16   V4    2.017822 S    
C29   C37   1.414102 A    
C33   C37   1.400709 A    
N3    O26   1.300155 A    
C3    O13   1.341259 A    
C44   C48   1.408193 A    
C54   C57   1.431616 A    
O6    C2    1.347584 A    
C23   C27   1.415567 A    
C53   C58   1.431236 A    
O11   V3    2.010329 S    
C5    C11   1.473385 S    
O12   V4    2.010328 S    
C16   C27   1.426491 A    
C6    C12   1.477180 S    
C22   C26   1.414261 A    
O10   C6    1.327477 A    
O20   V2    1.763993 S    
N8    O35   1.297820 A    
C48   C56   1.429537 A    
N1    O21   1.301844 A    
C39   N8    1.442271 S    
C47   C51   1.409915 A    
C4    C29   1.470640 S    
C38   N5    1.442163 S    
C35   H19   1.083601 S    
C34   C38   1.400924 A    
C31   C43   1.401673 A    
C58   I2    2.146020 S    
C64   H12   1.084523 S    
C22   H1    1.079956 S    
C13   C26   1.425742 A    
C35   C39   1.400326 A    
C32   C40   1.413984 A    
C13   C17   1.403918 A    
N4    O28   1.300157 A    
N5    O30   1.301527 A    
C59   C63   1.388941 A    
C24   C28   1.413287 A    
C59   I3    2.145034 S    
C25   C26   1.428466 A    
C42   C46   1.408846 A    
C4    O14   1.341423 A    
C41   C45   1.409272 A    
C30   C42   1.399821 A    
C12   C19   1.393997 A    
C36   H20   1.083583 S    
C43   C47   1.409725 A    
O4    V2    2.003479 S    
N6    O31   1.299898 A    
