data_mof_unit_35575.cif
_audit_creation_date              2012-12-10T16:49:30-0500
_audit_creation_method            fapswitch 2.2
_symmetry_space_group_name_H-M    P1
_symmetry_Int_Tables_number       1
_space_group_crystal_system       triclinic
_cell_length_a                    7.938247
_cell_length_b                    8.717889
_cell_length_c                    12.785599
_cell_angle_alpha                 88.824616
_cell_angle_beta                  87.060919
_cell_angle_gamma                 92.961804
_cell_volume                      882.24197466

loop_
_atom_site_label
_atom_site_type_symbol
_atom_type_description
_atom_site_fract_x
_atom_site_fract_y
_atom_site_fract_z
_atom_type_partial_charge
C1    C     C_R   0.456396 0.206967 0.497670 0.880099
C2    C     C_R   0.642781 0.360426 0.141657 -0.013016
C3    C     C_R   0.530388 0.417646 0.870291 -0.213358
C4    C     C_R   0.469939 0.582291 0.129725 -0.200594
C5    C     C_R   0.541427 0.439020 0.976142 0.147718
C6    C     C_R   0.458887 0.560815 0.023901 0.144313
C7    C     C_2   0.432698 0.045024 0.506148 -0.277774
C8    C     C_2   0.567468 0.954982 0.494855 -0.275386
C9    C     C_1   0.732024 0.250193 0.199361 0.236466
C10   C     C_1   0.265120 0.747778 0.801257 0.242741
C11   C     C_1   0.260830 0.988867 0.535899 0.322241
C12   C     C_R   0.543594 0.793019 0.502611 0.874160
C13   C     C_1   0.739648 0.011242 0.465864 0.375008
C14   C     C_R   0.465641 0.507526 0.699084 0.856314
C15   C     C_R   0.534321 0.492375 0.300942 0.852233
C16   C     C_R   0.556559 0.480417 0.189303 -0.062327
C17   C     C_R   0.443351 0.519279 0.810768 -0.059047
C18   C     C_R   0.364398 0.658238 0.965593 -0.213559
C19   C     C_R   0.635427 0.341247 0.034547 -0.220013
C20   C     C_R   0.356485 0.638763 0.858563 -0.023317
H1    H     H_    0.406861 0.676010 0.166561 0.200209
H2    H     H_    0.593403 0.324007 0.833404 0.175561
H3    H     H_    0.299800 0.750950 0.003073 0.162258
H4    H     H_    0.699641 0.248263 0.997134 0.148246
H5    H     H_    0.170958 0.827873 0.343565 0.352662
H6    H     H_    0.853881 0.215863 0.756580 0.355461
N1    N     N_2   0.054030 0.541640 0.471970 0.087321
N2    N     N_2   0.945970 0.458360 0.528030 0.116118
N3    N     N_1   0.805471 0.160211 0.243230 -0.163981
N4    N     N_1   0.189725 0.836762 0.757856 -0.159214
N5    N     N_1   0.124483 0.943269 0.559240 -0.132777
N6    N     N_1   0.876096 0.057085 0.443026 -0.132588
O1    O     O_R   0.609680 0.261530 0.506880 -0.603442
O2    O     O_2   0.865286 0.718156 0.351880 -0.312861
O3    O     O_3   0.179926 0.730647 0.305475 -0.541786
O4    O     O_2   0.134634 0.281284 0.647179 -0.305851
O5    O     O_2   0.009904 0.507034 0.726163 -0.302766
O6    O     O_3   0.819513 0.265688 0.691245 -0.545385
O7    O     O_R   0.390320 0.738470 0.493120 -0.634237
O8    O     O_R   0.323330 0.288220 0.488910 -0.585881
O9    O     O_R   0.676670 0.711780 0.511090 -0.587735
O10   O     O_R   0.619510 0.488830 0.661140 -0.560475
O11   O     O_R   0.380490 0.511170 0.338860 -0.561334
O12   O     O_R   0.333160 0.515520 0.643180 -0.557849
O13   O     O_R   0.666840 0.484480 0.356820 -0.559357
O14   O     O_2   0.987094 0.490513 0.274616 -0.270157
S1    S     S_3+6 0.012645 0.617969 0.350301 0.143180
S2    S     S_3+6 0.986714 0.380663 0.649347 0.141183
Zn1   Zn    Zn3+2 0.691200 0.482180 0.511990 1.140190
Zn2   Zn    Zn3+2 0.308800 0.517820 0.488010 1.122383

loop_
_geom_bond_atom_site_label_1
_geom_bond_atom_site_label_2
_ccdc_geom_bond_type
C4    C16   A    
O11   Zn2   S    
C3    C17   A    
C8    C13   S    
C5    C19   A    
C9    N3    T    
C8    C12   S    
C2    C16   A    
N2    Zn1   S    
C10   N4    T    
C13   N6    T    
O6    S2    S    
N1    Zn2   S    
O13   Zn1   S    
C14   O10   A    
O3    S1    S    
O7    Zn2   S    
C12   O7    A    
C19   H4    S    
C11   N5    T    
C7    C8    D    
O5    S2    D    
C7    C11   S    
C4    H1    S    
C14   C17   S    
C12   O9    A    
H5    O3    S    
O8    Zn2   S    
C4    C6    A    
O4    S2    D    
C18   C20   A    
C5    C6    A    
C6    C18   A    
C15   O13   A    
O10   Zn1   S    
C15   O11   A    
C15   C16   S    
C17   C20   A    
C1    O1    A    
C14   O12   A    
N1    S1    S    
N1    N2    D    
O14   S1    D    
N2    S2    S    
C3    H2    S    
O12   Zn2   S    
O2    S1    D    
C1    O8    A    
C2    C19   A    
C1    C7    S    
C2    C9    S    
O1    Zn1   S    
O9    Zn1   S    
H6    O6    S    
C18   H3    S    
C10   C20   S    
C3    C5    A    
