data_mof_unit_19954.cif
_audit_creation_date              2012-12-10T19:11:32-0500
_audit_creation_method            fapswitch 2.2
_symmetry_space_group_name_H-M    P1
_symmetry_Int_Tables_number       1
_space_group_crystal_system       triclinic
_cell_length_a                    7.764087
_cell_length_b                    9.097667
_cell_length_c                    17.34821
_cell_angle_alpha                 90.022692
_cell_angle_beta                  86.656346
_cell_angle_gamma                 89.989506
_cell_volume                      1223.30602221

loop_
_atom_site_label
_atom_site_type_symbol
_atom_type_description
_atom_site_fract_x
_atom_site_fract_y
_atom_site_fract_z
_atom_type_partial_charge
C1    C     C_R   0.499994 0.780054 0.499989 0.851976
C2    C     C_R   0.500006 0.219945 0.500014 0.848131
C3    C     C_1   0.499989 0.934652 0.499997 -0.125431
C4    C     C_1   0.500010 0.065347 0.500008 -0.126917
C5    C     C_R   0.478744 0.499520 0.650774 0.867642
C6    C     C_R   0.521205 0.500721 0.349206 0.869409
C7    C     C_R   0.473244 0.493229 0.735993 -0.335437
C8    C     C_R   0.526128 0.510252 0.264053 -0.287452
C9    C     C_R   0.623199 0.536697 0.772566 0.669139
C10   C     C_R   0.374262 0.472149 0.227526 0.551436
C11   C     C_R   0.637929 0.514539 0.851709 -0.235785
C12   C     C_R   0.357316 0.500900 0.149381 -0.183978
C13   C     C_R   0.496460 0.454513 0.895396 -0.202551
C14   C     C_R   0.499280 0.560389 0.105648 -0.131923
C15   C     C_R   0.346671 0.412304 0.860230 0.767539
C16   C     C_R   0.651402 0.596838 0.140596 0.663494
C17   C     C_R   0.332108 0.431656 0.780770 -0.243729
C18   C     C_R   0.667811 0.571664 0.219545 -0.237566
C19   C     C_2   0.495696 0.446039 0.979519 0.500298
C20   C     C_2   0.500372 0.569445 0.021594 0.576366
Cu1   Cu    Cu3+1 0.330920 0.500000 0.500000 1.069054
Cu2   Cu    Cu3+1 0.669080 0.500000 0.500000 1.067340
N1    N     N_1   0.923170 0.500000 0.500010 -0.028722
N2    N     N_1   0.076830 0.500000 0.499990 -0.028796
O1    O     O_R   0.357240 0.711600 0.500000 -0.578135
O2    O     O_R   0.642760 0.288400 0.500000 -0.579876
O3    O     O_R   0.642760 0.711600 0.500000 -0.571595
O4    O     O_R   0.357240 0.288400 0.500000 -0.573897
O5    O     O_R   0.340660 0.500000 0.613590 -0.623159
O6    O     O_R   0.659340 0.500000 0.386410 -0.627457
O7    O     O_R   0.626230 0.500000 0.613600 -0.516436
O8    O     O_R   0.373770 0.500000 0.386400 -0.511331
F1    F     F_    0.211063 0.358066 0.904669 -0.559275
F2    F     F_    0.787404 0.650572 0.096253 -0.572524
C21   C     C_2   0.188293 0.469807 0.116189 0.636744
H1    H     H_    0.095594 0.397888 0.146430 0.111073
O9    O     O_2   0.147429 0.527659 0.056456 -0.448588
C22   C     C_2   0.802139 0.549718 0.888456 0.676418
H2    H     H_    0.823418 0.511154 0.946277 0.103745
O10   O     O_2   0.916042 0.621828 0.854965 -0.427320
F3    F     F_    0.756784 0.600148 0.730637 -0.608338
F4    F     F_    0.239569 0.408054 0.268497 -0.665272
C23   C     C_2   0.834677 0.608357 0.252658 0.491781
H3    H     H_    0.889690 0.537332 0.294811 0.119446
O11   O     O_2   0.915542 0.717608 0.231422 -0.443932
C24   C     C_2   0.167985 0.387684 0.747296 0.548451
H4    H     H_    0.110898 0.454520 0.703938 0.126407
O12   O     O_2   0.091502 0.276967 0.769653 -0.454420
F5    F     F_    0.514574 0.703775 0.987204 -0.584696
F6    F     F_    0.480710 0.311900 0.014086 -0.601352

loop_
_geom_bond_atom_site_label_1
_geom_bond_atom_site_label_2
_ccdc_geom_bond_type
C11   C22   S    
C6    O8    A    
N1    N2    T    
C5    C7    S    
C20   F5    S    
C10   F4    S    
C11   C13   A    
C9    F3    S    
C19   C20   D    
C23   H3    S    
C1    O3    A    
C13   C15   A    
C2    O2    A    
Cu1   Cu2   S    
C12   C21   S    
C1    O1    A    
C23   O11   D    
C19   F6    S    
C10   C12   A    
C2    C4    S    
C16   C18   A    
C22   O10   D    
Cu1   O4    S    
C12   C14   A    
C5    O5    A    
Cu2   O3    S    
C9    C11   A    
C22   H2    S    
Cu1   O8    S    
C14   C16   A    
C2    O4    A    
Cu2   O7    S    
C13   C19   S    
C3    C4    T    
C24   O12   D    
C14   C20   S    
C17   C24   S    
C21   O9    D    
C7    C9    A    
Cu2   O2    S    
Cu1   N2    S    
C18   C23   S    
C1    C3    S    
C15   C17   A    
Cu1   O1    S    
C24   H4    S    
C6    C8    S    
Cu2   O6    S    
C16   F2    S    
Cu2   N1    S    
Cu1   O5    S    
C6    O6    A    
C8    C10   A    
C8    C18   A    
C21   H1    S    
C15   F1    S    
C5    O7    A    
C7    C17   A    
