data_mof_unit_31680.cif
_audit_creation_date              2012-12-10T17:22:12-0500
_audit_creation_method            fapswitch 2.2
_symmetry_space_group_name_H-M    P1
_symmetry_Int_Tables_number       1
_space_group_crystal_system       triclinic
_cell_length_a                    10.203344
_cell_length_b                    10.766909
_cell_length_c                    15.732304
_cell_angle_alpha                 90.620743
_cell_angle_beta                  80.854614
_cell_angle_gamma                 95.932956
_cell_volume                      1697.18922353

loop_
_atom_site_label
_atom_site_type_symbol
_atom_type_description
_atom_site_fract_x
_atom_site_fract_y
_atom_site_fract_z
_atom_type_partial_charge
C1    C     C_R   0.556281 0.732733 0.491280 0.929383
C2    C     C_2   0.487489 0.932951 0.469832 -0.146933
C3    C     C_2   0.411886 0.134268 0.496832 -0.393345
C4    C     C_R   0.499632 0.500089 0.661601 0.904586
C5    C     C_2   0.510579 0.065992 0.466176 -0.147906
C6    C     C_2   0.928890 0.515483 0.503917 0.356990
C7    C     C_2   0.071295 0.484597 0.495843 0.356989
C8    C     C_R   0.443711 0.267221 0.503127 0.933037
C9    C     C_R   0.500308 0.499778 0.338429 0.895760
C10   C     C_3   0.564535 0.624551 0.945334 -0.396113
C11   C     C_3   0.574873 0.391274 0.942076 -0.403651
C12   C     C_3   0.565620 0.624158 0.043326 -0.465508
C13   C     C_3   0.577818 0.392472 0.039825 -0.410052
C14   C     C_1   0.500699 0.499128 0.249465 -0.165892
C15   C     C_3   0.497243 0.498279 0.917677 0.331622
C16   C     C_3   0.134580 0.367753 0.124652 -0.805191
C17   C     C_3   0.069355 0.272873 0.481912 0.116217
C18   C     C_3   0.103240 0.169632 0.417864 -0.837824
C19   C     C_3   0.930677 0.727186 0.514983 0.119601
C20   C     C_3   0.891195 0.832477 0.575929 -0.842051
C21   C     C_3   0.498083 0.497769 0.082846 0.299383
C22   C     C_3   0.351404 0.480527 0.064559 0.088844
C23   C     C_3   0.351964 0.478099 0.965770 -0.450883
C24   C     C_1   0.500087 0.498521 0.174188 -0.086679
C25   C     C_1   0.497737 0.498837 0.826138 -0.106035
C26   C     C_1   0.498593 0.499469 0.750683 -0.179636
C27   C     C_2   0.587839 0.865220 0.476292 -0.396478
H1    H     H_    0.670449 0.639952 0.055811 0.183322
H2    H     H_    0.876950 0.385010 0.420450 0.150022
H3    H     H_    0.526635 0.299564 0.923695 0.164501
H4    H     H_    0.678885 0.402145 0.906536 0.175273
H5    H     H_    0.683250 0.408098 0.051135 0.173942
H6    H     H_    0.536673 0.299887 0.068423 0.163818
H7    H     H_    0.293735 0.552982 0.947849 0.154485
H8    H     H_    0.302639 0.387866 0.945674 0.174349
H9    H     H_    0.302218 0.563529 0.091340 0.134826
H10   H     H_    0.308009 0.285087 0.080068 0.229831
H11   H     H_    0.090415 0.280934 0.160156 0.242752
H12   H     H_    0.509734 0.702585 0.928339 0.167687
H13   H     H_    0.092404 0.371737 0.063956 0.230088
H14   H     H_    0.107517 0.448607 0.165814 0.250457
H15   H     H_    0.959897 0.260500 0.504299 0.094616
H16   H     H_    0.117510 0.260881 0.539376 0.161672
H17   H     H_    0.211402 0.180912 0.391541 0.270623
H18   H     H_    0.077612 0.077130 0.450045 0.191942
H19   H     H_    0.045705 0.173709 0.363840 0.244401
H20   H     H_    0.885544 0.735118 0.455725 0.159830
H21   H     H_    0.040698 0.740935 0.495232 0.093834
H22   H     H_    0.944658 0.831977 0.632132 0.245641
H23   H     H_    0.512240 0.702596 0.073521 0.165461
H24   H     H_    0.917725 0.923732 0.542151 0.193093
H25   H     H_    0.782075 0.820556 0.599277 0.264258
H26   H     H_    0.612131 0.107573 0.444655 0.186334
H27   H     H_    0.384716 0.891423 0.474414 0.187302
H28   H     H_    0.310811 0.092016 0.518597 0.148541
H29   H     H_    0.690156 0.907550 0.471654 0.150737
H30   H     H_    0.122751 0.614894 0.579538 0.151236
H31   H     H_    0.668797 0.641046 0.910636 0.178519
N1    N     N_2   0.842720 0.448890 0.465540 -0.231523
N2    N     N_2   0.157250 0.551040 0.534500 -0.232358
N3    N     N_2   0.278108 0.367916 0.105963 -0.289777
O1    O     O_R   0.431050 0.692470 0.506940 -0.620452
O2    O     O_3   0.886458 0.611367 0.557316 -0.583936
O3    O     O_R   0.651130 0.659650 0.484820 -0.590183
O4    O     O_R   0.389910 0.516410 0.633920 -0.621722
O5    O     O_R   0.609990 0.483590 0.611800 -0.561598
O6    O     O_R   0.348870 0.340350 0.515180 -0.592546
O7    O     O_R   0.568950 0.307530 0.493060 -0.620039
O8    O     O_R   0.390010 0.516410 0.388200 -0.561407
O9    O     O_R   0.610090 0.483590 0.366080 -0.627271
O10   O     O_3   0.114299 0.389936 0.441465 -0.579760
Zn1   Zn    Zn3+2 0.353060 0.521920 0.514770 0.966172
Zn2   Zn    Zn3+2 0.646940 0.478080 0.485230 0.964770

loop_
_geom_bond_atom_site_label_1
_geom_bond_atom_site_label_2
_ccdc_geom_bond_type
C6    O2    S    
O8    Zn1   S    
H10   N3    S    
C9    C14   S    
C18   H18   S    
C13   H6    S    
C6    C7    S    
C18   H17   S    
O4    Zn1   S    
C22   H9    S    
N1    Zn2   S    
C13   H5    S    
C4    C26   S    
C19   C20   S    
O3    Zn2   S    
C23   H7    S    
C1    O1    A    
C27   H29   S    
O9    Zn2   S    
C15   C23   S    
C17   C18   S    
C25   C26   T    
C3    C5    D    
C11   H4    S    
C20   H25   S    
C21   C22   S    
C22   N3    S    
C4    O5    A    
C11   C13   S    
C2    C27   D    
C10   C12   S    
C16   H13   S    
C20   H22   S    
C12   C21   S    
C11   C15   S    
C5    H26   S    
C10   H31   S    
C9    O8    A    
C8    O7    A    
C20   H24   S    
C23   H8    S    
C10   C15   S    
C3    C8    S    
C7    O10   S    
C4    O4    A    
C19   H20   S    
C15   C25   S    
C2    C5    S    
C16   N3    S    
N2    Zn1   S    
C13   C21   S    
C1    O3    A    
C18   H19   S    
C7    N2    D    
O1    Zn1   S    
C9    O9    A    
C12   H1    S    
C8    O6    A    
O6    Zn1   S    
C2    H27   S    
C21   C24   S    
C14   C24   T    
C17   H16   S    
C1    C27   S    
C22   C23   S    
C10   H12   S    
H30   N2    S    
C19   H21   S    
C16   H11   S    
O7    Zn2   S    
C17   H15   S    
O5    Zn2   S    
C3    H28   S    
C6    N1    D    
H2    N1    S    
C11   H3    S    
C19   O2    S    
C12   H23   S    
C16   H14   S    
C17   O10   S    
