data_mof_unit_5504.cif
_audit_creation_date              2012-12-10T17:27:52-0500
_audit_creation_method            fapswitch 2.2
_symmetry_space_group_name_H-M    P1
_symmetry_Int_Tables_number       1
_space_group_crystal_system       triclinic
_cell_length_a                    10.668228
_cell_length_b                    12.082916
_cell_length_c                    12.9264
_cell_angle_alpha                 92.028322
_cell_angle_beta                  92.565111
_cell_angle_gamma                 84.604379
_cell_volume                      1656.39570391

loop_
_atom_site_label
_atom_site_type_symbol
_atom_type_description
_atom_site_fract_x
_atom_site_fract_y
_atom_site_fract_z
_atom_type_partial_charge
C1    C     C_R   0.492862 0.521379 0.699836 0.895613
C2    C     C_R   0.955773 0.392408 0.519063 0.101040
C3    C     C_R   0.877277 0.493389 0.503785 -0.085641
C4    C     C_R   0.928115 0.596303 0.514083 -0.201614
C5    C     C_R   0.054955 0.600217 0.531565 -0.092479
C6    C     C_R   0.132128 0.502243 0.541332 -0.099775
C7    C     C_R   0.516051 0.467153 0.188940 -0.175585
C8    C     C_R   0.474935 0.534097 0.809816 -0.197242
C9    C     C_R   0.380575 0.626693 0.961549 0.359104
C10   C     C_R   0.400453 0.624985 0.854477 -0.180316
C11   C     C_R   0.531839 0.449657 0.870093 -0.208187
C12   C     C_R   0.741363 0.497512 0.497038 0.919415
C13   C     C_R   0.520951 0.453821 0.975327 0.105163
C14   C     C_R   0.448246 0.543648 0.022622 0.019627
C15   C     C_R   0.449590 0.549616 0.129978 -0.142471
C16   C     C_R   0.588278 0.377256 0.140912 -0.049175
C17   C     C_R   0.587371 0.370558 0.033538 -0.166769
C18   C     C_R   0.399171 0.959191 0.390337 -0.240893
C19   C     C_R   0.395283 0.845832 0.407440 0.559962
C20   C     C_R   0.552403 0.854751 0.542529 -0.075406
C21   C     C_R   0.546394 0.972285 0.533618 0.096384
C22   C     C_R   0.471062 0.025049 0.455004 -0.020940
C23   C     C_R   0.507045 0.478955 0.300033 0.954166
C24   C     C_R   0.461908 0.143289 0.447443 0.079949
C25   C     C_R   0.595550 0.155370 0.598496 0.110096
C26   C     C_R   0.609710 0.038406 0.604210 -0.220799
C27   C     C_R   0.262794 0.502121 0.516567 0.942991
C28   C     C_R   0.917554 0.284034 0.500513 -0.166612
C29   C     C_R   0.988048 0.189617 0.540384 -0.127351
C30   C     C_R   0.102539 0.203422 0.596619 0.446012
C31   C     C_R   0.147869 0.308627 0.601704 -0.203596
C32   C     C_R   0.079634 0.400979 0.555103 0.033850
H1    H     H_    0.870546 0.674704 0.507180 0.183082
H2    H     H_    0.644033 0.303281 0.995132 0.201744
H3    H     H_    0.590634 0.382355 0.835183 0.199912
H4    H     H_    0.335327 0.998353 0.332491 0.218183
H5    H     H_    0.667225 0.999213 0.666519 0.179582
H6    H     H_    0.614032 0.813903 0.601226 0.152788
H7    H     H_    0.833333 0.270192 0.454801 0.237858
H8    H     H_    0.236344 0.319020 0.643535 0.195599
H9    H     H_    0.092895 0.679444 0.535664 0.231528
H10   H     H_    0.402678 0.620592 0.169161 0.253682
N1    N     N_R   0.523130 0.207800 0.519340 -0.179389
N2    N     N_R   0.476870 0.792180 0.480660 -0.169215
O1    O     O_R   0.506170 0.421690 0.658830 -0.621147
O2    O     O_R   0.491330 0.609320 0.646410 -0.626563
O3    O     O_R   0.690660 0.406170 0.506210 -0.581286
O4    O     O_R   0.675810 0.593790 0.493790 -0.644949
O5    O     O_R   0.508670 0.390680 0.353590 -0.605915
O6    O     O_R   0.493830 0.578310 0.341170 -0.593352
O7    O     O_R   0.324190 0.406210 0.506210 -0.615874
O8    O     O_R   0.309340 0.593830 0.493790 -0.547125
Zn1   Zn    Zn3+2 0.509910 0.374720 0.508290 1.025568
Zn2   Zn    Zn3+2 0.490090 0.625280 0.491710 1.039251
C33   C     C_2   0.346014 0.718154 0.790335 1.078335
O9    O     O_2   0.381718 0.810816 0.805671 -0.556760
O10   O     O_R   0.254291 0.699916 0.712669 -0.802288
H11   H     H_    0.225092 0.769947 0.674105 0.368968
C34   C     C_2   0.383299 0.196517 0.363077 0.946409
O11   O     O_2   0.276871 0.237881 0.379468 -0.599733
O12   O     O_R   0.427102 0.190327 0.262621 -0.770914
H12   H     H_    0.364126 0.227494 0.210691 0.360115
C35   C     C_2   0.655594 0.215791 0.685670 0.937848
O13   O     O_2   0.641375 0.187930 0.774158 -0.607305
O14   O     O_R   0.736907 0.296222 0.668695 -0.799957
H13   H     H_    0.777114 0.326361 0.735097 0.332081
S1    S     S_3+6 0.257118 0.793165 0.350607 0.076857
O15   O     O_2   0.271460 0.673155 0.316975 -0.263580
O16   O     O_2   0.157106 0.811780 0.428758 -0.321738
O17   O     O_3   0.206289 0.867315 0.246682 -0.496941
H14   H     H_    0.116367 0.854192 0.235292 0.408886
C36   C     C_2   0.936597 0.079925 0.523132 0.993396
O18   O     O_2   0.880398 0.059231 0.441178 -0.626155
O19   O     O_R   0.947185 0.001912 0.601029 -0.719141
H15   H     H_    0.907087 0.931356 0.579506 0.337789
S2    S     S_3+6 0.195869 0.091722 0.655562 0.061624
O20   O     O_2   0.212446 0.994804 0.579834 -0.289015
O21   O     O_2   0.323201 0.126166 0.690334 -0.296190
O22   O     O_3   0.122831 0.053461 0.759400 -0.477715
H16   H     H_    0.173239 0.985260 0.783009 0.414738
C37   C     C_2   0.674302 0.295199 0.198575 0.990711
O23   O     O_2   0.735102 0.324791 0.275290 -0.652071
O24   O     O_R   0.690380 0.184687 0.162010 -0.735322
H17   H     H_    0.752104 0.136882 0.207321 0.373304
S3    S     S_3+6 0.268892 0.728726 0.017453 0.059402
O25   O     O_2   0.194484 0.675341 0.094824 -0.262353
O26   O     O_2   0.340687 0.817042 0.070961 -0.232745
O27   O     O_3   0.165637 0.788298 0.929141 -0.533470
H18   H     H_    0.118385 0.850073 0.967398 0.400448

loop_
_geom_bond_atom_site_label_1
_geom_bond_atom_site_label_2
_ccdc_geom_bond_type
C6    C32   A    
C21   C26   A    
C35   O14   S    
C1    C8    S    
S2    O22   S    
C12   O4    A    
C25   N1    A    
C37   O23   D    
S3    O25   D    
C27   O8    A    
O4    Zn2   S    
O6    Zn2   S    
C28   C29   A    
S2    O21   D    
C8    C11   A    
C5    C6    A    
C7    C23   S    
C1    O2    A    
C23   O5    A    
C30   S2    S    
C31   H8    S    
C2    C32   A    
C18   C19   A    
C25   C35   S    
C3    C12   S    
C20   N2    A    
N1    Zn1   S    
C31   C32   A    
O8    Zn2   S    
C16   C17   A    
C19   S1    S    
O17   H14   S    
C9    C10   A    
C6    C27   S    
O3    Zn1   S    
C29   C36   S    
C9    S3    S    
C7    C15   A    
O1    Zn1   S    
C34   O11   D    
C13   C14   A    
C12   O3    A    
C37   O24   S    
C27   O7    A    
S3    O26   D    
C34   O12   S    
O19   H15   S    
S1    O15   D    
S2    O20   D    
C36   O19   S    
C4    C5    A    
C23   O6    A    
C28   H7    S    
C25   C26   A    
O22   H16   S    
O7    Zn1   S    
C9    C14   A    
C29   C30   A    
C20   H6    S    
O24   H17   S    
O2    Zn2   S    
C33   O9    D    
O27   H18   S    
C10   C33   S    
C7    C16   A    
C33   O10   S    
C22   C24   A    
C17   H2    S    
C3    C4    A    
C19   N2    A    
S3    O27   S    
C5    H9    S    
C4    H1    S    
C18   C22   A    
C15   H10   S    
C36   O18   D    
C26   H5    S    
C13   C17   A    
S1    O17   S    
C11   H3    S    
C2    C3    A    
C11   C13   A    
C1    O1    A    
O10   H11   S    
C30   C31   A    
C24   C34   S    
O5    Zn1   S    
C16   C37   S    
O12   H12   S    
C35   O13   D    
N2    Zn2   S    
C20   C21   A    
C8    C10   A    
O14   H13   S    
C24   N1    A    
C14   C15   A    
C2    C28   A    
S1    O16   D    
C21   C22   A    
C18   H4    S    
