data_mof_unit_13366.cif
_audit_creation_date              2012-12-10T17:31:15-0500
_audit_creation_method            fapswitch 2.2
_symmetry_space_group_name_H-M    P1
_symmetry_Int_Tables_number       1
_space_group_crystal_system       triclinic
_cell_length_a                    11.992935
_cell_length_b                    12.852235
_cell_length_c                    15.428928
_cell_angle_alpha                 86.585569
_cell_angle_beta                  115.456432
_cell_angle_gamma                 94.019616
_cell_volume                      2140.83866308

loop_
_atom_site_label
_atom_site_type_symbol
_atom_type_description
_atom_site_fract_x
_atom_site_fract_y
_atom_site_fract_z
_atom_type_partial_charge
C1    C     C_R   0.475905 0.299845 0.496775 0.914394
C2    C     C_R   0.581012 0.966902 0.426106 -0.220757
C3    C     C_R   0.410438 0.139298 0.555420 -0.262109
C4    C     C_R   0.589085 0.860799 0.443860 -0.264078
C5    C     C_R   0.514653 0.132903 0.450429 0.144601
C6    C     C_R   0.484617 0.867263 0.548635 0.146116
C7    C     C_R   0.523898 0.025208 0.468363 0.088525
C8    C     C_R   0.475277 0.974916 0.530617 0.087942
C9    C     C_R   0.009136 0.607541 0.417827 -0.335321
C10   C     C_R   0.989528 0.390728 0.579908 -0.339433
C11   C     C_R   0.128787 0.596343 0.425247 0.026219
C12   C     C_R   0.523969 0.700199 0.502959 0.915048
C13   C     C_R   0.870547 0.402668 0.573560 0.028630
C14   C     C_R   0.156922 0.451668 0.533962 -0.049027
C15   C     C_R   0.842653 0.547855 0.465403 -0.051228
C16   C     C_R   0.575890 0.492718 0.680592 0.871944
C17   C     C_R   0.423575 0.503195 0.319431 0.869383
C18   C     C_R   0.036850 0.459787 0.528555 0.095106
C19   C     C_R   0.962310 0.539229 0.470079 0.089306
C20   C     C_R   0.620499 0.473530 0.784110 -0.061379
C21   C     C_R   0.375261 0.487001 0.216563 -0.059999
C22   C     C_R   0.783648 0.444853 0.942904 -0.199371
C23   C     C_R   0.642247 0.419197 0.116158 -0.232076
C24   C     C_R   0.210366 0.438829 0.063954 -0.198963
C25   C     C_R   0.746026 0.464913 0.844837 -0.208551
C26   C     C_R   0.249399 0.466901 0.158915 -0.214680
C27   C     C_R   0.533134 0.457703 0.821161 -0.255368
C28   C     C_R   0.460775 0.478703 0.179036 -0.249616
C29   C     C_R   0.567729 0.433394 0.918348 0.062199
C30   C     C_R   0.425418 0.442225 0.087292 0.055687
C31   C     C_R   0.695803 0.431815 0.981468 0.154738
C32   C     C_R   0.297398 0.427032 0.026495 0.155889
C33   C     C_R   0.477264 0.419623 0.954535 0.015515
C34   C     C_R   0.350013 0.400295 0.894757 -0.224002
C35   C     C_R   0.515417 0.426944 0.053640 0.011750
C36   C     C_3   0.866261 0.412060 0.151920 -0.941639
C37   C     C_3   0.126298 0.379030 0.863173 -0.950372
C38   C     C_3   0.526691 0.798988 0.708857 -0.774035
C39   C     C_3   0.473064 0.200979 0.290158 -0.766663
C40   C     C_R   0.732290 0.419558 0.081241 0.180025
C41   C     C_R   0.260363 0.401447 0.930145 0.184683
C42   C     C_R   0.538263 0.811464 0.502273 -0.083644
C43   C     C_R   0.461323 0.188656 0.497069 -0.082398
C44   C     C_R   0.418266 0.033197 0.572964 -0.220747
H1    H     H_    0.834885 0.349233 0.613537 0.133746
H2    H     H_    0.112156 0.425855 0.020902 0.145981
H3    H     H_    0.672618 0.410023 0.192913 0.153292
H4    H     H_    0.318959 0.380768 0.820554 0.143259
H5    H     H_    0.628676 0.816224 0.407426 0.159927
H6    H     H_    0.371062 0.183853 0.592032 0.160182
H7    H     H_    0.382410 0.998838 0.622048 0.153763
H8    H     H_    0.616903 0.001278 0.377046 0.153701
H9    H     H_    0.784067 0.608295 0.420375 0.120403
H10   H     H_    0.215545 0.391313 0.579137 0.116574
H11   H     H_    0.877435 0.401650 0.227182 0.249943
H12   H     H_    0.164313 0.649374 0.384912 0.131355
H13   H     H_    0.905667 0.344143 0.135735 0.241518
H14   H     H_    0.919706 0.484637 0.147352 0.237925
H15   H     H_    0.114790 0.358185 0.791041 0.241529
H16   H     H_    0.087727 0.312336 0.892565 0.241565
H17   H     H_    0.072576 0.448974 0.854372 0.242069
H18   H     H_    0.351244 0.832046 0.601727 0.221674
H19   H     H_    0.557137 0.875812 0.743197 0.234463
H20   H     H_    0.608141 0.759521 0.712360 0.238012
H21   H     H_    0.484089 0.749327 0.749072 0.242605
H22   H     H_    0.648289 0.168202 0.397683 0.220636
H23   H     H_    0.953937 0.669202 0.371771 0.145969
H24   H     H_    0.442138 0.124018 0.256160 0.233313
H25   H     H_    0.516192 0.249786 0.249821 0.243944
H26   H     H_    0.391859 0.241157 0.286252 0.242747
H27   H     H_    0.043794 0.327716 0.624192 0.138356
H28   H     H_    0.556035 0.502405 0.222531 0.159226
H29   H     H_    0.437539 0.469068 0.773501 0.161504
H30   H     H_    0.181600 0.471791 0.187296 0.160284
H31   H     H_    0.815067 0.475112 0.816900 0.157440
H32   H     H_    0.881749 0.441631 0.987957 0.145376
N1    N     N_R   0.799120 0.480200 0.517090 -0.096525
N2    N     N_R   0.200880 0.519800 0.482910 -0.095604
N3    N     N_2   0.437360 0.812744 0.610193 -0.294903
N4    N     N_2   0.562068 0.187494 0.388979 -0.297869
O1    O     O_R   0.580150 0.341050 0.504560 -0.599334
O2    O     O_R   0.419850 0.658950 0.495440 -0.597651
O3    O     O_R   0.388090 0.353760 0.493600 -0.630950
O4    O     O_R   0.611910 0.646240 0.506400 -0.629238
O5    O     O_R   0.650890 0.490020 0.640860 -0.620587
O6    O     O_R   0.349110 0.509980 0.359140 -0.621534
O7    O     O_R   0.458830 0.502730 0.629890 -0.613613
O8    O     O_R   0.541170 0.497270 0.370110 -0.614901
Zn1   Zn    Zn3+2 0.628240 0.491510 0.507320 0.943859
Zn2   Zn    Zn3+2 0.371760 0.508490 0.492680 0.944329

loop_
_geom_bond_atom_site_label_1
_geom_bond_atom_site_label_2
_ccdc_geom_bond_type
C13   H1    S    
C21   C26   A    
C20   C25   A    
C27   C29   A    
C17   O8    A    
C39   H24   S    
C14   C18   A    
C2    C7    A    
C22   H32   S    
C24   C32   A    
C7    C8    A    
N2    Zn2   S    
C15   C19   A    
N1    Zn1   S    
C30   C35   A    
C15   H9    S    
C24   C26   A    
C36   H14   S    
C38   N3    S    
C1    O1    A    
C23   C40   A    
C29   C33   A    
C31   C40   A    
C12   O4    A    
C18   C19   A    
C12   C42   S    
C33   C35   A    
C1    C43   S    
C22   C25   A    
C16   O7    A    
C32   C41   A    
O1    Zn1   S    
C10   H27   S    
C5    C43   A    
C28   H28   S    
C34   C41   A    
C3    H6    S    
C9    C19   A    
C38   H20   S    
C13   N1    A    
C3    C44   A    
C23   H3    S    
C22   C31   A    
C17   O6    A    
H18   N3    S    
C36   C40   S    
C36   H13   S    
O6    Zn2   S    
C5    C7    A    
O5    Zn1   S    
C6    C8    A    
C17   C21   S    
C25   H31   S    
C2    C4    A    
C9    H23   S    
C11   N2    A    
C38   H21   S    
C16   C20   S    
C3    C43   A    
C33   C34   A    
C39   H25   S    
C12   O2    A    
C5    N4    S    
C9    C11   A    
C37   H15   S    
C2    H8    S    
C44   H7    S    
C14   H10   S    
C21   C28   A    
C23   C35   A    
C16   O5    A    
C34   H4    S    
O4    Zn1   S    
C38   H19   S    
O3    Zn2   S    
C8    C44   A    
C10   C13   A    
C37   H17   S    
C20   C27   A    
C1    O3    A    
H22   N4    S    
O2    Zn2   S    
C4    H5    S    
C24   H2    S    
C39   N4    S    
C28   C30   A    
C29   C31   A    
C36   H11   S    
C30   C32   A    
C6    N3    S    
C15   N1    A    
C4    C42   A    
C10   C18   A    
C26   H30   S    
C39   H26   S    
C14   N2    A    
C37   C41   S    
C37   H16   S    
O8    Zn1   S    
C6    C42   A    
O7    Zn2   S    
C27   H29   S    
C11   H12   S    
