data_mof_unit_25356.cif
_audit_creation_date              2012-12-10T19:49:47-0500
_audit_creation_method            fapswitch 2.2
_symmetry_space_group_name_H-M    P1
_symmetry_Int_Tables_number       1
_space_group_crystal_system       triclinic
_cell_length_a                    11.000495
_cell_length_b                    16.144749
_cell_length_c                    17.202528
_cell_angle_alpha                 95.380688
_cell_angle_beta                  92.383814
_cell_angle_gamma                 91.727104
_cell_volume                      3037.29859541

loop_
_atom_site_label
_atom_site_type_symbol
_atom_type_description
_atom_site_fract_x
_atom_site_fract_y
_atom_site_fract_z
_atom_type_partial_charge
C1    C     C_R   0.499810 0.489895 0.349872 0.836317
C2    C     C_R   0.426430 0.453644 0.769020 -0.122915
C3    C     C_R   0.587728 0.542321 0.152277 -0.197169
C4    C     C_R   0.414114 0.460170 0.849320 -0.141411
C5    C     C_R   0.525073 0.479201 0.104161 0.103181
C6    C     C_R   0.467890 0.528253 0.895758 0.176306
C7    C     C_R   0.455635 0.418113 0.136317 -0.175782
C8    C     C_R   0.533528 0.590023 0.862008 -0.222277
C9    C     C_R   0.446775 0.421308 0.217018 -0.157196
C10   C     C_R   0.545719 0.583616 0.781615 -0.117230
C11   C     C_2   0.529866 0.479136 0.019524 0.127443
C12   C     C_R   0.500173 0.510188 0.650173 0.837188
C13   C     C_2   0.461938 0.532206 0.980951 0.177840
C14   C     C_R   0.437317 0.753449 0.463035 0.554204
C15   C     C_R   0.564840 0.247056 0.535978 0.559505
C16   C     C_R   0.262480 0.500616 0.497480 0.887108
C17   C     C_R   0.737447 0.499344 0.502474 0.887605
C18   C     C_R   0.425400 0.838892 0.478211 -0.210132
C19   C     C_R   0.578604 0.161909 0.520034 -0.205174
C20   C     C_R   0.506989 0.885942 0.528682 0.043369
C21   C     C_R   0.496022 0.114383 0.470664 0.041565
C22   C     C_R   0.583910 0.843614 0.577590 -0.156100
C23   C     C_R   0.871848 0.497828 0.504300 -0.244353
C24   C     C_R   0.416239 0.156117 0.423097 -0.189740
C25   C     C_R   0.581402 0.755989 0.570026 0.055291
C26   C     C_R   0.417639 0.243706 0.430632 0.065534
C27   C     C_2   0.503294 0.978705 0.532829 0.322508
C28   C     C_2   0.501031 0.021770 0.466423 0.266983
C29   C     C_R   0.262358 0.714259 0.687555 0.256018
C30   C     C_R   0.750813 0.284626 0.306779 0.233452
C31   C     C_R   0.209111 0.638448 0.651812 0.281673
C32   C     C_R   0.795014 0.361488 0.346179 0.275345
C33   C     C_R   0.139304 0.638471 0.580752 0.058215
C34   C     C_R   0.127931 0.501924 0.495880 -0.244690
C35   C     C_R   0.860373 0.361367 0.418904 0.056183
C36   C     C_R   0.121448 0.713185 0.547304 -0.120760
C37   C     C_R   0.877490 0.286373 0.452167 -0.137644
C38   C     C_R   0.165123 0.788584 0.585398 0.347840
C39   C     C_R   0.838256 0.210794 0.412204 0.368794
C40   C     C_R   0.236564 0.789133 0.654581 -0.298102
C41   C     C_R   0.774188 0.210087 0.340295 -0.259321
C42   C     C_R   0.942984 0.560015 0.550962 0.409162
C43   C     C_R   0.056756 0.439680 0.449254 0.411333
C44   C     C_3   0.407710 0.787739 0.788475 -0.677071
C45   C     C_R   0.929527 0.435981 0.456279 -0.147215
C46   C     C_3   0.731470 0.231001 0.169112 -0.647671
C47   C     C_3   0.135970 0.545946 0.744503 -0.598518
C48   C     C_3   0.865094 0.454123 0.252474 -0.576684
C49   C     C_3   0.307571 0.641159 0.976774 -0.655658
C50   C     C_3   0.727924 0.452799 0.969658 -0.636074
C51   C     C_R   0.070183 0.563634 0.544033 -0.150735
C52   C     C_R   0.506698 0.486041 0.265326 0.003535
C53   C     C_R   0.492850 0.515066 0.734819 0.015389
C54   C     C_R   0.577707 0.546161 0.232578 -0.100610
Cu1   Cu    Cu3+1 0.493640 0.415410 0.495980 1.061402
Cu2   Cu    Cu3+1 0.506360 0.584590 0.504020 1.066126
H1    H     H_    0.267624 0.848302 0.683826 0.219468
H2    H     H_    0.356192 0.121666 0.379286 0.193531
H3    H     H_    0.648930 0.130846 0.550273 0.249184
H4    H     H_    0.356853 0.870452 0.446959 0.253787
H5    H     H_    0.065117 0.713022 0.494052 0.207629
H6    H     H_    0.930265 0.286668 0.506827 0.217262
H7    H     H_    0.627916 0.594860 0.269240 0.181188
H8    H     H_    0.380795 0.402127 0.733482 0.184275
H9    H     H_    0.595778 0.632294 0.756110 0.188798
H10   H     H_    0.393664 0.373408 0.241484 0.189720
H11   H     H_    0.241680 0.757928 0.285954 0.386959
H12   H     H_    0.744910 0.151133 0.309615 0.233261
H13   H     H_    0.760881 0.242390 0.712889 0.384359
H14   H     H_    0.513265 0.062772 0.284210 0.349764
H15   H     H_    0.422710 0.991769 0.737953 0.374873
H16   H     H_    0.312699 0.674094 0.797052 0.275060
H17   H     H_    0.345132 0.835638 0.812069 0.236778
H18   H     H_    0.463687 0.812037 0.742841 0.264561
H19   H     H_    0.470424 0.772397 0.836893 0.220627
H20   H     H_    0.655967 0.338586 0.217978 0.285414
H21   H     H_    0.675480 0.237620 0.114938 0.220508
H22   H     H_    0.727783 0.164289 0.179698 0.251078
H23   H     H_    0.407845 0.368798 0.098995 0.144956
H24   H     H_    0.826853 0.251108 0.159878 0.233143
H25   H     H_    0.238223 0.511764 0.649956 0.224314
H26   H     H_    0.166695 0.493915 0.777415 0.208230
H27   H     H_    0.047002 0.526883 0.714253 0.272680
H28   H     H_    0.124779 0.601031 0.787004 0.240278
H29   H     H_    0.767970 0.488771 0.349528 0.225151
H30   H     H_    0.956429 0.470392 0.280605 0.273031
H31   H     H_    0.835034 0.507915 0.221807 0.206612
H32   H     H_    0.870685 0.399831 0.208332 0.247102
H33   H     H_    0.177566 0.981727 0.637271 0.372006
H34   H     H_    0.576122 0.642434 0.898042 0.141970
H35   H     H_    0.925267 0.075145 0.561414 0.411828
H36   H     H_    0.924474 0.723790 0.716423 0.376704
H37   H     H_    0.075956 0.275637 0.283942 0.377604
H38   H     H_    0.410771 0.614525 0.075744 0.279624
H39   H     H_    0.242213 0.673694 0.015460 0.241889
H40   H     H_    0.254450 0.603812 0.928691 0.227674
H41   H     H_    0.366546 0.688639 0.952649 0.224060
H42   H     H_    0.605833 0.364098 0.001552 0.256935
H43   H     H_    0.778586 0.405668 0.933980 0.240670
H44   H     H_    0.776345 0.466149 0.027724 0.212053
H45   H     H_    0.362968 0.412361 0.875411 0.143588
H46   H     H_    0.726316 0.510486 0.939277 0.239521
H47   H     H_    0.642745 0.589077 0.127387 0.147107
H48   H     H_    0.366753 0.275678 0.388513 0.210559
H49   H     H_    0.630891 0.723737 0.612618 0.208875
H50   H     H_    0.642727 0.877644 0.622369 0.203467
N1    N     N_R   0.515930 0.711660 0.510070 -0.250563
N2    N     N_R   0.484070 0.288340 0.489930 -0.252989
N3    N     N_2   0.339279 0.713448 0.756680 -0.423213
N4    N     N_2   0.683350 0.281940 0.233761 -0.430550
N5    N     N_2   0.224932 0.563352 0.688066 -0.464088
N6    N     N_2   0.779214 0.437232 0.310918 -0.476009
N7    N     N_2   0.380736 0.587681 0.021397 -0.432577
N8    N     N_2   0.605556 0.420998 0.978814 -0.422791
O1    O     O_R   0.494030 0.420280 0.382610 -0.602576
O2    O     O_2   0.291754 0.631996 0.377129 -0.287877
O3    O     O_3   0.265966 0.780301 0.340146 -0.481003
O4    O     O_2   0.708562 0.368923 0.623086 -0.287814
O5    O     O_2   0.542431 0.300436 0.685922 -0.280636
O6    O     O_3   0.736904 0.220367 0.658552 -0.485134
O7    O     O_2   0.602115 0.900118 0.372436 -0.192733
O8    O     O_2   0.398391 0.942979 0.333406 -0.269305
O9    O     O_3   0.582192 0.041123 0.314216 -0.506724
O10   O     O_2   0.610877 0.057312 0.663994 -0.265887
O11   O     O_2   0.405682 0.101077 0.627797 -0.239107
O12   O     O_R   0.505970 0.579720 0.617390 -0.595480
O13   O     O_3   0.428718 0.960047 0.686191 -0.573394
O14   O     O_2   0.115569 0.874178 0.462656 -0.189689
O15   O     O_2   0.989479 0.897122 0.575456 -0.254735
O16   O     O_3   0.208527 0.963105 0.585487 -0.469051
O17   O     O_2   0.790796 0.048614 0.424577 -0.223982
O18   O     O_2   0.003154 0.094203 0.413971 -0.195369
O19   O     O_3   0.902102 0.130315 0.545986 -0.500475
O20   O     O_2   0.837098 0.705645 0.571470 -0.294544
O21   O     O_2   0.764084 0.597046 0.651421 -0.332002
O22   O     O_3   0.966139 0.674612 0.692928 -0.566524
O23   O     O_R   0.504770 0.563150 0.389400 -0.526108
O24   O     O_2   0.236645 0.402236 0.349685 -0.331131
O25   O     O_2   0.161311 0.293673 0.428942 -0.297142
O26   O     O_3   0.034992 0.325493 0.306639 -0.565103
O27   O     O_R   0.495230 0.436850 0.610600 -0.529013
O28   O     O_R   0.314270 0.428570 0.496610 -0.528203
O29   O     O_R   0.685730 0.571430 0.503390 -0.528558
O30   O     O_R   0.325020 0.571440 0.503400 -0.577047
O31   O     O_R   0.674980 0.428560 0.496600 -0.577604
O32   O     O_2   0.458980 0.698301 0.313373 -0.281106
S1    S     S_3+6 0.363459 0.711600 0.372709 0.052698
S2    S     S_3+6 0.638188 0.288622 0.626591 0.053951
S3    S     S_3+6 0.520080 0.972741 0.370346 0.047252
S4    S     S_3+6 0.487718 0.028342 0.629045 0.012098
S5    S     S_3+6 0.116846 0.881934 0.550402 0.052658
S6    S     S_3+6 0.883812 0.117290 0.448032 0.068216
S7    S     S_3+6 0.873673 0.635137 0.617503 -0.027740
S8    S     S_3+6 0.126207 0.364462 0.382849 -0.027198

loop_
_geom_bond_atom_site_label_1
_geom_bond_atom_site_label_2
_ccdc_geom_bond_type
C46   H24   S    
Cu1   Cu2   S    
O9    S3    S    
Cu1   O27   S    
C14   C18   A    
C17   O31   A    
H29   N6    S    
C37   H6    S    
C25   H49   S    
C39   C41   A    
C15   C19   A    
C9    C52   A    
C50   H43   S    
C17   C23   S    
C23   C42   A    
Cu1   O1    S    
C30   N4    S    
C23   C45   A    
C29   N3    S    
C19   C21   A    
C24   C26   A    
O15   S5    D    
O13   S4    S    
C15   S2    S    
C3    C54   A    
H42   N8    S    
O20   S7    D    
C12   O12   A    
C54   H7    S    
C33   C36   A    
C12   O27   A    
C47   H26   S    
C11   N8    S    
C10   C53   A    
C9    H10   S    
C16   C34   S    
Cu2   O29   S    
H14   O9    S    
H25   N5    S    
C52   C54   A    
C22   C25   A    
O22   S7    S    
C7    H23   S    
C48   H32   S    
C30   C41   A    
C47   H27   S    
C43   S8    S    
C12   C53   S    
C42   C51   A    
C26   H48   S    
C44   N3    S    
O24   S8    D    
C28   S3    S    
Cu1   O28   S    
H15   O13   S    
O17   S6    D    
H36   O22   S    
O19   S6    S    
H38   N7    S    
C2    H8    S    
C41   H12   S    
C37   C39   A    
O8    S3    D    
C42   S7    S    
C4    C6    A    
C16   O30   A    
C26   N2    A    
C5    C7    A    
C6    C8    A    
O25   S8    D    
C19   H3    S    
O5    S2    D    
C22   H50   S    
C39   S6    S    
H33   O16   S    
C50   N8    S    
C15   N2    A    
C44   H19   S    
C16   O28   A    
C32   C35   A    
Cu2   N1    S    
C46   H21   S    
C50   H46   S    
C43   C45   A    
O14   S5    D    
H35   O19   S    
C4    H45   S    
C31   C33   A    
C49   N7    S    
C34   C51   A    
C48   H31   S    
C47   H28   S    
C49   H39   S    
C44   H18   S    
H11   O3    S    
C18   H4    S    
C14   N1    A    
C48   N6    S    
C21   C28   S    
C20   C22   A    
O6    S2    S    
C27   S4    S    
Cu2   O12   S    
C46   N4    S    
O18   S6    D    
C48   H30   S    
C8    H34   S    
C36   H5    S    
C35   C45   S    
C38   S5    S    
O16   S5    S    
C1    O23   A    
C25   N1    A    
C46   H22   S    
O32   S1    D    
C10   H9    S    
C3    H47   S    
C7    C9    A    
O10   S4    D    
H16   N3    S    
C40   H1    S    
C32   N6    S    
C35   C37   A    
C8    C10   A    
C34   C43   A    
C3    C5    A    
C2    C53   A    
O2    S1    D    
C5    C11   S    
C20   C27   S    
C33   C51   S    
H13   O6    S    
C50   H44   S    
O21   S7    D    
H20   N4    S    
C17   O29   A    
Cu1   N2    S    
O3    S1    S    
O4    S2    D    
C29   C31   A    
H37   O26   S    
C6    C13   S    
C30   C32   A    
Cu2   O23   S    
C11   C13   D    
C38   C40   A    
C47   N5    S    
C2    C4    A    
C14   S1    S    
C29   C40   A    
C36   C38   A    
O7    S3    D    
C18   C20   A    
C49   H40   S    
C44   H17   S    
C1    C52   S    
Cu1   O31   S    
O11   S4    D    
C49   H41   S    
Cu2   O30   S    
C24   H2    S    
C21   C24   A    
C27   C28   D    
C31   N5    S    
C1    O1    A    
C13   N7    S    
O26   S8    S    
