data_mof_unit_25759.cif
_audit_creation_date              2013-03-05T15:56:03-0500
_audit_creation_method            fapswitch 2.2
_symmetry_space_group_name_H-M    P1
_symmetry_Int_Tables_number       1
_space_group_crystal_system       triclinic
_cell_length_a                    12.533926
_cell_length_b                    13.307382
_cell_length_c                    17.319686
_cell_angle_alpha                 109.990141
_cell_angle_beta                  73.866398
_cell_angle_gamma                 117.780643
_cell_volume                      2377.32250853

loop_
_atom_site_label
_atom_site_type_symbol
_atom_site_description
_atom_site_fract_x
_atom_site_fract_y
_atom_site_fract_z
_atom_type_partial_charge
O1    O     O_R   0.025490 0.682370 0.523640 -0.559168
O2    O     O_R   0.194150 0.640180 0.491890 -0.537749
C1    C     C_R   0.143584 0.713483 0.506079 0.841054
O3    O     O_R   0.905900 0.523560 0.631310 -0.553408
O4    O     O_R   0.074570 0.481370 0.599560 -0.572883
C2    C     C_R   0.985450 0.502772 0.652349 0.823011
Cu1   Cu    Cu3+1 0.900140 0.524980 0.518800 1.058805
Cu2   Cu    Cu3+1 0.099860 0.475020 0.481200 1.015358
O5    O     O_R   0.805850 0.359820 0.508110 -0.500794
O6    O     O_R   0.974510 0.317630 0.476360 -0.550237
O7    O     O_R   0.925430 0.518630 0.400440 -0.558611
O8    O     O_R   0.094100 0.476440 0.368690 -0.585430
C3    C     C_R   0.855958 0.285459 0.489448 0.847147
C4    C     C_R   0.014918 0.497836 0.347634 0.830181
C5    C     C_R   0.982135 0.513097 0.739919 -0.027604
C6    C     C_R   0.080284 0.513645 0.764384 -0.099814
C7    C     C_R   0.087290 0.538864 0.847675 -0.214511
C8    C     C_R   0.994240 0.559908 0.907995 0.032891
C9    C     C_R   0.892836 0.553600 0.884180 -0.157882
C10   C     C_R   0.886647 0.529953 0.800272 -0.156010
C11   C     C_R   0.945178 0.540286 0.168070 -0.190254
C12   C     C_R   0.946441 0.539339 0.246982 -0.285558
C13   C     C_R   0.107027 0.468706 0.195318 0.340268
C14   C     C_R   0.101462 0.465010 0.114009 0.359222
C15   C     C_R   0.022571 0.504214 0.101144 0.061843
C16   C     C_2   0.999754 0.579739 0.996108 0.389515
C17   C     C_2   0.016963 0.499745 0.016344 -0.213675
C18   C     C_R   0.024691 0.501634 0.261953 -0.170666
H1    H     H_    0.153969 0.497971 0.719440 0.159424
H2    H     H_    0.883370 0.567055 0.296364 0.207252
H3    H     H_    0.031776 0.428416 0.967280 0.131475
H4    H     H_    0.818607 0.566113 0.930413 0.150215
H5    H     H_    0.879564 0.565560 0.160022 0.209066
H6    H     H_    0.807647 0.524827 0.782740 0.188176
H7    H     H_    0.165558 0.542065 0.865223 0.144027
C19   C     C_R   0.719904 0.961912 0.390423 -0.267250
H8    H     H_    0.540378 0.764112 0.333701 0.129210
H9    H     H_    0.747882 0.895418 0.345577 0.177431
C20   C     C_R   0.772945 0.159831 0.476809 -0.282539
C21   C     C_R   0.176939 0.923077 0.552214 -0.137761
C22   C     C_R   0.254691 0.040953 0.569550 -0.196020
C23   C     C_R   0.379647 0.075593 0.546437 -0.128775
C24   C     C_R   0.429790 0.992917 0.499895 0.120291
C25   C     C_R   0.346705 0.875075 0.471982 0.116089
C26   C     C_R   0.557890 0.021972 0.477247 0.003357
C27   C     C_R   0.596377 0.937182 0.416574 0.030634
C28   C     C_R   0.511447 0.827605 0.381403 -0.158214
C29   C     C_R   0.388549 0.797020 0.408432 -0.162576
C30   C     C_R   0.649517 0.129847 0.513225 0.401399
C31   C     C_R   0.808628 0.072495 0.419213 0.308414
C32   C     C_R   0.222815 0.838198 0.507779 -0.101317
H10   H     H_    0.081135 0.898958 0.574775 0.199841
H11   H     H_    0.432339 0.168231 0.563549 0.240431
H12   H     H_    0.218262 0.105869 0.603723 0.159946
H13   H     H_    0.326182 0.712020 0.378161 0.125611
C33   C     C_R   0.637503 0.669332 0.641670 0.325462
H14   H     H_    0.421628 0.666603 0.690669 0.210579
N1    N     N_R   0.749710 0.562810 0.547300 -0.336777
C34   C     C_R   0.250171 0.353936 0.382042 -0.039697
C35   C     C_R   0.353507 0.331532 0.347056 0.263213
C36   C     C_R   0.461304 0.403940 0.383265 0.424597
C37   C     C_R   0.453725 0.470246 0.467438 -0.111451
C38   C     C_R   0.347056 0.495082 0.499229 0.068105
C39   C     C_R   0.551103 0.522620 0.518292 -0.114315
C40   C     C_R   0.539443 0.600009 0.596216 -0.127163
C41   C     C_R   0.430162 0.609431 0.629326 -0.236574
C42   C     C_R   0.345886 0.577134 0.578849 0.356508
C43   C     C_R   0.654658 0.495173 0.500021 0.446502
C44   C     C_R   0.739513 0.644875 0.618758 0.345728
N2    N     N_R   0.249640 0.437820 0.453210 -0.241240
H15   H     H_    0.171668 0.308673 0.349593 0.209537
O9    O     O_3   0.181480 0.434695 0.047600 -0.625230
C45   C     C_3   0.139236 0.311393 0.021332 0.041236
H16   H     H_    0.040841 0.268527 0.013790 0.130802
H17   H     H_    0.152740 0.277598 0.066820 0.195963
C46   C     C_3   0.212773 0.279984 0.937339 -0.344250
H18   H     H_    0.197909 0.311898 0.891346 0.222706
H19   H     H_    0.311453 0.324300 0.943238 0.225201
C47   C     C_3   0.176156 0.147972 0.905666 -0.886659
H20   H     H_    0.197908 0.115783 0.948043 0.257623
H21   H     H_    0.227861 0.128607 0.843144 0.266186
H22   H     H_    0.077154 0.101078 0.901008 0.264935
N3    N     N_R   0.933888 0.094218 0.388469 0.124856
O10   O     O_R   0.006750 0.120104 0.439839 -0.401856
O11   O     O_R   0.967306 0.061713 0.309149 -0.427790
O12   O     O_3   0.619146 0.210201 0.580210 -0.596228
C48   C     C_3   0.652341 0.215345 0.653604 0.030908
H23   H     H_    0.662673 0.302326 0.696513 0.180563
H24   H     H_    0.742123 0.211390 0.643419 0.110671
C49   C     C_3   0.552253 0.119302 0.695066 -0.343959
H25   H     H_    0.461819 0.116306 0.696067 0.242311
H26   H     H_    0.553136 0.032728 0.658785 0.225912
C50   C     C_3   0.569411 0.142020 0.784286 -0.910857
H27   H     H_    0.660191 0.148911 0.786522 0.249250
H28   H     H_    0.498270 0.068567 0.811049 0.267475
H29   H     H_    0.560768 0.224645 0.822716 0.257454
N4    N     N_R   0.822310 0.693781 0.677857 0.167252
O13   O     O_R   0.930785 0.773753 0.664411 -0.390441
O14   O     O_R   0.778848 0.682895 0.753464 -0.359971
O15   O     O_3   0.634607 0.761272 0.710069 -0.569255
C51   C     C_3   0.661682 0.861052 0.682887 0.049687
H30   H     H_    0.632870 0.922846 0.736292 0.183805
H31   H     H_    0.608899 0.839047 0.632731 0.166617
C52   C     C_3   0.798882 0.923804 0.654657 -0.343580
H32   H     H_    0.850581 0.944613 0.704879 0.264149
H33   H     H_    0.828620 0.866019 0.598409 0.214817
C53   C     C_3   0.829515 0.037007 0.633115 -0.902402
H34   H     H_    0.773751 0.019581 0.586348 0.260415
H35   H     H_    0.927304 0.074666 0.606924 0.283431
H36   H     H_    0.812971 0.101987 0.689767 0.244627
N5    N     N_R   0.641710 0.379340 0.451388 0.193950
O16   O     O_R   0.718344 0.362428 0.385711 -0.325661
O17   O     O_R   0.542354 0.289758 0.466218 -0.417789
O18   O     O_3   0.573067 0.408888 0.337699 -0.565823
C54   C     C_3   0.596681 0.439344 0.261889 0.108686
H37   H     H_    0.674566 0.526647 0.265648 0.115144
H38   H     H_    0.520074 0.447654 0.248083 0.146239
C55   C     C_3   0.632202 0.348871 0.190573 -0.255892
H39   H     H_    0.720500 0.355130 0.197761 0.225301
H40   H     H_    0.563558 0.258881 0.192990 0.251180
C56   C     C_3   0.641949 0.366345 0.105784 -0.945239
H41   H     H_    0.550076 0.341659 0.092443 0.267121
H42   H     H_    0.682685 0.309447 0.056883 0.258720
H43   H     H_    0.699845 0.458873 0.103383 0.257617
O19   O     O_3   0.355926 0.251854 0.270858 -0.622481
C57   C     C_3   0.283418 0.135761 0.279133 0.047260
H44   H     H_    0.259295 0.079590 0.216885 0.179172
H45   H     H_    0.195992 0.126175 0.321044 0.213527
C58   C     C_3   0.354056 0.090564 0.308223 -0.313792
H46   H     H_    0.441516 0.100935 0.266242 0.233544
H47   H     H_    0.374358 0.142341 0.371969 0.262058
C59   C     C_3   0.280799 0.961542 0.308887 -0.903660
H48   H     H_    0.195830 0.949994 0.353949 0.275963
H49   H     H_    0.336007 0.930637 0.327422 0.259410
H50   H     H_    0.257221 0.907285 0.246097 0.251775
N6    N     N_R   0.308582 0.669326 0.595695 0.145590
O20   O     O_R   0.387377 0.759976 0.567566 -0.405998
O21   O     O_R   0.237899 0.689237 0.664485 -0.392410
O22   O     O_3   0.188429 0.434815 0.208201 -0.601184
C60   C     C_3   0.303428 0.531347 0.217165 0.108841
H51   H     H_    0.328705 0.541356 0.276795 0.153059
H52   H     H_    0.304869 0.617084 0.219640 0.111011
C61   C     C_3   0.400356 0.505949 0.147117 -0.334814
H53   H     H_    0.402207 0.423448 0.147264 0.225733
H54   H     H_    0.377945 0.494051 0.086273 0.265117
C62   C     C_3   0.526465 0.606078 0.156148 -0.951236
H55   H     H_    0.525726 0.689185 0.156052 0.270577
H56   H     H_    0.593490 0.585675 0.103299 0.267821
H57   H     H_    0.555785 0.617951 0.214567 0.235173
O23   O     O_3   0.979060 0.671360 0.057502 -0.627959
C63   C     C_3   0.037759 0.777025 0.032014 0.051314
H58   H     H_    0.987280 0.774469 0.987263 0.169975
H59   H     H_    0.133879 0.793208 0.003132 0.151918
C64   C     C_3   0.038391 0.878117 0.108369 -0.290959
H60   H     H_    0.943281 0.861592 0.139168 0.243927
H61   H     H_    0.090249 0.882893 0.153150 0.222174
C65   C     C_3   0.095909 0.995178 0.085195 -0.913262
H62   H     H_    0.191634 0.014349 0.055135 0.248086
H63   H     H_    0.095580 0.066608 0.141972 0.289730
H64   H     H_    0.043046 0.993010 0.042277 0.259181

loop_
_geom_bond_atom_site_label_1
_geom_bond_atom_site_label_2
_geom_bond_distance
_ccdc_geom_bond_type
C61   C62   1.526409 S    
C48   H23   1.111063 S    
C57   H44   1.109947 S    
C29   H13   1.078632 S    
C45   H17   1.113060 S    
C45   H16   1.116342 S    
C9    C10   1.394371 A    
C8    C16   1.472960 S    
C60   C61   1.531447 S    
H14   C41   1.085854 S    
C52   H33   1.110172 S    
N4    O13   1.296162 A    
C49   H25   1.110904 S    
Cu1   Cu2   2.735301 S    
C26   C27   1.423052 A    
Cu1   O7    1.963502 S    
C16   C17   1.346744 D    
C50   H27   1.108762 S    
C39   C43   1.432772 A    
C13   O22   1.385078 S    
C35   O19   1.384863 S    
C60   H52   1.118787 S    
C62   H55   1.110848 S    
C23   H11   1.069467 S    
O4    C2    1.309849 A    
O7    C4    1.310453 A    
C11   H5    1.078198 S    
C5    C6    1.404361 A    
C61   H54   1.106077 S    
C8    C9    1.400275 A    
C22   C23   1.389393 A    
C63   C64   1.529114 S    
O5    C3    1.313754 A    
C55   H39   1.109415 S    
C56   H43   1.108948 S    
C37   C39   1.461495 A    
C2    C5    1.465865 S    
C65   H62   1.110855 S    
N5    O16   1.298615 A    
C6    C7    1.383205 A    
C54   H38   1.111763 S    
C28   C29   1.379385 A    
C63   H58   1.112046 S    
C46   C47   1.525489 S    
C19   C27   1.395651 A    
H8    C28   1.081577 S    
Cu1   N1    2.061500 S    
C64   H61   1.111759 S    
C58   C59   1.526169 S    
C10   H6    1.080405 S    
C41   C42   1.377658 A    
C34   C35   1.390643 A    
C65   H63   1.110339 S    
C12   C18   1.403561 A    
C11   C12   1.375616 A    
C53   H35   1.110431 S    
O3    Cu1   1.976712 S    
C9    H4    1.083394 S    
C52   H32   1.111079 S    
N4    O14   1.300852 A    
C31   N3    1.431637 S    
O18   C54   1.418400 S    
C62   H56   1.110248 S    
C60   H51   1.110497 S    
C5    C10   1.403583 A    
C38   C42   1.438153 A    
C3    C20   1.476579 S    
C17   H3    1.087517 S    
C51   H30   1.110534 S    
C16   O23   1.392689 S    
C46   H18   1.112274 S    
C64   C65   1.525550 S    
N6    O21   1.300350 A    
C47   H21   1.110798 S    
C1    C32   1.479163 S    
O12   C48   1.414763 S    
C59   H48   1.111066 S    
C57   C58   1.533273 S    
C6    H1    1.082317 S    
C21   H10   1.078576 S    
C35   C36   1.411180 A    
O1    C1    1.311291 A    
C55   C56   1.527364 S    
C24   C25   1.420037 A    
C37   C38   1.441618 A    
O4    Cu2   1.963502 S    
C62   H57   1.107692 S    
C33   C40   1.402028 A    
C49   H26   1.111444 S    
N3    O10   1.301162 A    
C38   N2    1.401809 A    
C26   C30   1.420308 A    
Cu2   O8    1.976713 S    
C54   C55   1.533197 S    
C7    C8    1.399064 A    
C64   H60   1.111966 S    
C13   C14   1.412246 A    
N5    O17   1.298310 A    
C13   C18   1.415211 A    
C14   C15   1.407972 A    
C24   C26   1.433974 A    
C56   H41   1.109359 S    
C25   C32   1.413908 A    
N1    C43   1.392373 A    
C21   C22   1.384213 A    
N3    O11   1.301034 A    
O8    C4    1.317043 A    
C33   C44   1.384135 A    
C50   H29   1.110990 S    
C48   H24   1.113002 S    
O19   C57   1.415420 S    
C45   C46   1.529278 S    
O3    C2    1.315833 A    
C15   C17   1.469464 S    
C23   C24   1.418408 A    
C33   O15   1.388570 S    
C53   H34   1.110625 S    
C19   C31   1.389897 A    
C14   O9    1.382166 S    
C49   C50   1.526487 S    
C58   H46   1.110861 S    
C51   H31   1.114864 S    
Cu1   O5    1.919274 S    
C11   C15   1.394180 A    
C27   C28   1.391632 A    
C57   H45   1.111260 S    
C12   H2    1.082973 S    
C20   C30   1.415874 A    
O1    Cu1   1.935942 S    
C30   O12   1.385671 S    
Cu2   O6    1.935944 S    
O2    Cu2   1.919273 S    
C46   H19   1.112255 S    
O9    C45   1.411833 S    
O6    C3    1.314832 A    
C47   H22   1.111348 S    
O22   C60   1.419111 S    
N1    C44   1.363368 A    
C65   H64   1.110680 S    
C21   C32   1.401386 A    
Cu2   N2    2.049606 S    
C39   C40   1.408473 A    
C19   H9    1.085006 S    
O2    C1    1.318891 A    
C54   H37   1.110559 S    
C50   H28   1.110407 S    
C59   H50   1.110926 S    
O15   C51   1.420738 S    
C53   H36   1.107904 S    
C42   N6    1.422346 S    
C63   H59   1.115759 S    
C36   C37   1.426395 A    
C55   H40   1.108999 S    
C22   H12   1.083031 S    
C56   H42   1.110365 S    
C34   N2    1.351683 A    
C47   H20   1.109755 S    
C25   C29   1.403842 A    
C20   C31   1.410587 A    
C59   H49   1.109069 S    
C40   C41   1.376632 A    
C48   C49   1.534664 S    
C36   O18   1.387301 S    
O23   C63   1.411709 S    
N6    O20   1.300692 A    
C51   C52   1.538455 S    
C7    H7    1.083723 S    
C4    C18   1.471108 S    
C43   N5    1.437678 S    
C52   C53   1.523631 S    
C61   H53   1.109762 S    
C34   H15   1.081768 S    
C58   H47   1.109526 S    
C44   N4    1.433012 S    
