data_mof_unit_30963.cif
_audit_creation_date              2012-12-10T18:35:26-0500
_audit_creation_method            fapswitch 2.2
_symmetry_space_group_name_H-M    P1
_symmetry_Int_Tables_number       1
_space_group_crystal_system       triclinic
_cell_length_a                    15.137052
_cell_length_b                    13.867622
_cell_length_c                    10.802801
_cell_angle_alpha                 90.092428
_cell_angle_beta                  89.687336
_cell_angle_gamma                 90.075023
_cell_volume                      2267.63042431

loop_
_atom_site_label
_atom_site_type_symbol
_atom_type_description
_atom_site_fract_x
_atom_site_fract_y
_atom_site_fract_z
_atom_type_partial_charge
C1    C     C_R   0.329961 0.499967 0.501390 0.762940
C2    C     C_R   0.670055 0.500050 0.500951 0.763655
C3    C     C_R   0.048717 0.500202 0.512411 0.110885
C4    C     C_R   0.951256 0.499722 0.512576 0.107012
C5    C     C_R   0.568270 0.107983 0.442475 -0.282521
C6    C     C_R   0.541874 0.892000 0.405088 -0.284377
C7    C     C_R   0.431780 0.107917 0.557545 -0.282909
C8    C     C_R   0.458098 0.892100 0.594927 -0.284298
C9    C     C_R   0.566627 0.209434 0.442717 0.088629
C10   C     C_R   0.541659 0.790551 0.407351 0.081949
C11   C     C_R   0.433395 0.209368 0.557277 0.088700
C12   C     C_R   0.458303 0.790639 0.592636 0.079962
C13   C     C_R   0.500027 0.054694 0.500021 0.132730
C14   C     C_R   0.500005 0.945307 0.500021 0.131836
C15   C     C_R   0.500161 0.499872 0.262677 0.797423
C16   C     C_R   0.499712 0.500106 0.737206 0.797955
C17   C     C_R   0.339202 0.530389 0.129861 -0.225679
C18   C     C_R   0.661655 0.478742 0.869721 -0.227492
C19   C     C_R   0.338126 0.524605 0.872628 -0.243227
C20   C     C_R   0.660123 0.465065 0.126198 -0.232539
C21   C     C_R   0.259077 0.543067 0.067319 0.190915
C22   C     C_R   0.741599 0.463268 0.931774 0.174234
C23   C     C_R   0.258307 0.539008 0.936602 0.186250
C24   C     C_R   0.740207 0.452347 0.061990 0.192257
C25   C     C_R   0.419183 0.513331 0.935567 0.031462
C26   C     C_R   0.580088 0.483770 0.063860 0.027748
C27   C     C_R   0.419530 0.514718 0.065558 0.034876
C28   C     C_R   0.580419 0.487254 0.934047 0.037535
C29   C     C_R   0.499778 0.500420 0.870996 -0.132251
C30   C     C_R   0.499922 0.499411 0.128696 -0.134549
C31   C     C_R   0.095410 0.584330 0.480648 -0.172565
C32   C     C_R   0.904744 0.415167 0.482596 -0.174810
C33   C     C_R   0.903812 0.584131 0.540633 -0.186704
C34   C     C_R   0.095990 0.416244 0.542048 -0.183503
C35   C     C_R   0.187096 0.584642 0.479405 -0.210354
C36   C     C_R   0.813083 0.414904 0.481563 -0.180170
C37   C     C_R   0.812191 0.584762 0.534418 -0.217296
C38   C     C_R   0.187677 0.415855 0.537011 -0.184465
C39   C     C_R   0.233681 0.500035 0.505559 -0.036270
C40   C     C_R   0.766343 0.500067 0.504954 -0.034735
Cu1   Cu    Cu3+1 0.500000 0.596430 0.500000 0.930105
Cu2   Cu    Cu3+1 0.500000 0.403570 0.500000 0.937936
H1    H     H_    0.337810 0.533339 0.229953 0.142699
H2    H     H_    0.663788 0.484587 0.769914 0.136511
H3    H     H_    0.336002 0.521856 0.772598 0.132982
H4    H     H_    0.661326 0.459676 0.226110 0.141330
H5    H     H_    0.061538 0.649708 0.454277 0.122736
H6    H     H_    0.938730 0.349267 0.457945 0.120807
H7    H     H_    0.937049 0.649732 0.568391 0.125084
H8    H     H_    0.062582 0.351038 0.571164 0.120266
H9    H     H_    0.221417 0.650527 0.454949 0.158253
H10   H     H_    0.778915 0.348377 0.460168 0.144265
H11   H     H_    0.777257 0.650932 0.555575 0.157015
H12   H     H_    0.222500 0.350167 0.560087 0.139742
H13   H     H_    0.623599 0.072104 0.398636 0.125752
H14   H     H_    0.573818 0.927870 0.328101 0.128781
H15   H     H_    0.376456 0.071977 0.601372 0.125084
H16   H     H_    0.426145 0.928057 0.671917 0.128543
H17   H     H_    0.619267 0.248702 0.397117 0.111465
H18   H     H_    0.574786 0.751253 0.334113 0.124910
H19   H     H_    0.380742 0.248588 0.602844 0.114614
H20   H     H_    0.425158 0.751395 0.665844 0.124302
N1    N     N_R   0.500000 0.258690 0.500000 -0.169414
N2    N     N_R   0.500000 0.741310 0.500000 -0.172199
O1    O     O_R   0.371460 0.581430 0.500010 -0.589824
O2    O     O_R   0.628540 0.418570 0.499990 -0.597593
O3    O     O_R   0.628540 0.581430 0.499990 -0.584050
O4    O     O_R   0.371460 0.418570 0.500010 -0.591721
O5    O     O_R   0.499990 0.581440 0.319660 -0.587927
O6    O     O_R   0.500010 0.418560 0.680340 -0.573486
O7    O     O_R   0.500010 0.581440 0.680340 -0.589620
O8    O     O_R   0.499990 0.418560 0.319660 -0.574378
C41   C     C_3   0.821222 0.426487 0.136773 -0.408679
C42   C     C_3   0.815165 0.322667 0.183250 -0.838123
H21   H     H_    0.756302 0.312937 0.243667 0.240864
H22   H     H_    0.810234 0.271736 0.104240 0.252647
H23   H     H_    0.875192 0.304820 0.237100 0.237205
H24   H     H_    0.883536 0.434026 0.083779 0.206078
H25   H     H_    0.826609 0.476328 0.217067 0.207269
C43   C     C_3   0.174285 0.550033 0.862418 -0.417173
C44   C     C_3   0.124485 0.454413 0.853590 -0.832667
H26   H     H_    0.165639 0.400072 0.804562 0.255382
H27   H     H_    0.107441 0.425949 0.946573 0.239812
H28   H     H_    0.062316 0.465144 0.801365 0.250445
H29   H     H_    0.131069 0.606521 0.903062 0.202078
H30   H     H_    0.189871 0.574765 0.766916 0.211791
C45   C     C_3   0.826020 0.461200 0.855578 -0.418114
C46   C     C_3   0.854977 0.358458 0.825527 -0.811884
H31   H     H_    0.872709 0.318951 0.910863 0.251368
H32   H     H_    0.801227 0.319285 0.777019 0.256700
H33   H     H_    0.913928 0.360516 0.763938 0.238790
H34   H     H_    0.815805 0.499363 0.766735 0.217590
H35   H     H_    0.879807 0.501663 0.901888 0.186387
C47   C     C_3   0.177105 0.564081 0.143598 -0.417339
C48   C     C_3   0.170993 0.671479 0.173185 -0.847375
H36   H     H_    0.229469 0.695118 0.227054 0.254750
H37   H     H_    0.167562 0.714136 0.086422 0.246793
H38   H     H_    0.110478 0.685748 0.228684 0.240923
H39   H     H_    0.115797 0.541179 0.096531 0.209015
H40   H     H_    0.179039 0.522306 0.231155 0.214259

loop_
_geom_bond_atom_site_label_1
_geom_bond_atom_site_label_2
_ccdc_geom_bond_type
C45   C46   S    
Cu1   Cu2   S    
C19   C23   A    
C48   H36   S    
C9    N1    A    
C44   H26   S    
C48   H38   S    
Cu1   O3    S    
C7    C11   A    
C15   O8    A    
C42   H22   S    
C32   C36   A    
C28   C29   A    
C37   C40   A    
C11   N1    A    
C38   C39   A    
C12   N2    A    
C24   C41   S    
C21   C47   S    
C33   H7    S    
Cu2   O6    S    
C1    O4    A    
C41   C42   S    
C43   H30   S    
C8    H16   S    
C20   C24   A    
C42   H23   S    
C1    O1    A    
C41   H24   S    
C23   C43   S    
C5    C13   A    
C36   H10   S    
Cu1   O7    S    
C37   H11   S    
C34   C38   A    
C45   H34   S    
C27   C30   A    
Cu2   O4    S    
C32   H6    S    
C16   O7    A    
C44   H27   S    
C25   C29   A    
C15   O5    A    
C34   H8    S    
C42   H21   S    
C17   C27   A    
C36   C40   A    
C16   O6    A    
C2    O3    A    
Cu1   O1    S    
C3    C34   A    
C2    O2    A    
C16   C29   S    
C17   C21   A    
C9    H17   S    
C10   H18   S    
C17   H1    S    
C5    C9    A    
C43   H29   S    
C18   H2    S    
C6    C14   A    
C12   H20   S    
C38   H12   S    
C46   H33   S    
C47   H40   S    
C8    C12   A    
Cu2   O8    S    
C41   H25   S    
C18   C28   A    
C48   H37   S    
C22   C45   S    
C3    C31   A    
C4    C32   A    
C46   H32   S    
C26   C30   A    
C21   C23   A    
C35   H9    S    
C22   C24   A    
C3    C4    S    
C44   H28   S    
C15   C30   S    
Cu1   O5    S    
C4    C33   A    
C8    C14   A    
C18   C22   A    
C5    H13   S    
C10   N2    A    
C6    H14   S    
C43   C44   S    
C11   H19   S    
C6    C10   A    
C19   H3    S    
C25   C27   A    
C26   C28   A    
C20   C26   A    
C47   H39   S    
C35   C39   A    
C45   H35   S    
C31   C35   A    
C47   C48   S    
C19   C25   A    
C33   C37   A    
C1    C39   S    
C2    C40   S    
C7    C13   A    
C46   H31   S    
Cu2   O2    S    
C31   H5    S    
Cu1   N2    S    
C13   C14   S    
Cu2   N1    S    
C7    H15   S    
C20   H4    S    
