data_mof_unit_38835.cif
_audit_creation_date              2012-12-11T16:31:33-0500
_audit_creation_method            fapswitch 2.2
_symmetry_space_group_name_H-M    P1
_symmetry_Int_Tables_number       1
_space_group_crystal_system       triclinic
_cell_length_a                    6.953699
_cell_length_b                    18.525626
_cell_length_c                    19.999282
_cell_angle_alpha                 68.47419
_cell_angle_beta                  91.069225
_cell_angle_gamma                 91.145486
_cell_volume                      2395.98984274

loop_
_atom_site_label
_atom_site_type_symbol
_atom_type_description
_atom_site_fract_x
_atom_site_fract_y
_atom_site_fract_z
_atom_type_partial_charge
O1    O     O_R   0.488990 0.443920 0.942160 -0.523753
O2    O     O_R   0.823840 0.406530 0.087600 -0.539010
O3    O     O_R   0.999650 0.556080 0.057840 -0.534171
C1    C     C_R   0.654694 0.383539 0.115122 0.681491
O4    O     O_R   0.818390 0.434590 0.944530 -0.555653
O5    O     O_R   0.994160 0.584350 0.913750 -0.537496
C2    C     C_R   0.646469 0.418755 0.925544 0.746783
O6    O     O_R   0.494480 0.415650 0.086250 -0.543568
O7    O     O_3   0.662600 0.549100 0.990070 -0.377993
V1    V     V_3+5 0.935320 0.490890 0.001840 1.423146
O8    O     O_R   0.324240 0.593470 0.912400 -0.520840
C3    C     C_R   0.155273 0.617017 0.884814 0.873979
O9    O     O_R   0.329690 0.565410 0.055470 -0.539495
C4    C     C_R   0.163034 0.579357 0.076135 0.769989
V2    V     V_3+5 0.435990 0.509110 0.998160 1.465829
O10   O     O_3   0.158840 0.450900 0.009930 -0.384452
C5    C     C_3   0.005565 0.674233 0.266619 0.313812
C6    C     C_3   0.349004 0.716433 0.239606 0.517147
C7    C     C_3   0.337534 0.764339 0.289277 -0.382315
H1    H     H_    0.030607 0.684645 0.372218 0.160864
H2    H     H_    0.055627 0.614897 0.299347 0.119807
H3    H     H_    0.396625 0.656628 0.272261 0.053502
H4    H     H_    0.382666 0.727425 0.344837 0.109789
H5    H     H_    0.440138 0.814425 0.270767 0.236174
C8    C     C_1   0.110174 0.875727 0.377479 -0.186172
C9    C     C_3   0.149249 0.712336 0.204631 -0.138517
C10   C     C_3   0.992697 0.722169 0.316016 -0.543481
C11   C     C_3   0.130068 0.793784 0.290043 -0.024180
C12   C     C_3   0.070858 0.844214 0.211622 0.465034
C13   C     C_3   0.082186 0.796569 0.161578 0.535374
C14   C     C_1   0.118655 0.838823 0.338302 0.065982
C15   C     C_1   0.156547 0.665562 0.157714 0.169394
C16   C     C_1   0.159535 0.626519 0.120319 -0.107975
H6    H     H_    0.937290 0.794613 0.137667 0.091963
H7    H     H_    0.920497 0.864013 0.210979 0.046685
H8    H     H_    0.842206 0.741392 0.316464 0.217055
C17   C     C_R   0.086306 0.775332 0.881771 0.273155
C18   C     C_R   0.109814 0.849851 0.883983 0.250719
C19   C     C_R   0.139242 0.913408 0.819871 0.431614
C20   C     C_R   0.132962 0.903475 0.754302 0.453545
C21   C     C_R   0.121938 0.828050 0.751144 -0.197744
C22   C     C_R   0.115570 0.762030 0.816745 -0.164667
C23   C     C_R   0.122973 0.817361 0.684446 -0.055694
C24   C     C_R   0.155679 0.742917 0.683072 0.015127
C25   C     C_R   0.182788 0.677940 0.748390 -0.093584
C26   C     C_R   0.146743 0.686097 0.815765 -0.075687
C27   C     C_R   0.172112 0.733271 0.616418 -0.269693
C28   C     C_R   0.231921 0.663905 0.613045 -0.244572
C29   C     C_R   0.275929 0.602304 0.675541 0.608404
C30   C     C_R   0.246807 0.607226 0.743199 0.315741
H9    H     H_    0.145514 0.780133 0.565693 0.124381
H10   H     H_    0.250729 0.658855 0.561314 0.161000
C31   C     C_R   0.468694 0.238555 0.123272 -0.144565
C32   C     C_R   0.374050 0.170621 0.125805 -0.117080
C33   C     C_R   0.363947 0.107131 0.189934 -0.092601
C34   C     C_R   0.446802 0.111246 0.252339 -0.157034
C35   C     C_R   0.538812 0.180198 0.252155 0.064044
C36   C     C_R   0.550489 0.245279 0.186124 0.068923
C37   C     C_R   0.621586 0.184428 0.316019 -0.134020
C38   C     C_R   0.712469 0.254415 0.313994 0.004146
C39   C     C_R   0.715477 0.320659 0.248826 0.005307
C40   C     C_R   0.642187 0.315263 0.184077 -0.136110
C41   C     C_R   0.796718 0.260554 0.376642 -0.309172
C42   C     C_R   0.873624 0.330746 0.376256 0.418864
C43   C     C_R   0.851437 0.398023 0.315015 0.401852
C44   C     C_R   0.782709 0.392391 0.250947 -0.304081
H11   H     H_    0.475633 0.285577 0.071586 0.100313
H12   H     H_    0.308004 0.167103 0.077785 0.103924
H13   H     H_    0.291986 0.054258 0.191326 0.185935
H14   H     H_    0.437596 0.059667 0.300484 0.117076
H15   H     H_    0.802506 0.211691 0.427052 0.156024
H16   H     H_    0.775059 0.445358 0.203990 0.152952
O11   O     O_R   0.770890 0.084490 0.414040 -0.541654
O12   O     O_R   0.445980 0.065450 0.555510 -0.517868
O13   O     O_R   0.270670 0.915620 0.586180 -0.523793
C45   C     C_R   0.616406 0.079382 0.576244 0.744366
O14   O     O_R   0.441480 0.093500 0.412450 -0.548597
O15   O     O_R   0.266140 0.943870 0.442100 -0.543952
C46   C     C_R   0.610407 0.116236 0.384914 0.668130
O16   O     O_R   0.775410 0.056240 0.558120 -0.524847
O17   O     O_3   0.602660 0.950990 0.510100 -0.376860
V3    V     V_3+5 0.329740 0.009100 0.498130 1.499603
O18   O     O_R   0.936120 0.934420 0.444240 -0.543227
C47   C     C_R   0.103449 0.920668 0.423597 0.687234
O19   O     O_R   0.940610 0.906370 0.587310 -0.542831
C48   C     C_R   0.109860 0.884814 0.615529 0.831158
V4    V     V_3+5 0.829110 0.990690 0.501470 1.481112
O20   O     O_3   0.106080 0.049010 0.489880 -0.362855
C49   C     C_3   0.821175 0.253855 0.705123 0.293381
C50   C     C_3   0.458475 0.255642 0.697310 -0.334440
C51   C     C_3   0.469010 0.307623 0.742603 -0.444146
H17   H     H_    0.853715 0.354346 0.736852 0.109219
H18   H     H_    0.325170 0.219140 0.710559 0.192628
H19   H     H_    0.449279 0.292773 0.639252 0.183661
H20   H     H_    0.503470 0.368385 0.706940 0.215074
H21   H     H_    0.325522 0.308905 0.764594 0.216627
C52   C     C_1   0.627217 0.368694 0.884048 -0.208669
C53   C     C_3   0.636091 0.202868 0.712813 0.067859
C54   C     C_3   0.825683 0.290806 0.764584 0.216871
C55   C     C_3   0.624610 0.278516 0.803168 0.060022
C56   C     C_3   0.592276 0.188446 0.846407 0.883480
C57   C     C_3   0.626907 0.145511 0.792095 -0.467782
C58   C     C_1   0.617278 0.327097 0.848831 -0.028454
C59   C     C_1   0.635615 0.159551 0.662960 0.042871
C60   C     C_1   0.629116 0.123571 0.622920 -0.115236
H22   H     H_    0.763796 0.113069 0.804094 0.162987
H23   H     H_    0.510312 0.101644 0.797718 0.221153
H24   H     H_    0.946210 0.214228 0.713387 0.113589
F1    F     F_    0.824905 0.667337 0.238897 -0.644459
F2    F     F_    0.187756 0.909961 0.186090 -0.650132
F3    F     F_    0.351239 0.537591 0.670291 -0.701223
O21   O     O_3   0.032083 0.716163 0.944359 -0.548485
C61   C     C_3   0.831474 0.720888 0.952222 -0.075192
H25   H     H_    0.750712 0.707227 0.909661 0.113548
H26   H     H_    0.788146 0.778558 0.951734 0.122996
H27   H     H_    0.788475 0.677982 0.005136 0.172332
O22   O     O_3   0.116369 0.855917 0.951252 -0.496243
C62   C     C_3   0.002093 0.916990 0.953554 0.028457
H28   H     H_    0.878500 0.930853 0.914752 0.063964
H29   H     H_    0.094849 0.968925 0.945093 0.185672
H30   H     H_    0.939999 0.899823 0.007931 0.151510
F4    F     F_    0.173766 0.985642 0.820271 -0.660236
F5    F     F_    0.151573 0.968684 0.694582 -0.655706
O23   O     O_3   0.301636 0.545459 0.803576 -0.548282
C63   C     C_3   0.167992 0.484322 0.814805 -0.189286
H31   H     H_    0.199494 0.452194 0.779201 0.181030
H32   H     H_    0.015945 0.504228 0.807357 0.098787
H33   H     H_    0.182901 0.443387 0.871087 0.157151
O24   O     O_3   0.895963 0.469725 0.317959 -0.552029
C64   C     C_3   0.733823 0.494681 0.344774 -0.136661
H34   H     H_    0.681297 0.450326 0.395994 0.124856
H35   H     H_    0.615697 0.510925 0.303887 0.143487
H36   H     H_    0.774091 0.546617 0.357093 0.182287
O25   O     O_3   0.957441 0.334629 0.437979 -0.544006
C65   C     C_3   0.157160 0.324567 0.434652 -0.215211
H37   H     H_    0.188952 0.266070 0.434149 0.132853
H38   H     H_    0.227550 0.329081 0.483179 0.144340
H39   H     H_    0.221890 0.370652 0.387080 0.141493
F6    F     F_    0.485740 0.749333 0.187114 -0.569111
O26   O     O_3   0.822636 0.312950 0.635489 -0.551860
C66   C     C_3   0.012937 0.334558 0.612609 -0.201106
H40   H     H_    0.086193 0.286139 0.603668 0.137561
H41   H     H_    0.096294 0.353355 0.651503 0.133974
H42   H     H_    0.008566 0.384452 0.560660 0.200537
O27   O     O_3   0.725100 0.165147 0.905999 -0.558943
C67   C     C_3   0.750100 0.084097 0.938750 -0.280932
H43   H     H_    0.885336 0.069012 0.919124 0.170846
H44   H     H_    0.628346 0.048932 0.929311 0.159630
H45   H     H_    0.766605 0.068656 0.997624 0.172307
O28   O     O_3   0.979390 0.256353 0.813369 -0.536570
C68   C     C_3   0.028637 0.298380 0.857896 -0.168249
H46   H     H_    0.968147 0.268659 0.912221 0.177944
H47   H     H_    0.979710 0.358836 0.836548 0.079729
H48   H     H_    0.186202 0.300784 0.864446 0.140096
O29   O     O_3   0.396107 0.173455 0.868782 -0.551135
C69   C     C_3   0.364778 0.166756 0.940534 -0.161969
H49   H     H_    0.431965 0.215332 0.952884 0.119410
H50   H     H_    0.413643 0.110138 0.979394 0.161589
H51   H     H_    0.207957 0.167165 0.948899 0.162976
F7    F     F_    0.206395 0.832888 0.105309 -0.571622

loop_
_geom_bond_atom_site_label_1
_geom_bond_atom_site_label_2
_ccdc_geom_bond_type
C36   C40   A    
C65   H39   S    
O18   V4    S    
V4    O20   S    
C9    C15   S    
C45   C60   S    
C21   C22   A    
C7    H4    S    
C6    C9    S    
C1    O6    A    
C4    C16   S    
O17   V3    S    
C35   C36   A    
C65   H37   S    
C31   C32   A    
C13   F7    S    
C56   O27   S    
C56   C57   S    
C19   F4    S    
O12   C45   A    
C49   C54   S    
C38   C41   A    
C5    C9    S    
C25   C30   A    
C11   C12   S    
O24   C64   S    
O16   V4    S    
C66   H41   S    
O27   C67   S    
C18   C19   A    
V3    O20   S    
C35   C37   A    
C32   H12   S    
C56   O29   S    
V2    O10   S    
C1    C40   S    
C34   C35   A    
C6    C7    S    
C22   C26   A    
C68   H48   S    
C17   C22   A    
C62   H28   S    
O11   V4    S    
C17   O21   S    
C51   H21   S    
C18   O22   S    
O8    V2    S    
C39   C44   A    
C44   H16   S    
O18   C47   A    
C8    C47   S    
C68   H46   S    
C64   H35   S    
O1    V2    S    
C51   C55   S    
C12   C13   S    
O7    V1    S    
C24   C27   A    
C29   F3    S    
C61   H27   S    
O19   V4    S    
C37   C38   A    
O1    C2    A    
O9    C4    A    
C21   C23   A    
C6    F6    S    
O12   V3    S    
C59   C60   T    
C50   H19   S    
C67   H44   S    
O14   C46   A    
C54   O28   S    
C42   O25   S    
C13   H6    S    
C5    C10   S    
C27   C28   A    
C12   F2    S    
C30   O23   S    
O26   C66   S    
C3    C26   S    
C66   H42   S    
C37   C46   S    
C19   C20   A    
O4    C2    A    
C27   H9    S    
O19   C48   A    
C55   C58   S    
C5    H2    S    
C38   C39   A    
C62   H30   S    
O2    C1    A    
C23   C24   A    
C17   C18   A    
O15   C47   A    
C63   H33   S    
C67   H45   S    
O15   V3    S    
O13   C48   A    
C54   C55   S    
C31   C36   A    
C49   O26   S    
C33   C34   A    
O11   C46   A    
C57   H23   S    
O17   V4    S    
C7    C11   S    
C52   C58   T    
O3    C4    A    
C28   C29   A    
C41   H15   S    
C9    C13   S    
O6    V2    S    
C34   H14   S    
O9    V2    S    
C63   H31   S    
C64   H36   S    
O2    V1    S    
C10   C11   S    
C24   C25   A    
C50   H18   S    
C61   H25   S    
C65   H38   S    
C20   F5    S    
C32   C33   A    
C69   H49   S    
C2    C52   S    
C6    H3    S    
C23   C48   S    
C7    H5    S    
C8    C14   T    
C11   C14   S    
C45   O16   A    
C5    F1    S    
O5    V1    S    
C43   O24   S    
O8    C3    A    
O13   V3    S    
O25   C65   S    
H1    C10   S    
C69   H51   S    
C10   H8    S    
O21   C61   S    
C12   H7    S    
C49   C53   S    
C15   C16   T    
C33   H13   S    
C69   H50   S    
C64   H34   S    
O7    V2    S    
O4    V1    S    
C43   C44   A    
O3    V1    S    
C53   C57   S    
C66   H40   S    
C42   C43   A    
O5    C3    A    
C50   C51   S    
V1    O10   S    
O14   V3    S    
C53   C59   S    
C49   H24   S    
C55   C56   S    
C57   H22   S    
C67   H43   S    
C68   H47   S    
C39   C40   A    
C31   H11   S    
C62   H29   S    
C51   H20   S    
C41   C42   A    
C25   C26   A    
C28   H10   S    
C29   C30   A    
O29   C69   S    
C63   H32   S    
O28   C68   S    
C20   C21   A    
O22   C62   S    
C50   C53   S    
H17   C54   S    
O23   C63   S    
C61   H26   S    
