data_mof_unit_38882.cif
_audit_creation_date              2012-12-10T17:35:50-0500
_audit_creation_method            fapswitch 2.2
_symmetry_space_group_name_H-M    P1
_symmetry_Int_Tables_number       1
_space_group_crystal_system       triclinic
_cell_length_a                    10.509177
_cell_length_b                    11.95698
_cell_length_c                    12.764315
_cell_angle_alpha                 94.182597
_cell_angle_beta                  89.42014
_cell_angle_gamma                 85.865148
_cell_volume                      1595.31227563

loop_
_atom_site_label
_atom_site_type_symbol
_atom_type_description
_atom_site_fract_x
_atom_site_fract_y
_atom_site_fract_z
_atom_type_partial_charge
C1    C     C_R   0.488885 0.523313 0.701491 0.875214
C2    C     C_R   0.608116 0.161968 0.587154 0.025335
C3    C     C_R   0.551125 0.858322 0.541944 -0.066396
C4    C     C_R   0.448594 0.141710 0.458319 -0.068573
C5    C     C_R   0.543179 0.975776 0.535273 0.096557
C6    C     C_R   0.456824 0.024231 0.464784 0.099593
C7    C     C_R   0.742633 0.499933 0.499728 0.885230
C8    C     C_R   0.257473 0.500502 0.502503 0.893561
C9    C     C_3   0.959253 0.464839 0.593636 0.174763
C10   C     C_3   0.040732 0.537064 0.412386 0.178235
C11   C     C_3   0.033134 0.570322 0.583908 0.172859
C12   C     C_R   0.519988 0.476544 0.300112 0.886778
C13   C     C_3   0.967565 0.431429 0.422080 0.171796
C14   C     C_3   0.122817 0.501592 0.504207 -0.162588
C15   C     C_3   0.877319 0.499904 0.501322 -0.159072
C16   C     C_3   0.050733 0.395291 0.514399 -0.239158
C17   C     C_3   0.949446 0.606577 0.491817 -0.239874
C18   C     C_R   0.555140 0.459233 0.188608 -0.177861
C19   C     C_R   0.483377 0.538982 0.815798 -0.163143
C20   C     C_R   0.525978 0.652323 0.974224 0.185929
C21   C     C_R   0.559003 0.343141 0.024592 0.179841
C22   C     C_R   0.475976 0.645602 0.871833 0.124515
C23   C     C_R   0.501897 0.441481 0.868407 -0.302846
C24   C     C_R   0.581206 0.351705 0.134275 0.109246
C25   C     C_3   0.080108 0.652115 0.670539 -0.385941
C26   C     C_3   0.970049 0.712350 0.735999 -0.888208
C27   C     C_3   0.927816 0.347104 0.334870 -0.386805
C28   C     C_3   0.043653 0.291237 0.273066 -0.888173
C29   C     C_3   0.903267 0.418809 0.691717 -0.382724
C30   C     C_3   0.005968 0.386965 0.769942 -0.881527
C31   C     C_3   0.094074 0.584863 0.314160 -0.378916
C32   C     C_3   0.989550 0.614737 0.236689 -0.890042
C33   C     C_3   0.632004 0.249689 0.192279 -0.371843
C34   C     C_R   0.554801 0.556046 0.134556 -0.302149
C35   C     C_3   0.756088 0.190220 0.145811 -0.913733
C36   C     C_3   0.402192 0.746932 0.828738 -0.394163
C37   C     C_3   0.288996 0.791485 0.900182 -0.922975
C38   C     C_3   0.564220 0.764870 0.024695 -0.431811
C39   C     C_3   0.707963 0.762504 0.043299 -0.883470
C40   C     C_3   0.553525 0.227903 0.964678 -0.386392
C41   C     C_3   0.668719 0.198435 0.890184 -0.875394
C42   C     C_R   0.534068 0.444501 0.973110 0.061964
C43   C     C_R   0.543751 0.551318 0.026803 0.082464
C44   C     C_R   0.381311 0.954318 0.402806 -0.341538
C45   C     C_R   0.619277 0.045639 0.596754 -0.337076
C46   C     C_R   0.392835 0.837926 0.412014 0.019648
H1    H     H_    0.095692 0.309803 0.524104 0.162550
H2    H     H_    0.686858 0.010765 0.651356 0.141343
H3    H     H_    0.900738 0.755952 0.684824 0.255239
H4    H     H_    0.920383 0.652050 0.780812 0.262932
H5    H     H_    0.007839 0.775903 0.792946 0.250599
H6    H     H_    0.146659 0.606134 0.722119 0.196397
H7    H     H_    0.133645 0.716029 0.633459 0.214732
H8    H     H_    0.087651 0.352462 0.225485 0.262739
H9    H     H_    0.115861 0.255793 0.326847 0.255453
H10   H     H_    0.014364 0.221554 0.218733 0.248151
H11   H     H_    0.876844 0.281156 0.371239 0.212907
H12   H     H_    0.904379 0.692132 0.482616 0.162586
H13   H     H_    0.861175 0.389986 0.281288 0.205483
H14   H     H_    0.080249 0.326339 0.731595 0.258328
H15   H     H_    0.051064 0.462589 0.802703 0.263412
H16   H     H_    0.961913 0.347032 0.835877 0.250582
H17   H     H_    0.831720 0.481961 0.730071 0.201514
H18   H     H_    0.853410 0.342611 0.667209 0.206169
H19   H     H_    0.947106 0.538054 0.203268 0.264688
H20   H     H_    0.913475 0.672903 0.275828 0.260129
H21   H     H_    0.031134 0.656842 0.171026 0.251452
H22   H     H_    0.141554 0.662334 0.338765 0.206492
H23   H     H_    0.550179 0.636736 0.178570 0.193471
H24   H     H_    0.167185 0.523686 0.275204 0.199454
H25   H     H_    0.737676 0.122618 0.085252 0.267742
H26   H     H_    0.817685 0.251417 0.113327 0.273365
H27   H     H_    0.809168 0.147447 0.208201 0.246974
H28   H     H_    0.659469 0.275043 0.273164 0.236115
H29   H     H_    0.557467 0.188942 0.197485 0.193309
H30   H     H_    0.225538 0.722984 0.912287 0.267951
H31   H     H_    0.320070 0.826456 0.977681 0.257055
H32   H     H_    0.233049 0.859580 0.862506 0.253926
H33   H     H_    0.466233 0.814474 0.815177 0.198947
H34   H     H_    0.490901 0.362252 0.825291 0.196417
H35   H     H_    0.357471 0.725029 0.752762 0.234200
H36   H     H_    0.738848 0.699758 0.099435 0.268258
H37   H     H_    0.761074 0.741962 0.967825 0.260981
H38   H     H_    0.732927 0.846495 0.076312 0.250898
H39   H     H_    0.542466 0.835035 0.974397 0.219865
H40   H     H_    0.510095 0.788690 0.099014 0.194723
H41   H     H_    0.759841 0.209026 0.931288 0.264756
H42   H     H_    0.667561 0.109686 0.858016 0.242277
H43   H     H_    0.667540 0.252352 0.823340 0.250345
H44   H     H_    0.546512 0.159856 0.018139 0.208271
H45   H     H_    0.382817 0.180701 0.404725 0.123899
H46   H     H_    0.463476 0.224101 0.920325 0.182711
H47   H     H_    0.616668 0.819354 0.595733 0.124343
H48   H     H_    0.667371 0.215944 0.633752 0.123290
H49   H     H_    0.334815 0.783843 0.364175 0.125645
H50   H     H_    0.314209 0.989181 0.347834 0.141042
N1    N     N_R   0.523490 0.207800 0.519350 -0.101476
N2    N     N_R   0.476510 0.792200 0.480650 -0.100013
O1    O     O_R   0.506270 0.421700 0.658830 -0.621910
O2    O     O_R   0.493730 0.578300 0.341170 -0.621174
O3    O     O_R   0.491200 0.609310 0.646410 -0.633256
O4    O     O_R   0.508800 0.390690 0.353590 -0.637429
O5    O     O_R   0.693580 0.406210 0.506230 -0.642800
O6    O     O_R   0.306420 0.593790 0.493770 -0.638692
O7    O     O_R   0.678510 0.593830 0.493810 -0.617648
O8    O     O_R   0.321490 0.406170 0.506190 -0.615453
Zn1   Zn    Zn3+2 0.510060 0.374730 0.508290 0.915658
Zn2   Zn    Zn3+2 0.489940 0.625270 0.491710 0.918947

loop_
_geom_bond_atom_site_label_1
_geom_bond_atom_site_label_2
_ccdc_geom_bond_type
C41   H43   S    
C29   H17   S    
C8    O6    A    
C1    O1    A    
C28   H10   S    
C23   C42   A    
C38   H40   S    
C18   C24   A    
C36   C37   S    
C9    C16   S    
C25   H7    S    
C39   H38   S    
C26   H4    S    
C38   C39   S    
C11   C14   S    
O8    Zn1   S    
C11   C25   S    
C10   C17   S    
N2    Zn2   S    
C10   C31   S    
C33   H29   S    
C31   H24   S    
C35   H27   S    
C46   H49   S    
C2    N1    A    
C30   H14   S    
C7    O7    A    
C23   H34   S    
C9    C29   S    
C17   H12   S    
C4    H45   S    
O3    Zn2   S    
C7    C15   S    
C46   N2    A    
C29   H18   S    
C35   H25   S    
C7    O5    A    
C4    N1    A    
C16   H1    S    
C28   H9    S    
C44   C46   A    
C18   C34   A    
C2    C45   A    
C31   H22   S    
C41   H41   S    
O7    Zn2   S    
O2    Zn2   S    
C1    C19   S    
C38   H39   S    
C2    H48   S    
C19   C22   A    
C4    C6    A    
C10   C14   S    
C26   H3    S    
C28   H8    S    
C25   C26   S    
C5    C45   A    
C10   C13   S    
C19   C23   A    
C12   O4    A    
C29   C30   S    
C44   H50   S    
C20   C38   S    
C31   C32   S    
C36   H35   S    
O4    Zn1   S    
C3    H47   S    
C40   H46   S    
C9    C11   S    
C34   H23   S    
C32   H21   S    
C40   C41   S    
C37   H30   S    
C20   C22   A    
C35   H26   S    
C13   C15   S    
C27   H11   S    
C14   C16   S    
C13   C16   S    
C42   C43   A    
C21   C24   A    
C1    O3    A    
O6    Zn2   S    
C20   C43   A    
O1    Zn1   S    
C6    C44   A    
C32   H20   S    
C45   H2    S    
C15   C17   S    
C41   H42   S    
C11   C17   S    
C8    C14   S    
C34   C43   A    
C39   H36   S    
C3    C5    A    
C36   H33   S    
C8    O8    A    
C22   C36   S    
C37   H32   S    
C24   C33   S    
C30   H16   S    
C9    C15   S    
C25   H6    S    
C39   H37   S    
C27   H13   S    
C26   H5    S    
C3    N2    A    
C5    C6    A    
C21   C40   S    
C37   H31   S    
C33   C35   S    
C12   O2    A    
C21   C42   A    
N1    Zn1   S    
C33   H28   S    
C30   H15   S    
C12   C18   S    
C27   C28   S    
C13   C27   S    
O5    Zn1   S    
C40   H44   S    
C32   H19   S    
