data_mof_unit_16194.cif
_audit_creation_date              2013-03-05T15:41:47-0500
_audit_creation_method            fapswitch 2.2
_symmetry_space_group_name_H-M    P1
_symmetry_Int_Tables_number       1
_space_group_crystal_system       triclinic
_cell_length_a                    19.34909
_cell_length_b                    8.669989
_cell_length_c                    7.522659
_cell_angle_alpha                 102.416569
_cell_angle_beta                  96.096325
_cell_angle_gamma                 93.422312
_cell_volume                      1221.05316554

loop_
_atom_site_label
_atom_site_type_symbol
_atom_site_description
_atom_site_fract_x
_atom_site_fract_y
_atom_site_fract_z
_atom_type_partial_charge
O1    O     O_R   0.505010 0.286130 0.619770 -0.563115
O2    O     O_R   0.494990 0.713870 0.380230 -0.563114
O3    O     O_R   0.491990 0.256780 0.308370 -0.534520
O4    O     O_R   0.508010 0.743220 0.691630 -0.534520
C1    C     C_R   0.496184 0.200042 0.454122 0.869795
C2    C     C_R   0.503816 0.799958 0.545879 0.869795
O5    O     O_R   0.406650 0.514660 0.655750 -0.553500
O6    O     O_R   0.593350 0.485340 0.344250 -0.553500
O7    O     O_R   0.393640 0.485310 0.344340 -0.617996
O8    O     O_R   0.606360 0.514690 0.655660 -0.617996
C3    C     C_R   0.367252 0.498216 0.498729 0.777443
C4    C     C_R   0.632748 0.501784 0.501271 0.777443
Cu1   Cu    Cu3+1 0.507710 0.517380 0.684380 1.105800
Cu2   Cu    Cu3+1 0.492290 0.482620 0.315620 1.105800
C5    C     C_R   0.264470 0.549208 0.665869 -0.091767
C6    C     C_R   0.735530 0.450792 0.334131 -0.091767
H1    H     H_    0.300506 0.593502 0.789418 0.196719
H2    H     H_    0.699494 0.406498 0.210582 0.196719
C7    C     C_R   0.192661 0.545473 0.678485 0.010533
C8    C     C_R   0.807339 0.454527 0.321515 0.010532
C9    C     C_R   0.145676 0.486779 0.517836 -0.057280
C10   C     C_R   0.854324 0.513221 0.482164 -0.057280
C11   C     C_R   0.171134 0.429782 0.351077 -0.087200
C12   C     C_R   0.828866 0.570218 0.648923 -0.087199
H3    H     H_    0.134550 0.387063 0.227974 0.176605
H4    H     H_    0.865450 0.612937 0.772026 0.176605
C13   C     C_R   0.242605 0.434884 0.337218 -0.020147
C14   C     C_R   0.757395 0.565116 0.662782 -0.020147
C15   C     C_R   0.290525 0.495559 0.497630 -0.137323
C16   C     C_R   0.709475 0.504441 0.502370 -0.137323
N1    N     N_R   0.026274 0.369024 0.411427 -0.200028
N2    N     N_R   0.973725 0.630976 0.588573 -0.200028
N3    N     N_R   0.957566 0.376661 0.398629 -0.217029
N4    N     N_R   0.042434 0.623339 0.601371 -0.217029
C17   C     C_R   0.930128 0.508390 0.485568 0.381396
C18   C     C_R   0.069872 0.491610 0.514432 0.381396
C19   C     C_2   0.488671 0.032193 0.431186 -0.277659
C20   C     C_2   0.511329 0.967807 0.568814 -0.277660
H5    H     H_    0.462247 0.961702 0.302494 0.218634
H6    H     H_    0.537753 0.038298 0.697506 0.218634
N5    N     N_2   0.480680 0.456420 0.038530 0.011361
N6    N     N_2   0.519320 0.543580 0.961470 0.011361
C21   C     C_2   0.168075 0.596646 0.860965 0.408721
H7    H     H_    0.114907 0.565028 0.881395 0.092110
O9    O     O_2   0.207265 0.674032 0.991903 -0.541546
C22   C     C_2   0.831925 0.403354 0.139035 0.408721
H8    H     H_    0.885093 0.434972 0.118605 0.092110
O10   O     O_2   0.792735 0.325968 0.008097 -0.541546
C23   C     C_2   0.263598 0.378213 0.151877 0.451034
H9    H     H_    0.304424 0.442755 0.103073 0.138165
O11   O     O_2   0.232726 0.261055 0.047296 -0.501707
C24   C     C_2   0.736402 0.621787 0.848123 0.451034
H10   H     H_    0.695576 0.557245 0.896927 0.138165
O12   O     O_2   0.767274 0.738945 0.952704 -0.501707
N7    N     N_R   0.451206 0.313454 0.928901 0.253563
O13   O     O_R   0.479298 0.184164 0.945586 -0.332726
O14   O     O_R   0.386276 0.302301 0.858765 -0.358338
N8    N     N_R   0.548793 0.686547 0.071098 0.253563
O15   O     O_R   0.520701 0.815835 0.054414 -0.332726
O16   O     O_R   0.613724 0.697700 0.141235 -0.358338

loop_
_geom_bond_atom_site_label_1
_geom_bond_atom_site_label_2
_geom_bond_distance
_ccdc_geom_bond_type
C20   H6    1.084100 S    
O7    Cu2   1.944591 S    
N1    N3    1.329351 A    
C5    C15   1.408062 A    
C19   C20   1.325554 D    
C11   C13   1.396620 A    
O6    C4    1.311511 A    
C13   C15   1.422588 A    
O7    C3    1.303450 A    
N5    N6    1.295786 D    
C6    C8    1.401635 A    
C21   H7    1.084037 S    
C4    C16   1.482519 S    
N6    N8    1.384873 S    
N7    O13   1.298636 A    
C9    C11   1.397948 A    
O3    C1    1.291727 A    
C19   H5    1.084100 S    
C9    C18   1.467515 S    
Cu1   Cu2   2.707246 S    
C5    C7    1.401633 A    
C10   C17   1.467515 S    
C14   C24   1.483196 S    
N2    N4    1.329351 A    
O2    C2    1.295637 A    
O3    Cu2   1.946675 S    
O8    C4    1.303450 A    
Cu2   N5    2.034169 S    
O1    C1    1.295636 A    
C14   C16   1.422588 A    
Cu1   N6    2.034169 S    
C7    C9    1.411688 A    
C24   O12   1.221316 D    
O5    C3    1.311510 A    
N8    O16   1.299574 A    
N4    C18   1.356047 A    
N7    O14   1.299572 A    
O2    Cu2   1.954935 S    
C10   C12   1.397948 A    
O1    Cu1   1.954935 S    
C1    C19   1.424811 S    
C8    C10   1.411687 A    
C6    C16   1.408062 A    
N2    C17   1.357048 A    
C12   C14   1.396620 A    
O5    Cu1   1.942541 S    
C11   H3    1.085270 S    
C24   H10   1.081247 S    
C3    C15   1.482519 S    
O4    C2    1.291727 A    
C23   H9    1.081247 S    
O4    Cu1   1.946675 S    
C5    H1    1.083678 S    
C22   H8    1.084039 S    
N5    N7    1.384874 S    
O6    Cu2   1.942541 S    
N3    C17   1.356047 A    
N8    O15   1.298636 A    
N1    C18   1.357048 A    
C2    C20   1.424811 S    
C21   O9    1.221394 D    
C22   O10   1.221394 D    
C6    H2    1.083679 S    
C8    C22   1.486456 S    
C13   C23   1.483195 S    
C12   H4    1.085270 S    
C23   O11   1.221316 D    
O8    Cu1   1.944589 S    
C7    C21   1.486456 S    
