data_mof_unit_65787.cif
_audit_creation_date              2012-12-10T18:09:18-0500
_audit_creation_method            fapswitch 2.2
_symmetry_space_group_name_H-M    P1
_symmetry_Int_Tables_number       1
_space_group_crystal_system       triclinic
_cell_length_a                    18.369292
_cell_length_b                    18.373747
_cell_length_c                    21.431989
_cell_angle_alpha                 90.001734
_cell_angle_beta                  90.001649
_cell_angle_gamma                 90.003913
_cell_volume                      7233.56896017

loop_
_atom_site_label
_atom_site_type_symbol
_atom_type_description
_atom_site_fract_x
_atom_site_fract_y
_atom_site_fract_z
_atom_type_partial_charge
C1    C     C_R   0.500019 0.139886 0.499999 0.838860
C2    C     C_R   0.500015 0.860111 0.500001 0.834657
C3    C     C_R   0.000019 0.639886 0.999999 0.838860
C4    C     C_R   0.000015 0.360111 0.000000 0.834658
C5    C     C_1   0.500033 0.282711 0.499998 -0.172839
C6    C     C_1   0.500025 0.717281 0.500002 -0.176263
C7    C     C_1   0.000034 0.782711 0.999998 -0.172839
C8    C     C_1   0.000025 0.217281 0.000002 -0.176263
C9    C     C_R   0.639856 0.000007 1.000000 0.836315
C10   C     C_R   0.139856 0.500007 0.499999 0.836297
C11   C     C_R   0.499956 0.000010 0.879550 0.805399
C12   C     C_R   0.499941 0.000012 0.120450 0.805404
C13   C     C_R   0.999939 0.500010 0.379550 0.805399
C14   C     C_R   0.999953 0.500012 0.620450 0.805404
C15   C     C_R   0.360039 0.000003 0.000000 0.836358
C16   C     C_R   0.860039 0.500003 0.500001 0.836377
C17   C     C_R   0.639725 0.500008 0.500001 0.839827
C18   C     C_R   0.139725 0.000008 0.000001 0.839822
C19   C     C_R   0.500021 0.360264 0.499999 0.839764
C20   C     C_R   0.500019 0.639732 0.500001 0.839046
C21   C     C_R   0.000021 0.860264 0.999999 0.839764
C22   C     C_R   0.000019 0.139732 0.000001 0.839046
C23   C     C_R   0.360269 0.500011 0.499999 0.839543
C24   C     C_R   0.860269 0.000011 0.999999 0.839549
C25   C     C_1   0.717399 0.000023 0.999999 -0.189374
C26   C     C_1   0.217399 0.500023 0.499998 -0.189382
C27   C     C_1   0.282706 0.500024 0.499998 -0.174656
C28   C     C_1   0.782706 0.000024 0.999998 -0.174656
C29   C     C_1   0.282534 0.000012 0.000001 -0.189401
C30   C     C_1   0.782534 0.500012 0.500002 -0.189393
C31   C     C_R   0.500019 0.997816 0.620451 0.794671
C32   C     C_R   0.500011 0.997814 0.379549 0.794668
C33   C     C_R   0.000012 0.497814 0.120450 0.794670
C34   C     C_R   0.000016 0.497816 0.879549 0.794673
C35   C     C_1   0.717250 0.500015 0.500002 -0.174678
C36   C     C_1   0.217250 0.000015 0.000002 -0.174676
C37   C     C_3   0.560102 0.964515 0.730387 0.139298
C38   C     C_3   0.559739 0.963941 0.269612 0.139279
C39   C     C_3   0.440317 0.963810 0.269635 0.139300
C40   C     C_3   0.440687 0.963230 0.730359 0.139283
C41   C     C_3   0.059660 0.463795 0.230389 0.139266
C42   C     C_3   0.060034 0.464420 0.769614 0.139294
C43   C     C_3   0.940617 0.463336 0.769635 0.139287
C44   C     C_3   0.940239 0.463942 0.230358 0.139309
C45   C     C_3   0.500744 0.929869 0.771889 -0.224649
C46   C     C_3   0.500050 0.929871 0.228106 -0.224651
C47   C     C_3   0.999892 0.429864 0.271889 -0.224648
C48   C     C_3   0.000619 0.429875 0.728107 -0.224661
C49   C     C_3   0.499985 0.000140 0.811191 -0.174610
C50   C     C_3   0.499965 0.000148 0.188809 -0.174614
C51   C     C_3   0.999966 0.500140 0.311191 -0.174610
C52   C     C_3   0.999979 0.500148 0.688809 -0.174616
C53   C     C_3   0.559916 0.034604 0.770193 0.155078
C54   C     C_3   0.560228 0.034031 0.229809 0.155180
C55   C     C_3   0.439658 0.033899 0.229833 0.155196
C56   C     C_3   0.439353 0.033309 0.770170 0.155296
C57   C     C_3   0.060311 0.533884 0.270199 0.155199
C58   C     C_3   0.059967 0.534510 0.729813 0.155102
C59   C     C_3   0.939403 0.533418 0.729829 0.155286
C60   C     C_3   0.939741 0.534031 0.270164 0.155178
C61   C     C_3   0.499277 0.068014 0.728816 0.120819
C62   C     C_3   0.499920 0.068023 0.271190 0.120821
C63   C     C_3   0.000085 0.568016 0.228816 0.120826
C64   C     C_3   0.999384 0.568020 0.771189 0.120830
C65   C     C_3   0.500042 0.997605 0.688980 -0.202757
C66   C     C_3   0.500007 0.997607 0.311020 -0.202754
C67   C     C_3   0.000008 0.497602 0.188980 -0.202757
C68   C     C_3   0.000030 0.497609 0.811020 -0.202755
C69   C     C_1   0.500035 0.217416 0.499998 -0.190888
C70   C     C_1   0.500025 0.782577 0.500002 -0.189888
C71   C     C_1   0.000036 0.717416 0.999998 -0.190887
C72   C     C_1   0.000025 0.282577 0.000002 -0.189888
Cu1   Cu    Cu3+1 0.427480 1.000000 0.500000 0.924603
Cu2   Cu    Cu3+1 0.927480 0.500000 0.000000 0.924595
Cu3   Cu    Cu3+1 0.572540 1.000000 0.500000 0.924562
Cu4   Cu    Cu3+1 0.072540 0.500000 0.000000 0.924568
Cu5   Cu    Cu3+1 0.499930 0.927480 0.000000 0.941821
Cu6   Cu    Cu3+1 0.499930 0.072520 0.000000 0.922065
Cu7   Cu    Cu3+1 0.999930 0.427480 0.500000 0.941820
Cu8   Cu    Cu3+1 0.999930 0.572520 0.500000 0.922066
Cu9   Cu    Cu3+1 0.500000 0.500000 0.562750 0.953007
Cu10  Cu    Cu3+1 0.500000 0.500000 0.437250 0.953005
Cu11  Cu    Cu3+1 0.000000 0.000000 0.062750 0.953006
Cu12  Cu    Cu3+1 0.000000 0.000000 0.937250 0.953005
H1    H     H_    0.501335 0.873701 0.790974 0.163037
H2    H     H_    0.500102 0.873701 0.209016 0.163042
H3    H     H_    0.999815 0.373693 0.290975 0.163039
H4    H     H_    0.001116 0.373707 0.709018 0.163044
O1    O     O_R   0.438760 0.105810 0.500000 -0.581934
O2    O     O_R   0.438760 0.894190 0.500000 -0.586957
O3    O     O_R   0.938760 0.605810 0.000000 -0.581924
O4    O     O_R   0.938760 0.394190 0.000000 -0.586957
O5    O     O_R   0.394180 0.500000 0.553000 -0.584546
O6    O     O_R   0.394180 0.500000 0.447000 -0.584551
O7    O     O_R   0.894180 1.000000 0.053000 -0.584542
O8    O     O_R   0.894180 1.000000 0.947000 -0.584546
O9    O     O_R   0.561260 0.105780 0.500000 -0.581807
O10   O     O_R   0.561260 0.894220 0.500000 -0.586874
O11   O     O_R   0.061260 0.605780 0.000000 -0.581817
O12   O     O_R   0.061260 0.394220 0.000000 -0.586875
O13   O     O_R   0.438760 1.000000 0.591570 -0.594449
O14   O     O_R   0.438760 1.000000 0.408430 -0.594493
O15   O     O_R   0.938760 0.500000 0.091570 -0.594508
O16   O     O_R   0.938760 0.500000 0.908430 -0.594457
O17   O     O_R   0.561260 0.000000 0.591560 -0.594496
O18   O     O_R   0.561260 1.000000 0.408440 -0.594449
O19   O     O_R   0.061260 0.500000 0.091560 -0.594436
O20   O     O_R   0.061260 0.500000 0.908440 -0.594490
O21   O     O_R   0.605760 0.938760 0.000000 -0.580959
O22   O     O_R   0.605760 0.061240 0.000000 -0.587066
O23   O     O_R   0.105760 0.438760 0.500000 -0.580963
O24   O     O_R   0.105760 0.561240 0.500000 -0.587054
O25   O     O_R   0.499930 0.938760 0.908410 -0.584426
O26   O     O_R   0.499930 0.938760 0.091590 -0.584427
O27   O     O_R   0.499930 0.061240 0.091590 -0.601517
O28   O     O_R   0.499930 0.061240 0.908410 -0.601521
O29   O     O_R   0.999930 0.438760 0.408410 -0.584426
O30   O     O_R   0.999930 0.438760 0.591590 -0.584427
O31   O     O_R   0.999930 0.561240 0.591590 -0.601519
O32   O     O_R   0.999930 0.561240 0.408410 -0.601518
O33   O     O_R   0.394110 0.938740 0.000000 -0.581007
O34   O     O_R   0.394110 0.061260 0.000000 -0.587020
O35   O     O_R   0.894110 0.438740 0.500000 -0.581004
O36   O     O_R   0.894110 0.561260 0.500000 -0.587031
O37   O     O_R   0.605830 0.500000 0.552990 -0.584613
O38   O     O_R   0.605830 0.500000 0.447010 -0.584607
O39   O     O_R   0.105830 1.000000 0.052990 -0.584616
O40   O     O_R   0.105830 1.000000 0.947010 -0.584613
O41   O     O_R   0.500010 0.394180 0.552980 -0.585197
O42   O     O_R   0.500010 0.394180 0.447020 -0.585203
O43   O     O_R   0.500010 0.605820 0.447020 -0.584748
O44   O     O_R   0.500010 0.605820 0.552980 -0.584750
O45   O     O_R   0.000010 0.894180 0.052980 -0.585200
O46   O     O_R   0.000010 0.894180 0.947020 -0.585202
O47   O     O_R   0.000010 0.105820 0.947020 -0.584747
O48   O     O_R   0.000010 0.105820 0.052980 -0.584750
C73   C     C_3   0.624538 0.920910 0.704584 -0.359889
C74   C     C_3   0.671088 0.887787 0.756249 -0.843791
H5    H     H_    0.697897 0.930953 0.784073 0.256245
H6    H     H_    0.637419 0.853264 0.787467 0.252124
H7    H     H_    0.714155 0.853284 0.735129 0.242278
H8    H     H_    0.602929 0.876205 0.674987 0.198381
H9    H     H_    0.658830 0.956238 0.674678 0.214706
C75   C     C_3   0.623736 0.919723 0.295451 -0.360231
C76   C     C_3   0.670013 0.886169 0.243811 -0.843413
H10   H     H_    0.636034 0.852019 0.212535 0.252153
H11   H     H_    0.697299 0.929086 0.216046 0.256236
H12   H     H_    0.712698 0.851211 0.264951 0.242197
H13   H     H_    0.658336 0.954719 0.325388 0.214669
H14   H     H_    0.601677 0.875222 0.325026 0.198185
C77   C     C_3   0.376426 0.919452 0.295499 -0.360253
C78   C     C_3   0.330187 0.885795 0.243878 -0.843361
H15   H     H_    0.302788 0.928650 0.216128 0.256224
H16   H     H_    0.364219 0.851726 0.212585 0.252162
H17   H     H_    0.287593 0.850736 0.265035 0.242192
H18   H     H_    0.398594 0.875001 0.325067 0.198145
H19   H     H_    0.341771 0.954373 0.325448 0.214682
C79   C     C_3   0.377245 0.918267 0.704449 -0.360592
C80   C     C_3   0.331282 0.884173 0.756034 -0.842988
H20   H     H_    0.365618 0.850474 0.787380 0.252188
H21   H     H_    0.303409 0.926766 0.783733 0.256218
H22   H     H_    0.289077 0.848668 0.734847 0.242109
H23   H     H_    0.342287 0.952854 0.674474 0.214639
H24   H     H_    0.399863 0.874029 0.674893 0.197956
C81   C     C_3   0.123550 0.419432 0.204540 -0.360310
C82   C     C_3   0.169766 0.385775 0.256170 -0.843313
H25   H     H_    0.197168 0.428630 0.283925 0.256231
H26   H     H_    0.135716 0.351714 0.287458 0.252157
H27   H     H_    0.212357 0.350709 0.235023 0.242187
H28   H     H_    0.101383 0.374981 0.174965 0.198140
H29   H     H_    0.158221 0.454349 0.174598 0.214651
C83   C     C_3   0.124392 0.420705 0.795423 -0.359942
C84   C     C_3   0.170898 0.387513 0.743762 -0.843726
H30   H     H_    0.137175 0.353063 0.712523 0.252130
H31   H     H_    0.197795 0.430639 0.715958 0.256239
H32   H     H_    0.213893 0.352924 0.764884 0.242273
H33   H     H_    0.158738 0.455973 0.825341 0.214703
H34   H     H_    0.102704 0.376033 0.825010 0.198345
C85   C     C_3   0.877095 0.418476 0.795527 -0.360541
C86   C     C_3   0.831082 0.384469 0.743928 -0.843044
H35   H     H_    0.803286 0.427113 0.716230 0.256221
H36   H     H_    0.865363 0.350714 0.712583 0.252185
H37   H     H_    0.788812 0.349034 0.765103 0.242113
H38   H     H_    0.899633 0.374196 0.825079 0.197985
H39   H     H_    0.842191 0.453118 0.825502 0.214640
C87   C     C_3   0.876245 0.419728 0.204494 -0.360177
C88   C     C_3   0.829938 0.386172 0.256114 -0.843467
H40   H     H_    0.863895 0.352009 0.287392 0.252156
H41   H     H_    0.802655 0.429087 0.283880 0.256235
H42   H     H_    0.787250 0.351225 0.234956 0.242202
H43   H     H_    0.841663 0.454728 0.174551 0.214698
H44   H     H_    0.898308 0.375229 0.174920 0.198190
C89   C     C_3   0.625188 0.073013 0.800551 -0.370523
C90   C     C_3   0.680316 0.101349 0.753224 -0.837108
H45   H     H_    0.704565 0.055993 0.726326 0.253719
H46   H     H_    0.654748 0.140586 0.720727 0.255278
H47   H     H_    0.724908 0.129785 0.778296 0.241997
H48   H     H_    0.605274 0.119079 0.829301 0.208561
H49   H     H_    0.652780 0.034621 0.832769 0.192010
C91   C     C_3   0.625865 0.071786 0.199432 -0.370940
C92   C     C_3   0.681237 0.099675 0.246747 -0.836696
H50   H     H_    0.656070 0.139349 0.279085 0.255215
H51   H     H_    0.704907 0.054157 0.273820 0.253700
H52   H     H_    0.726201 0.127486 0.221650 0.242059
H53   H     H_    0.653107 0.033085 0.167266 0.192011
H54   H     H_    0.606393 0.117991 0.170624 0.208338
C93   C     C_3   0.373926 0.071503 0.199474 -0.371039
C94   C     C_3   0.318530 0.099291 0.246806 -0.836601
H55   H     H_    0.294983 0.053733 0.273912 0.253691
H56   H     H_    0.343635 0.139045 0.279111 0.255212
H57   H     H_    0.273485 0.126980 0.221719 0.242056
H58   H     H_    0.393286 0.117739 0.170645 0.208288
H59   H     H_    0.346741 0.032733 0.167330 0.192016
C95   C     C_3   0.373264 0.070248 0.800554 -0.371454
C96   C     C_3   0.317631 0.097599 0.753238 -0.836198
H60   H     H_    0.342329 0.137799 0.721112 0.255146
H61   H     H_    0.294674 0.051896 0.725936 0.253676
H62   H     H_    0.272219 0.124643 0.778355 0.242122
H63   H     H_    0.346429 0.031167 0.832635 0.192024
H64   H     H_    0.392177 0.116611 0.829457 0.208070
C97   C     C_3   0.126034 0.571473 0.300595 -0.371040
C98   C     C_3   0.181464 0.599268 0.253293 -0.836617
H65   H     H_    0.204977 0.553722 0.226153 0.253705
H66   H     H_    0.156398 0.639073 0.221017 0.255200
H67   H     H_    0.226527 0.626900 0.278409 0.242069
H68   H     H_    0.106670 0.617702 0.329429 0.208280
H69   H     H_    0.153191 0.532689 0.332740 0.192013
C99   C     C_3   0.125304 0.572807 0.699461 -0.370595
C100  C     C_3   0.180469 0.601066 0.746795 -0.837042
H70   H     H_    0.154967 0.640379 0.779263 0.255268
H71   H     H_    0.204614 0.555682 0.773725 0.253718
H72   H     H_    0.225129 0.629393 0.721724 0.241998
H73   H     H_    0.152839 0.534362 0.667253 0.192012
H74   H     H_    0.105467 0.618898 0.670702 0.208516
C101  C     C_3   0.873377 0.570474 0.699447 -0.371385
C102  C     C_3   0.817785 0.597903 0.746764 -0.836266
H75   H     H_    0.794734 0.552229 0.774038 0.253679
H76   H     H_    0.842551 0.638036 0.778916 0.255156
H77   H     H_    0.772432 0.625048 0.721649 0.242122
H78   H     H_    0.892369 0.616814 0.670560 0.208106
H79   H     H_    0.846481 0.531448 0.667352 0.192023
C103  C     C_3   0.874094 0.571795 0.300511 -0.370945
C104  C     C_3   0.818759 0.599687 0.253169 -0.836687
H80   H     H_    0.843963 0.639335 0.220828 0.255222
H81   H     H_    0.795077 0.554165 0.226101 0.253694
H82   H     H_    0.773799 0.627527 0.278244 0.242052
H83   H     H_    0.846822 0.533102 0.332665 0.192013
H84   H     H_    0.893559 0.618001 0.329327 0.208355
C105  C     C_3   0.498463 0.142408 0.696051 -0.377743
C106  C     C_3   0.497886 0.206525 0.741221 -0.832223
H85   H     H_    0.448872 0.205289 0.771233 0.253660
H86   H     H_    0.547280 0.206588 0.770792 0.253664
H87   H     H_    0.497052 0.258063 0.714186 0.244925
H88   H     H_    0.546845 0.146734 0.665279 0.198647
H89   H     H_    0.449892 0.145726 0.665406 0.199386
C107  C     C_3   0.499852 0.142418 0.303966 -0.377751
C108  C     C_3   0.499786 0.206543 0.258805 -0.832225
H90   H     H_    0.549012 0.206031 0.229035 0.253658
H91   H     H_    0.450593 0.205886 0.228993 0.253667
H92   H     H_    0.499699 0.258085 0.285849 0.244932
H93   H     H_    0.451373 0.146187 0.334677 0.199056
H94   H     H_    0.548330 0.146288 0.334673 0.198978
C109  C     C_3   0.000201 0.642414 0.196049 -0.377752
C110  C     C_3   0.000243 0.706535 0.241218 -0.832224
H95   H     H_    0.950979 0.706036 0.270943 0.253661
H96   H     H_    0.049398 0.705858 0.271075 0.253662
H97   H     H_    0.000387 0.758079 0.214181 0.244928
H98   H     H_    0.048710 0.646179 0.165371 0.199064
H99   H     H_    0.951752 0.646293 0.165310 0.198976
C111  C     C_3   0.998699 0.642413 0.803962 -0.377742
C112  C     C_3   0.998216 0.706533 0.758799 -0.832236
H100  H     H_    0.047586 0.706499 0.729201 0.253666
H101  H     H_    0.949176 0.705399 0.728813 0.253658
H102  H     H_    0.997507 0.758070 0.785841 0.244932
H103  H     H_    0.950140 0.645809 0.834613 0.199330
H104  H     H_    0.047094 0.646657 0.834729 0.198702

loop_
_geom_bond_atom_site_label_1
_geom_bond_atom_site_label_2
_ccdc_geom_bond_type
C83   H33   S    
C81   H29   S    
C112  H102  S    
C90   H46   S    
C73   H8    S    
Cu8   O32   S    
Cu12  O47   S    
C19   O41   A    
C91   H53   S    
Cu10  O6    S    
C15   O34   A    
C107  H94   S    
C32   O18   A    
C15   C29   S    
C31   O17   A    
C92   H50   S    
C45   H1    S    
Cu6   O27   S    
C33   O19   A    
Cu3   O9    S    
C55   C93   S    
C42   C58   S    
Cu9   Cu10  S    
C9    C25   S    
C109  C110  S    
C41   C67   S    
C81   C82   S    
C57   C97   S    
Cu5   Cu6   S    
C83   C84   S    
Cu4   O11   S    
C62   C107  S    
C9    O22   A    
C29   C36   T    
Cu12  O46   S    
C105  C106  S    
C50   C54   S    
Cu2   Cu4   S    
C30   C35   T    
C60   C63   S    
C112  H101  S    
C31   O13   A    
C40   C79   S    
C16   O35   A    
Cu1   O2    S    
C110  H97   S    
C100  H72   S    
C95   H63   S    
C96   H61   S    
C80   H20   S    
C7    C71   T    
Cu12  O8    S    
C17   O38   A    
C106  H86   S    
C90   H47   S    
C16   C30   S    
C112  H100  S    
Cu7   O30   S    
C39   C77   S    
C93   H59   S    
C53   C89   S    
C102  H75   S    
C3    O3    A    
C108  H90   S    
C101  H78   S    
C54   C91   S    
Cu2   O4    S    
C87   H43   S    
C2    O2    A    
C101  H79   S    
C88   H42   S    
C75   H14   S    
C18   O40   A    
C13   C51   S    
C53   C61   S    
C39   C55   S    
C38   C66   S    
C91   C92   S    
C14   O30   A    
C41   C81   S    
C50   C55   S    
Cu2   O16   S    
C8    C22   S    
C77   C78   S    
C48   H4    S    
C57   C63   S    
C51   C57   S    
C23   C27   S    
Cu10  O42   S    
C43   C48   S    
C99   H74   S    
C89   C90   S    
C44   C47   S    
C79   H24   S    
C12   O27   A    
C37   C53   S    
C59   C101  S    
C10   C26   S    
C106  H87   S    
Cu1   O13   S    
C90   H45   S    
C73   H9    S    
Cu8   O31   S    
C105  H88   S    
Cu4   O20   S    
C37   C73   S    
C107  H93   S    
C1    C69   S    
C9    O21   A    
C92   H51   S    
C82   H25   S    
C40   C45   S    
Cu12  O40   S    
C20   O44   A    
Cu5   O25   S    
C21   O45   A    
C99   C100  S    
C76   H11   S    
C86   H36   S    
C89   H48   S    
C76   H10   S    
C12   O26   A    
C84   H31   S    
C58   C64   S    
C109  H98   S    
C52   C58   S    
C64   C111  S    
C14   C52   S    
C8    C72   T    
C88   H41   S    
C62   C66   S    
C93   C94   S    
C111  H104  S    
C41   C47   S    
C82   H26   S    
Cu7   Cu8   S    
C96   H62   S    
C1    O9    A    
C111  C112  S    
C31   C65   S    
C95   C96   S    
C94   H55   S    
Cu9   O44   S    
C47   C51   S    
C54   C62   S    
C98   H67   S    
C104  H81   S    
C106  H85   S    
C84   H30   S    
Cu7   O35   S    
C97   H68   S    
Cu3   O10   S    
C103  H84   S    
C23   O5    A    
C37   C65   S    
C10   O24   A    
C108  H91   S    
C47   H3    S    
Cu2   O3    S    
C3    C71   S    
C96   H60   S    
C63   C67   S    
C110  H95   S    
C100  H70   S    
C11   C49   S    
C52   C59   S    
C3    O11   A    
C18   O39   A    
C97   C98   S    
Cu9   O5    S    
Cu6   O34   S    
Cu9   O41   S    
Cu11  Cu12  S    
C38   C54   S    
C78   H17   S    
C45   C49   S    
C101  C102  S    
C104  H82   S    
Cu11  O7    S    
C107  C108  S    
Cu8   O24   S    
C80   H21   S    
C103  C104  S    
C59   C64   S    
C80   H22   S    
C10   O23   A    
Cu6   O22   S    
C40   C56   S    
C42   C48   S    
C77   H18   S    
C43   C85   S    
Cu5   O21   S    
C11   O28   A    
Cu11  O48   S    
C42   C83   S    
C79   H23   S    
C82   H27   S    
C39   C46   S    
C85   H39   S    
C110  H96   S    
Cu1   O14   S    
C25   C28   T    
C78   H16   S    
C105  H89   S    
Cu4   O19   S    
C40   C65   S    
C4    O12   A    
C26   C27   T    
C79   C80   S    
C92   H52   S    
C89   H49   S    
C24   O7    A    
C87   C88   S    
Cu1   Cu3   S    
C20   O43   A    
C37   C45   S    
Cu5   O26   S    
C74   H6    S    
C64   C68   S    
C77   H19   S    
C21   O46   A    
C4    C72   S    
C76   H12   S    
C58   C99   S    
C86   H35   S    
C33   C67   S    
C32   C66   S    
C85   H38   S    
Cu8   O36   S    
C84   H32   S    
C83   H34   S    
C81   H28   S    
C6    C70   T    
C46   C50   S    
C98   H66   S    
C1    O1    A    
C15   O33   A    
C75   H13   S    
Cu9   O37   S    
C33   O15   A    
C38   C75   S    
C111  H103  S    
Cu6   O28   S    
C24   C28   S    
Cu11  O39   S    
C75   C76   S    
C74   H7    S    
C63   C109  S    
C91   H54   S    
C12   C50   S    
C86   H37   S    
Cu3   O17   S    
C5    C19   S    
C43   C59   S    
Cu4   O12   S    
C49   C56   S    
C6    C20   S    
C73   C74   S    
C97   H69   S    
C60   C103  S    
C56   C95   S    
C102  H77   S    
Cu7   O23   S    
C22   O47   A    
C103  H83   S    
C34   O20   A    
C108  H92   S    
C51   C60   S    
C24   O8    A    
C16   O36   A    
C41   C57   S    
C88   H40   S    
C100  H71   S    
C94   H56   S    
C7    C21   S    
C38   C46   S    
C17   O37   A    
C93   H58   S    
C44   C60   S    
C94   H57   S    
C49   C53   S    
Cu7   O29   S    
C39   C66   S    
C102  H76   S    
C32   O14   A    
C42   C68   S    
C87   H44   S    
C98   H65   S    
C11   O25   A    
C34   O16   A    
Cu11  O45   S    
Cu5   O33   S    
C74   H5    S    
C109  H99   S    
Cu1   O1    S    
C85   C86   S    
C23   O6    A    
C61   C65   S    
C48   C52   S    
C78   H15   S    
C2    O10   A    
Cu3   O18   S    
C61   C105  S    
C14   O31   A    
C22   O48   A    
C13   O29   A    
C56   C61   S    
C44   C67   S    
C95   H64   S    
C13   O32   A    
C17   C35   S    
C19   O42   A    
C4    O4    A    
Cu10  O43   S    
C2    C70   S    
C34   C68   S    
C18   C36   S    
C5    C69   T    
Cu10  O38   S    
C104  H80   S    
C55   C62   S    
C44   C87   S    
Cu2   O15   S    
C46   H2    S    
C43   C68   S    
C99   H73   S    
