data_mof_unit_33567.cif
_audit_creation_date              2012-12-11T16:58:22-0500
_audit_creation_method            fapswitch 2.2
_symmetry_space_group_name_H-M    P1
_symmetry_Int_Tables_number       1
_space_group_crystal_system       triclinic
_cell_length_a                    16.871656
_cell_length_b                    7.250461
_cell_length_c                    16.89129
_cell_angle_alpha                 89.998629
_cell_angle_beta                  100.358284
_cell_angle_gamma                 90.001291
_cell_volume                      2032.59095616

loop_
_atom_site_label
_atom_site_type_symbol
_atom_type_description
_atom_site_fract_x
_atom_site_fract_y
_atom_site_fract_z
_atom_type_partial_charge
O1    O     O_R   0.413450 0.494370 0.415710 -0.537979
O2    O     O_R   0.586550 0.994370 0.584290 -0.537980
O3    O     O_R   0.578420 0.819350 0.429360 -0.542574
O4    O     O_R   0.421580 0.319350 0.570640 -0.542551
C1    C     C_R   0.605958 0.653885 0.414950 0.739525
C2    C     C_R   0.394037 0.153878 0.585044 0.739452
O5    O     O_R   0.413570 0.823780 0.406240 -0.542124
O6    O     O_R   0.586430 0.323780 0.593760 -0.542093
O7    O     O_R   0.420530 0.998740 0.561000 -0.510343
O8    O     O_R   0.579470 0.498740 0.439000 -0.510337
C3    C     C_R   0.385977 0.655334 0.383744 0.703998
C4    C     C_R   0.614020 0.155333 0.616258 0.704031
O9    O     O_3   0.502480 0.662320 0.550800 -0.378321
O10   O     O_3   0.497520 0.162320 0.449200 -0.378360
V1    V     V_3+5 0.499540 0.935370 0.490580 1.442568
V2    V     V_3+5 0.500460 0.435370 0.509420 1.442647
C5    C     C_R   0.733602 0.989129 0.695999 0.118715
C6    C     C_R   0.266381 0.489144 0.304017 0.118664
C7    C     C_R   0.685018 0.146932 0.682612 -0.116473
C8    C     C_R   0.314974 0.646937 0.317396 -0.116499
C9    C     C_R   0.709082 0.300717 0.732154 -0.206452
C10   C     C_R   0.290915 0.800722 0.267849 -0.206416
H1    H     H_    0.674526 0.426823 0.723866 0.147065
H2    H     H_    0.325474 0.926828 0.276136 0.147049
C11   C     C_R   0.775019 0.289672 0.796441 -0.181221
C12   C     C_R   0.224980 0.789675 0.203560 -0.181207
H3    H     H_    0.788878 0.408396 0.835208 0.140325
H4    H     H_    0.211126 0.908398 0.164790 0.140316
C13   C     C_R   0.819080 0.124184 0.813435 -0.108055
C14   C     C_R   0.180916 0.624187 0.186569 -0.108058
C15   C     C_R   0.798808 0.978057 0.759429 0.109634
C16   C     C_R   0.201179 0.478070 0.240583 0.109617
C17   C     C_3   0.782125 0.780950 0.775187 -0.424750
C18   C     C_3   0.217850 0.280950 0.224842 -0.424716
C19   C     C_3   0.710723 0.793292 0.706326 -0.411499
C20   C     C_3   0.289243 0.293292 0.293712 -0.411465
H5    H     H_    0.764377 0.759540 0.834823 0.169273
H6    H     H_    0.235608 0.259517 0.165212 0.169267
H7    H     H_    0.830685 0.688602 0.761936 0.174919
H8    H     H_    0.169280 0.188621 0.238090 0.174920
H9    H     H_    0.651547 0.779647 0.726042 0.172450
H10   H     H_    0.348424 0.279607 0.274009 0.172447
H11   H     H_    0.718013 0.707315 0.653823 0.160447
H12   H     H_    0.281935 0.207352 0.346222 0.160404
C21   C     C_R   0.328540 0.132115 0.633456 -0.195193
C22   C     C_R   0.671459 0.632154 0.366542 -0.195196
C23   C     C_R   0.165962 0.136942 0.861358 -0.086079
C24   C     C_R   0.834027 0.636913 0.138630 -0.086049
C25   C     C_R   0.266746 0.332707 0.815593 -0.136332
C26   C     C_R   0.733187 0.832593 0.184336 -0.136307
C27   C     C_R   0.215083 0.295525 0.869526 -0.150381
C28   C     C_R   0.784864 0.795421 0.130417 -0.150413
C29   C     C_R   0.171230 0.013610 0.798441 -0.194071
C30   C     C_R   0.828793 0.513645 0.201584 -0.194067
C31   C     C_R   0.221701 0.052606 0.741709 0.052381
C32   C     C_R   0.778318 0.552651 0.258310 0.052358
C33   C     C_R   0.270220 0.213682 0.751081 0.097986
C34   C     C_R   0.729749 0.713643 0.248886 0.098021
C35   C     C_R   0.323051 0.251969 0.697346 -0.318663
C36   C     C_R   0.676905 0.751923 0.302609 -0.318638
C37   C     C_R   0.275761 0.977155 0.620626 0.397395
C38   C     C_R   0.724293 0.477307 0.379429 0.397388
C39   C     C_R   0.224507 0.934692 0.675760 0.195243
C40   C     C_R   0.775561 0.434838 0.324309 0.195307
H13   H     H_    0.362342 0.371271 0.707263 0.155053
H14   H     H_    0.637574 0.871147 0.292651 0.155012
H15   H     H_    0.303459 0.456272 0.823947 0.116239
H16   H     H_    0.696436 0.956096 0.175944 0.116209
H17   H     H_    0.213039 0.393121 0.917678 0.124144
H18   H     H_    0.786883 0.892965 0.082237 0.124108
H19   H     H_    0.133688 0.891549 0.792387 0.163008
H20   H     H_    0.866367 0.391635 0.207670 0.163005
O11   O     O_R   0.920630 0.775410 0.061150 -0.533497
O12   O     O_R   0.079370 0.275410 0.938850 -0.533508
O13   O     O_R   0.086500 0.441450 0.093690 -0.538198
O14   O     O_R   0.913500 0.941450 0.906310 -0.538199
C41   C     C_R   0.114040 0.610369 0.116221 0.683319
C42   C     C_R   0.885960 0.110368 0.883780 0.683324
O15   O     O_R   0.921670 0.445960 0.070740 -0.540336
O16   O     O_R   0.078330 0.945960 0.929260 -0.540341
O17   O     O_R   0.913380 0.271130 0.915780 -0.537745
O18   O     O_R   0.086620 0.771130 0.084220 -0.537745
C43   C     C_R   0.895754 0.615673 0.086132 0.683172
C44   C     C_R   0.104244 0.115680 0.913866 0.683176
O19   O     O_3   0.997500 0.603030 0.949220 -0.374813
O20   O     O_3   0.002500 0.103030 0.050780 -0.374806
V3    V     V_3+5 0.000470 0.329940 0.009420 1.395070
V4    V     V_3+5 0.999530 0.829940 0.990580 1.395061
N1    N     N_2   0.178322 0.768712 0.666458 -0.511409
H21   H     H_    0.206555 0.658502 0.644650 0.291793
C45   C     C_3   0.095576 0.789827 0.626100 -0.563894
H22   H     H_    0.062029 0.660527 0.632454 0.197764
H23   H     H_    0.092976 0.817069 0.561080 0.197070
H24   H     H_    0.065513 0.904386 0.652854 0.194918
N2    N     N_2   0.821816 0.268963 0.333679 -0.511386
H25   H     H_    0.793652 0.158749 0.355571 0.291799
C46   C     C_3   0.904578 0.290319 0.373956 -0.564016
H26   H     H_    0.938183 0.161128 0.367567 0.197785
H27   H     H_    0.907232 0.317520 0.438986 0.197025
H28   H     H_    0.934545 0.404997 0.347171 0.194931
O21   O     O_3   0.276266 0.858829 0.556313 -0.547604
C47   C     C_3   0.234555 0.942814 0.485549 -0.217692
H29   H     H_    0.270567 0.056261 0.465870 0.115721
H30   H     H_    0.174456 0.996121 0.492936 0.112026
H31   H     H_    0.224647 0.838233 0.436853 0.154535
O22   O     O_3   0.723832 0.359110 0.443795 -0.547632
C48   C     C_3   0.765529 0.443300 0.514513 -0.217687
H32   H     H_    0.729600 0.557107 0.534028 0.115495
H33   H     H_    0.825696 0.496188 0.507139 0.112188
H34   H     H_    0.775283 0.338973 0.563316 0.154602

loop_
_geom_bond_atom_site_label_1
_geom_bond_atom_site_label_2
_ccdc_geom_bond_type
O15   C43   A    
O21   C47   S    
C2    C21   S    
C20   H10   S    
N2    H25   S    
O1    C3    A    
O16   C44   A    
O2    C4    A    
C2    O7    A    
O15   V3    S    
C46   H26   S    
C24   C30   A    
C17   H7    S    
C22   C38   A    
C18   H8    S    
C7    C9    A    
O14   C42   A    
C33   C35   A    
O22   C48   S    
C34   C36   A    
C25   C33   A    
C47   H31   S    
C37   C39   A    
C38   C40   A    
C17   C19   S    
C14   C41   S    
C13   C42   S    
C25   C27   A    
C31   C39   A    
C26   C28   A    
C48   H32   S    
C32   C40   A    
O12   V3    S    
N1    C45   S    
C19   H11   S    
O14   V4    S    
C18   C20   S    
C23   C29   A    
O5    V1    S    
C36   H14   S    
O6    V2    S    
C48   H33   S    
C46   H27   S    
O5    C3    A    
C29   C31   A    
C11   C13   A    
C30   C32   A    
C3    C8    S    
C26   C34   A    
O4    C2    A    
C45   H22   S    
O20   V3    S    
C23   C27   A    
C17   H5    S    
C16   C18   S    
O4    V2    S    
C37   O21   S    
O11   V4    S    
C45   H23   S    
O6    C4    A    
C39   N1    S    
C15   C17   S    
O1    V2    S    
C23   C44   S    
C47   H30   S    
O2    V1    S    
O13   C41   A    
O17   V3    S    
O13   V3    S    
C8    C10   A    
C12   C14   A    
C31   C33   A    
C5    C15   A    
C48   H34   S    
C10   H2    S    
C20   H12   S    
C6    C16   A    
C29   H19   S    
C46   H28   S    
O3    V1    S    
O19   V4    S    
C9    C11   A    
C21   C35   A    
C25   H15   S    
C22   C36   A    
C18   H6    S    
C40   N2    S    
O12   C44   A    
O3    C1    A    
N2    C46   S    
C38   O22   S    
C11   H3    S    
C27   H17   S    
C1    C22   S    
C12   H4    S    
C24   C43   S    
C9    H1    S    
O7    V1    S    
C1    O8    A    
C13   C15   A    
O8    V2    S    
C35   H13   S    
C45   H24   S    
C14   C16   A    
C42   O17   A    
C26   H16   S    
C41   O18   A    
O18   V4    S    
C4    C7    S    
C21   C37   A    
C5    C7    A    
C32   C34   A    
C6    C8    A    
C47   H29   S    
C19   H9    S    
C28   H18   S    
C24   C28   A    
C30   H20   S    
O16   V4    S    
C10   C12   A    
O9    V2    S    
O10   V1    S    
C5    C19   S    
N1    H21   S    
C6    C20   S    
O11   C43   A    
