data_mof_unit_22975.cif
_audit_creation_date              2012-10-26T20:32:20-0400
_audit_creation_method            fapswitch 2.2
_symmetry_space_group_name_H-M    P1
_symmetry_Int_Tables_number       1
_space_group_crystal_system       triclinic
_cell_length_a                    19.474522
_cell_length_b                    10.997416
_cell_length_c                    9.68833
_cell_angle_alpha                 90.415046
_cell_angle_beta                  90.226139
_cell_angle_gamma                 91.863904
_cell_volume                      2073.77360275

loop_
_atom_site_label
_atom_site_type_symbol
_atom_type_description
_atom_site_fract_x
_atom_site_fract_y
_atom_site_fract_z
_atom_type_partial_charge
C1    C     C_R   0.503867 0.262640 0.498976 0.598497
C2    C     C_R   0.852977 0.505421 0.526092 0.005617
C3    C     C_R   0.519663 0.060954 0.614652 -0.024509
C4    C     C_R   0.366722 0.500933 0.499311 0.583842
C5    C     C_R   0.510152 0.128451 0.495390 -0.000876
C6    C     C_R   0.500657 0.058660 0.373888 0.191489
C7    C     C_R   0.478629 0.936085 0.384014 0.229753
C8    C     C_R   0.494556 0.869645 0.502897 0.012063
C9    C     C_R   0.517665 0.935576 0.617973 -0.077595
C10   C     C_3   0.494882 0.936888 0.766497 0.098333
C11   C     C_3   0.503835 0.077579 0.761528 0.127181
C12   C     C_R   0.288526 0.500452 0.500562 -0.041602
C13   C     C_R   0.527120 0.596390 0.074314 0.190660
C14   C     C_R   0.458156 0.420455 0.071437 0.127150
C15   C     C_R   0.457913 0.423860 0.923076 0.046547
C16   C     C_R   0.496512 0.736593 0.500814 0.588763
C17   C     C_R   0.530257 0.593162 0.929838 0.209031
C18   C     C_3   0.601355 0.650330 0.932077 -0.141257
C19   C     C_3   0.594370 0.662136 0.088999 -0.220654
C20   C     C_R   0.632343 0.493391 0.499503 0.556156
C21   C     C_R   0.253492 0.471658 0.627808 -0.045366
C22   C     C_R   0.181095 0.473472 0.639131 0.210170
C23   C     C_R   0.927958 0.501498 0.533826 0.436346
C24   C     C_R   0.142159 0.501614 0.522326 -0.021764
C25   C     C_R   0.173941 0.522757 0.394082 -0.025967
C26   C     C_R   0.246853 0.526497 0.380775 0.215596
C27   C     C_2   0.291326 0.432569 0.750713 0.362192
C28   C     C_2   0.438564 0.143695 0.788204 0.354477
C29   C     C_2   0.407301 0.336061 0.137937 0.360557
C30   C     C_2   0.657557 0.566405 0.895488 0.250246
C31   C     C_2   0.128963 0.538950 0.270997 0.358398
C32   C     C_2   0.724696 0.475674 0.240973 0.299157
C33   C     C_R   0.066590 0.500386 0.530118 0.416278
C34   C     C_R   0.812854 0.463313 0.637595 0.182437
C35   C     C_R   0.741578 0.455652 0.623563 -0.128223
C36   C     C_R   0.708846 0.484198 0.499751 -0.048093
C37   C     C_R   0.750300 0.506209 0.381567 -0.026795
C38   C     C_R   0.821308 0.533214 0.399066 0.174574
Cu1   Cu    Cu3+1 0.500000 0.499980 0.640670 1.084295
Cu2   Cu    Cu3+1 0.500000 0.500020 0.359330 1.117505
H1    H     H_    0.531399 0.892821 0.836491 0.139337
H2    H     H_    0.425693 0.168141 0.891925 0.194964
H3    H     H_    0.659367 0.133015 0.681725 0.359005
H4    H     H_    0.404778 0.323882 0.247104 0.179717
H5    H     H_    0.703450 0.603072 0.845887 0.127287
H6    H     H_    0.083970 0.553533 0.944334 0.395400
H7    H     H_    0.134560 0.481815 0.180353 0.188709
H8    H     H_    0.364380 0.600588 0.080660 0.332024
H9    H     H_    0.815411 0.341591 0.988509 0.405146
H10   H     H_    0.741867 0.526371 0.151814 0.178989
H11   H     H_    0.959255 0.720725 0.241428 0.417431
H12   H     H_    0.423048 0.366682 0.864247 0.164367
H13   H     H_    0.482416 0.030043 0.048660 0.385093
H14   H     H_    0.605228 0.739099 0.878612 0.109445
H15   H     H_    0.631134 0.611921 0.151397 0.159651
H16   H     H_    0.588208 0.757498 0.123771 0.195710
H17   H     H_    0.711248 0.421775 0.708118 0.246042
H18   H     H_    0.307795 0.498415 0.828872 0.121172
H19   H     H_    0.413086 0.791201 0.074523 0.404075
H20   H     H_    0.358452 0.702077 0.829220 0.359038
N1    N     N_R   0.028953 0.414160 0.460144 -0.156580
N2    N     N_R   0.960766 0.414973 0.461636 -0.125144
N3    N     N_R   0.965425 0.587160 0.605275 -0.102482
N4    N     N_R   0.033804 0.586739 0.603203 -0.095712
N5    N     N_R   0.500440 0.500930 0.147930 -0.237439
N6    N     N_R   0.500440 0.500890 0.852020 -0.222119
O1    O     O_R   0.500000 0.319640 0.618810 -0.465287
O2    O     O_2   0.365884 0.796245 0.346497 -0.179331
O3    O     O_2   0.373148 0.986583 0.218092 -0.171976
O4    O     O_3   0.451042 0.811707 0.138883 -0.539347
O5    O     O_2   0.372619 0.937474 0.905289 -0.223433
O6    O     O_2   0.365924 0.897616 0.657417 -0.182905
O7    O     O_3   0.407387 0.726421 0.816472 -0.552227
O8    O     O_2   0.396732 0.160170 0.696471 -0.408730
O9    O     O_2   0.564595 0.244972 0.937039 -0.152791
O10   O     O_2   0.619473 0.048915 0.916989 -0.229412
O11   O     O_3   0.633554 0.202541 0.717685 -0.480242
O12   O     O_R   0.500010 0.319680 0.381230 -0.504946
O13   O     O_2   0.364369 0.279036 0.069309 -0.422307
O14   O     O_2   0.653959 0.459316 0.928024 -0.373484
O15   O     O_2   0.070978 0.370596 0.772565 -0.206254
O16   O     O_2   0.178926 0.366302 0.897138 -0.163749
O17   O     O_3   0.120456 0.573335 0.876406 -0.457274
O18   O     O_2   0.086506 0.618172 0.269457 -0.422978
O19   O     O_2   0.261320 0.450967 0.120934 -0.257900
O20   O     O_2   0.236757 0.664847 0.153308 -0.189366
O21   O     O_3   0.359408 0.602354 0.182342 -0.455612
O22   O     O_2   0.905559 0.331284 0.770083 -0.190355
O23   O     O_R   0.400140 0.499970 0.618830 -0.514591
O24   O     O_2   0.881422 0.532415 0.865172 -0.200585
O25   O     O_3   0.790773 0.356771 0.900927 -0.447923
O26   O     O_2   0.687290 0.386153 0.221458 -0.367284
O27   O     O_2   0.894262 0.498508 0.168766 -0.212172
O28   O     O_2   0.827935 0.684282 0.180031 -0.273296
O29   O     O_3   0.939686 0.678098 0.322697 -0.452088
O30   O     O_2   0.587034 0.210028 0.231628 -0.133345
O31   O     O_2   0.588995 0.992574 0.184231 -0.261495
O32   O     O_3   0.483656 0.109082 0.097990 -0.490193
O33   O     O_R   0.400150 0.500010 0.381250 -0.463038
O34   O     O_R   0.499990 0.680320 0.618770 -0.475891
O35   O     O_R   0.500000 0.680360 0.381190 -0.463907
O36   O     O_R   0.599850 0.499990 0.618750 -0.499989
O37   O     O_R   0.599860 0.500030 0.381170 -0.478086
O38   O     O_2   0.302278 0.325084 0.766671 -0.368354
S1    S     S_3+6 0.413611 0.882371 0.270885 0.121571
S2    S     S_3+6 0.407101 0.876444 0.786152 0.033313
S3    S     S_3+6 0.581199 0.143616 0.839853 0.068998
S4    S     S_3+6 0.137498 0.440161 0.799486 0.097806
S5    S     S_3+6 0.277253 0.561539 0.208535 0.062342
S6    S     S_3+6 0.850261 0.420710 0.796380 0.082054
S7    S     S_3+6 0.870698 0.598714 0.261658 0.052841
S8    S     S_3+6 0.543352 0.095607 0.220507 0.105483

loop_
_geom_bond_atom_site_label_1
_geom_bond_atom_site_label_2
_ccdc_geom_bond_type
C19   H16   S    
C25   C31   S    
O9    S3    D    
O28   S7    D    
C30   H5    S    
C35   C36   A    
C28   O8    D    
Cu2   O33   S    
O7    S2    S    
C7    C8    A    
C20   O37   A    
C13   N5    A    
O30   S8    D    
C17   N6    A    
C1    C5    S    
O25   S6    S    
C36   C37   A    
C18   C19   S    
O19   S5    D    
C5    C6    A    
C20   O36   A    
C27   O38   D    
O17   S4    S    
C34   C35   A    
Cu2   O35   S    
C23   N2    A    
C8    C9    A    
C7    S1    S    
C18   C30   S    
O16   S4    D    
C4    C12   S    
C9    C10   S    
O22   S6    D    
C2    C34   A    
C23   N3    A    
C21   C27   S    
O15   S4    D    
C8    C16   S    
C31   H7    S    
C21   C22   A    
C10   H1    S    
C1    O12   A    
C6    S8    S    
H9    O25   S    
H20   O7    S    
O32   S8    S    
C13   C19   S    
O11   S3    S    
O20   S5    D    
C24   C25   A    
Cu1   Cu2   S    
O31   S8    D    
O3    S1    D    
C16   O34   A    
C25   C26   A    
C15   H12   S    
C15   N6    A    
C12   C21   A    
C27   H18   S    
C31   O18   D    
H6    O17   S    
C12   C26   A    
C37   C38   A    
C3    C9    A    
C2    C38   A    
C29   O13   D    
C17   C18   S    
H8    O21   S    
C32   C37   S    
C26   S5    S    
C32   H10   S    
O27   S7    D    
O6    S2    D    
O10   S3    D    
Cu2   N5    S    
C29   H4    S    
C11   S3    S    
C34   S6    S    
Cu1   N6    S    
Cu2   O12   S    
O5    S2    D    
O2    S1    D    
O24   S6    D    
C14   C29   S    
Cu1   O36   S    
C4    O23   A    
C19   H15   S    
Cu1   O1    S    
C3    C5    A    
O4    S1    S    
C6    C7    A    
O21   S5    S    
H13   O32   S    
H3    O11   S    
C24   C33   S    
C13   C17   A    
C35   H17   S    
C30   O14   D    
O29   S7    S    
Cu2   O37   S    
Cu1   O34   S    
C32   O26   D    
C11   C28   S    
C33   N4    A    
C22   S4    S    
C28   H2    S    
C1    O1    A    
C14   N5    A    
C22   C24   A    
N1    N2    A    
C3    C11   S    
C10   C11   S    
C18   H14   S    
H19   O4    S    
N3    N4    A    
C20   C36   S    
C16   O35   A    
C33   N1    A    
C4    O33   A    
C2    C23   S    
C10   S2    S    
C14   C15   A    
C38   S7    S    
Cu1   O23   S    
H11   O29   S    
