data_mof_unit_6744.cif
_audit_creation_date              2012-12-11T14:01:44-0500
_audit_creation_method            fapswitch 2.2
_symmetry_space_group_name_H-M    P1
_symmetry_Int_Tables_number       1
_space_group_crystal_system       triclinic
_cell_length_a                    18.839091
_cell_length_b                    11.057715
_cell_length_c                    18.73294
_cell_angle_alpha                 89.773224
_cell_angle_beta                  90.184126
_cell_angle_gamma                 90.279372
_cell_volume                      3902.29860006

loop_
_atom_site_label
_atom_site_type_symbol
_atom_type_description
_atom_site_fract_x
_atom_site_fract_y
_atom_site_fract_z
_atom_type_partial_charge
C1    C     C_R   0.271570 0.042544 0.852996 0.579578
C2    C     C_R   0.983403 0.663555 0.968326 -0.131639
C3    C     C_R   0.511863 0.165356 0.032961 -0.104749
C4    C     C_R   0.526559 0.157199 0.960487 -0.093923
C5    C     C_2   0.236519 0.561351 0.910351 -0.067836
C6    C     C_2   0.760951 0.558695 0.090493 -0.107116
C7    C     C_2   0.738132 0.057292 0.908688 -0.053017
C8    C     C_2   0.262737 0.065425 0.088292 -0.067893
C9    C     C_2   0.250385 0.571870 0.075128 -0.086090
C10   C     C_2   0.770187 0.532049 0.935908 -0.090186
C11   C     C_2   0.750730 0.075954 0.076249 -0.058531
C12   C     C_R   0.728406 0.043223 0.147375 0.578945
C13   C     C_2   0.249492 0.071246 0.924989 -0.088055
C14   C     C_2   0.251246 0.482500 0.026503 0.212162
C15   C     C_2   0.728737 0.461560 0.978373 0.218017
C16   C     C_2   0.754151 0.988555 0.026760 0.215667
C17   C     C_2   0.246742 0.981293 0.973709 0.210348
C18   C     C_2   0.280329 0.505187 0.955596 0.151025
C19   C     C_2   0.714237 0.491653 0.053347 0.145288
C20   C     C_2   0.784197 0.016422 0.957259 0.134782
C21   C     C_2   0.219151 0.004317 0.045163 0.150322
C22   C     C_2   0.512632 0.839212 0.584584 -0.100629
C23   C     C_R   0.788249 0.502032 0.862010 0.592960
C24   C     C_2   0.513607 0.828273 0.428427 -0.091842
C25   C     C_2   0.012636 0.339214 0.584586 -0.102637
C26   C     C_2   0.013612 0.328274 0.428430 -0.092018
C27   C     C_2   0.544659 0.747082 0.472160 -0.153382
C28   C     C_2   0.531424 0.741570 0.548095 -0.162252
C29   C     C_2   0.044667 0.247086 0.472163 -0.153031
C30   C     C_2   0.031434 0.241574 0.548099 -0.163348
C31   C     C_2   0.271265 0.660561 0.563536 -0.092600
C32   C     C_2   0.728950 0.660329 0.436532 -0.105052
C33   C     C_2   0.771266 0.160565 0.563536 -0.092920
C34   C     C_R   0.228425 0.542778 0.147108 0.577327
C35   C     C_2   0.228950 0.160335 0.436534 -0.104918
C36   C     C_2   0.259428 0.611630 0.411372 -0.109809
C37   C     C_2   0.740467 0.612650 0.588868 -0.107796
C38   C     C_2   0.759428 0.111632 0.411372 -0.110089
C39   C     C_2   0.240463 0.112658 0.588872 -0.109211
C40   C     C_R   0.469324 0.821515 0.854689 0.559668
C41   C     C_R   0.526774 0.823059 0.148184 0.557245
C42   C     C_R   0.972679 0.323014 0.852142 0.534069
C43   C     C_R   0.030214 0.321242 0.145742 0.558265
C44   C     C_2   0.223069 0.699067 0.444277 -0.148831
C45   C     C_R   0.496924 0.061188 0.072268 -0.073030
C46   C     C_2   0.777020 0.700290 0.555523 -0.145800
C47   C     C_2   0.723070 0.199071 0.444275 -0.148891
C48   C     C_2   0.277013 0.200301 0.555528 -0.146270
C49   C     C_2   0.238628 0.735327 0.517795 -0.163865
C50   C     C_2   0.761164 0.736220 0.481920 -0.159839
C51   C     C_2   0.738627 0.235330 0.517794 -0.164216
C52   C     C_2   0.261159 0.236229 0.481924 -0.159831
C53   C     C_R   0.258538 0.631032 0.848245 0.604961
C54   C     C_R   0.741499 0.629770 0.152522 0.606513
C55   C     C_R   0.758864 0.131042 0.848114 0.586181
C56   C     C_R   0.522873 0.045667 0.926317 -0.086311
C57   C     C_R   0.241300 0.131643 0.151467 0.605079
C58   C     C_R   0.270612 0.049136 0.649705 0.540595
C59   C     C_R   0.729339 0.048639 0.350402 0.539105
C60   C     C_R   0.770609 0.549143 0.649711 0.553798
C61   C     C_R   0.229339 0.548638 0.350403 0.539917
C62   C     C_R   0.472363 0.824661 0.649511 0.544664
C63   C     C_R   0.532181 0.822871 0.353800 0.540659
C64   C     C_R   0.972362 0.324661 0.649510 0.546006
C65   C     C_R   0.032183 0.322871 0.353801 0.539320
C66   C     C_R   0.275573 0.690553 0.638345 0.566594
C67   C     C_R   0.973069 0.541730 0.074734 -0.092546
C68   C     C_R   0.724460 0.690528 0.361672 0.563965
C69   C     C_R   0.775573 0.190554 0.638345 0.567754
C70   C     C_R   0.224460 0.190529 0.361672 0.563244
C71   C     C_R   0.490786 0.836896 0.079188 0.008082
C72   C     C_R   0.489515 0.828231 0.930052 0.031762
C73   C     C_R   0.008466 0.326840 0.071017 0.013210
C74   C     C_R   0.006477 0.335863 0.922042 0.003759
C75   C     C_R   0.496765 0.946239 0.039447 0.056797
C76   C     C_R   0.503348 0.939963 0.964359 0.046822
C77   C     C_R   0.993705 0.437804 0.036609 0.031791
C78   C     C_R   0.999837 0.560701 0.929001 -0.078817
C79   C     C_R   0.000446 0.445045 0.961621 0.035587
C80   C     C_R   0.473514 0.725316 0.971340 -0.100985
C81   C     C_R   0.472040 0.730589 0.044512 -0.143009
C82   C     C_R   0.022895 0.228417 0.957096 -0.116464
C83   C     C_R   0.023251 0.223686 0.030156 -0.107510
C84   C     C_3   0.392980 0.408570 0.990008 -0.305493
C85   C     C_3   0.586065 0.500089 0.060708 -0.240175
C86   C     C_3   0.904443 0.980994 0.004361 -0.306680
C87   C     C_3   0.109696 0.890999 0.017588 -0.296036
C88   C     C_R   0.968075 0.653351 0.040681 -0.130410
Cl1   Cl    Cl    0.203820 0.346268 0.038725 -0.646722
Cl2   Cl    Cl    0.683228 0.333586 0.948228 -0.642822
Cl3   Cl    Cl    0.711376 0.847049 0.036507 -0.635694
Cl4   Cl    Cl    0.291796 0.843792 0.961396 -0.651818
Cr1   Cr    Cr6+3 0.230530 0.836340 0.748870 1.031928
Cr2   Cr    Cr6+3 0.614360 0.677860 0.250770 1.013324
Cr3   Cr    Cr6+3 0.885640 0.177860 0.749230 1.013686
Cr4   Cr    Cr6+3 0.114360 0.177860 0.250770 1.025027
Cr5   Cr    Cr6+3 0.769470 0.836340 0.251130 1.031808
Cr6   Cr    Cr6+3 0.730530 0.336340 0.748870 1.055659
Cr7   Cr    Cr6+3 0.269470 0.336340 0.251130 1.031194
Cr8   Cr    Cr6+3 0.387420 0.989430 0.750820 1.031468
Cr9   Cr    Cr6+3 0.612580 0.989430 0.249180 1.028729
Cr10  Cr    Cr6+3 0.887420 0.489430 0.750820 1.007987
Cr11  Cr    Cr6+3 0.112580 0.489430 0.249180 1.031994
Cr12  Cr    Cr6+3 0.385640 0.677860 0.749230 1.032538
H1    H     H_    0.460367 0.639417 0.947180 0.174257
H2    H     H_    0.783890 0.820622 0.462421 0.136854
H3    H     H_    0.715434 0.318979 0.536914 0.133659
H4    H     H_    0.283883 0.320633 0.462425 0.136547
H5    H     H_    0.309237 0.578133 0.432714 0.098594
H6    H     H_    0.690370 0.579221 0.567820 0.090618
H7    H     H_    0.809236 0.078134 0.432714 0.098723
H8    H     H_    0.190365 0.079230 0.567825 0.091269
H9    H     H_    0.293243 0.574626 0.547053 0.103821
H10   H     H_    0.707569 0.573555 0.453366 0.096523
H11   H     H_    0.793244 0.074630 0.547052 0.104437
H12   H     H_    0.461984 0.648085 0.074188 0.115740
H13   H     H_    0.207571 0.073559 0.453369 0.096939
H14   H     H_    0.483560 0.072073 0.127960 0.122884
H15   H     H_    0.536396 0.043261 0.870315 0.126163
H16   H     H_    0.959663 0.537581 0.130776 0.122067
H17   H     H_    0.013756 0.573328 0.873520 0.132748
H18   H     H_    0.953843 0.732217 0.071233 0.107852
H19   H     H_    0.982024 0.751156 0.942402 0.106652
H20   H     H_    0.512619 0.252444 0.059028 0.118261
H21   H     H_    0.539623 0.237806 0.930280 0.161961
H22   H     H_    0.272772 0.660340 0.063841 0.118246
H23   H     H_    0.031032 0.145139 0.927987 0.133239
H24   H     H_    0.794189 0.614137 0.956702 0.107190
H25   H     H_    0.769670 0.167201 0.065476 0.088259
H26   H     H_    0.229808 0.160990 0.936625 0.115698
H27   H     H_    0.181585 0.574746 0.926705 0.099588
H28   H     H_    0.813384 0.576842 0.069000 0.077129
H29   H     H_    0.681728 0.056640 0.921387 0.132188
H30   H     H_    0.316575 0.084175 0.069841 0.095605
H31   H     H_    0.577418 0.675049 0.451085 0.149314
H32   H     H_    0.530968 0.652212 0.572471 0.153387
H33   H     H_    0.077425 0.175053 0.451087 0.149007
H34   H     H_    0.036898 0.137869 0.054450 0.168122
H35   H     H_    0.030981 0.152217 0.572476 0.152334
H36   H     H_    0.480625 0.901306 0.447724 0.098042
H37   H     H_    0.517291 0.929271 0.561601 0.112479
H38   H     H_    0.980629 0.401305 0.447727 0.098003
H39   H     H_    0.017293 0.429273 0.561603 0.112563
H40   H     H_    0.359403 0.446627 0.886640 0.265100
H41   H     H_    0.448300 0.399168 0.970777 0.118130
H42   H     H_    0.369546 0.316921 0.997293 0.179933
H43   H     H_    0.394685 0.456639 0.041917 0.149295
H44   H     H_    0.653092 0.425332 0.139110 0.257373
H45   H     H_    0.175893 0.737547 0.419826 0.156108
H46   H     H_    0.540964 0.469336 0.094336 0.105245
H47   H     H_    0.574723 0.474741 0.004579 0.177284
H48   H     H_    0.591145 0.599786 0.063665 0.202401
H49   H     H_    0.872884 0.969941 0.898255 0.269140
H50   H     H_    0.960371 0.978773 0.986359 0.116238
H51   H     H_    0.889536 0.890381 0.025103 0.163530
H52   H     H_    0.899907 0.049150 0.047446 0.152937
H53   H     H_    0.146117 0.937201 0.118714 0.262929
H54   H     H_    0.056667 0.872091 0.040589 0.119403
H55   H     H_    0.137284 0.803569 0.009342 0.188745
H56   H     H_    0.824504 0.738864 0.579568 0.155919
H57   H     H_    0.102259 0.938260 0.965683 0.150416
H58   H     H_    0.675895 0.237554 0.419822 0.155901
H59   H     H_    0.324497 0.238875 0.579574 0.155360
H60   H     H_    0.215435 0.818977 0.536915 0.134602
N1    N     N_2   0.352273 0.476693 0.938125 -0.498377
N2    N     N_2   0.650992 0.444559 0.085250 -0.458648
N3    N     N_2   0.859155 0.013095 0.944884 -0.488396
N4    N     N_2   0.149604 0.966237 0.066467 -0.499643
O1    O     O_R   0.215090 0.709860 0.828130 -0.497436
O2    O     O_R   0.543740 0.718170 0.330000 -0.525556
O3    O     O_R   0.956260 0.218170 0.670000 -0.521951
O4    O     O_R   0.043740 0.218170 0.330000 -0.526134
O5    O     O_R   0.320940 0.626760 0.674370 -0.508208
O6    O     O_R   0.679060 0.626760 0.325630 -0.514691
O7    O     O_R   0.820940 0.126760 0.674370 -0.502998
O8    O     O_R   0.179060 0.126760 0.325630 -0.514233
O9    O     O_3   0.334530 0.834540 0.749640 -0.255323
O10   O     O_3   0.665470 0.834540 0.250360 -0.253917
O11   O     O_3   0.834530 0.334540 0.749640 -0.285530
O12   O     O_R   0.784910 0.709860 0.171870 -0.491722
O13   O     O_3   0.165470 0.334540 0.250360 -0.254928
O14   O     O_R   0.236990 0.958390 0.823710 -0.468294
O15   O     O_R   0.763010 0.958390 0.176290 -0.473677
O16   O     O_R   0.736990 0.458390 0.823710 -0.438316
O17   O     O_R   0.263010 0.458390 0.176290 -0.471325
O18   O     O_R   0.332380 0.074750 0.830850 -0.499919
O19   O     O_R   0.667620 0.074750 0.169150 -0.492468
O20   O     O_R   0.832380 0.574750 0.830850 -0.521185
O21   O     O_R   0.167620 0.574750 0.169150 -0.496778
O22   O     O_R   0.445800 0.917770 0.825070 -0.495397
O23   O     O_R   0.715090 0.209860 0.828130 -0.463065
O24   O     O_R   0.554200 0.917770 0.174930 -0.492235
O25   O     O_R   0.945800 0.417770 0.825070 -0.526204
O26   O     O_R   0.054200 0.417770 0.174930 -0.486723
O27   O     O_R   0.456410 0.716580 0.829970 -0.511072
O28   O     O_R   0.543590 0.716580 0.170030 -0.524756
O29   O     O_R   0.956410 0.216580 0.829970 -0.508727
O30   O     O_R   0.043590 0.216580 0.170030 -0.517616
O31   O     O_R   0.321080 0.625290 0.822650 -0.473301
O32   O     O_R   0.678920 0.625290 0.177350 -0.481102
O33   O     O_R   0.821080 0.125290 0.822650 -0.488688
O34   O     O_R   0.284910 0.209860 0.171870 -0.501081
O35   O     O_R   0.178920 0.125290 0.177350 -0.469706
O36   O     O_R   0.214930 0.711450 0.668160 -0.513047
O37   O     O_R   0.785070 0.711450 0.331840 -0.510138
O38   O     O_R   0.714930 0.211450 0.668160 -0.510964
O39   O     O_R   0.285070 0.211450 0.331840 -0.509243
O40   O     O_R   0.236850 0.959870 0.675420 -0.528128
O41   O     O_R   0.763150 0.959870 0.324580 -0.527717
O42   O     O_R   0.736850 0.459870 0.675420 -0.520459
O43   O     O_R   0.263150 0.459870 0.324580 -0.527818
O44   O     O_R   0.332230 0.076350 0.670880 -0.514644
O45   O     O_R   0.445660 0.919250 0.676780 -0.504291
O46   O     O_R   0.667770 0.076350 0.329120 -0.515652
O47   O     O_R   0.832230 0.576350 0.670880 -0.508121
O48   O     O_R   0.167770 0.576350 0.329120 -0.514646
O49   O     O_R   0.554340 0.919250 0.323220 -0.500013
O50   O     O_R   0.945660 0.419250 0.676780 -0.501302
O51   O     O_R   0.054340 0.419250 0.323220 -0.499909
O52   O     O_R   0.456260 0.718170 0.670000 -0.522074

loop_
_geom_bond_atom_site_label_1
_geom_bond_atom_site_label_2
_ccdc_geom_bond_type
C44   C49   S    
C45   H14   S    
C31   C66   S    
C75   C76   A    
C43   C73   S    
C56   C76   A    
C34   O17   A    
H44   N2    S    
C14   C18   S    
Cr8   O18   S    
C67   C77   A    
C24   C27   D    
C7    C55   S    
Cr4   O13   S    
C72   C76   A    
Cr9   O24   S    
C59   O46   A    
C48   H59   S    
Cr7   O43   S    
C2    H19   S    
C24   H36   S    
C15   C19   S    
C6    C19   D    
Cr6   O42   S    
Cr1   O1    S    
C67   C88   A    
C21   N4    S    
Cr5   O41   S    
C4    H21   S    
C43   O26   A    
Cr2   O28   S    
C85   N2    S    
C5    C53   S    
C68   O37   A    
C60   O47   A    
C74   C82   A    
C7    H29   S    
C41   O28   A    
C10   C15   D    
C61   O43   A    
C23   O20   A    
C12   O15   A    
C55   O33   A    
C54   O32   A    
C22   H37   S    
Cr2   O10   S    
Cr1   O36   S    
C78   H17   S    
C86   H52   S    
C85   H46   S    
Cr12  O52   S    
C49   H60   S    
Cr3   O7    S    
C84   N1    S    
C47   H58   S    
C87   N4    S    
C35   C70   S    
C54   O12   A    
C57   O34   A    
Cr9   O10   S    
C13   H26   S    
C66   O5    A    
C2    C88   A    
Cr11  O21   S    
C19   N2    S    
C40   C72   S    
C67   H16   S    
C37   C46   D    
C33   C69   S    
C41   C71   S    
C27   C28   S    
C66   O36   A    
C22   C28   D    
H49   N3    S    
Cr6   O16   S    
Cr10  O11   S    
C25   H39   S    
C17   Cl4   S    
C31   C49   D    
C10   H24   S    
Cr8   O9    S    
C11   H25   S    
H53   N4    S    
C7    C20   D    
C18   N1    S    
Cr5   O15   S    
C77   C79   A    
Cr8   O45   S    
C33   H11   S    
C42   C74   S    
C65   O4    A    
C8    H30   S    
C53   O31   A    
C48   C52   S    
C6    H28   S    
C65   O51   A    
Cr1   O9    S    
C78   C79   A    
Cr6   O23   S    
C63   O2    A    
C47   C51   S    
C5    C18   D    
C70   O39   A    
C84   H41   S    
C39   C58   S    
C80   H1    S    
Cr8   O44   S    
Cr10  O20   S    
C3    C4    A    
Cr7   O39   S    
C25   C64   S    
C62   O52   A    
C42   O25   A    
Cr4   O30   S    
C9    C14   D    
C85   H47   S    
C14   Cl1   S    
C32   H10   S    
C29   C30   S    
C2    C78   A    
C8    C57   S    
C22   C62   S    
C70   O8    A    
C11   C16   D    
C64   O50   A    
Cr12  O9    S    
C58   O40   A    
Cr9   O46   S    
C16   C20   S    
Cr1   O14   S    
C46   H56   S    
C57   O35   A    
C8    C21   D    
C69   O38   A    
C40   O22   A    
C86   H51   S    
C32   C50   D    
C38   C47   D    
Cr2   O6    S    
C12   O19   A    
C88   H18   S    
C39   H8    S    
C61   O48   A    
C16   Cl3   S    
C6    C54   S    
C24   C63   S    
C84   H42   S    
C74   C79   A    
Cr7   O34   S    
C9    C34   S    
C62   O45   A    
C56   H15   S    
C36   C44   D    
C37   H6    S    
C36   C61   S    
Cr10  O25   S    
Cr7   O17   S    
C29   H33   S    
C3    H20   S    
Cr4   O35   S    
Cr11  O26   S    
C84   H43   S    
Cr3   O11   S    
C25   C30   D    
C20   N3    S    
C68   O6    A    
C30   H35   S    
Cr4   O8    S    
C41   O24   A    
C87   H57   S    
C28   H32   S    
C26   C65   S    
C31   H9    S    
C34   O21   A    
Cr8   O22   S    
C86   N3    S    
C9    H22   S    
C80   C81   A    
Cr5   O12   S    
C42   O29   A    
C1    O14   A    
Cr12  O5    S    
C58   O44   A    
C10   C23   S    
C33   C51   D    
Cr11  O13   S    
C46   C50   S    
C44   H45   S    
C87   H54   S    
C13   C17   D    
H40   N1    S    
C45   C75   A    
C27   H31   S    
C63   O49   A    
C64   O3    A    
C53   O1    A    
Cr3   O29   S    
C85   H48   S    
C3    C45   A    
C23   O16   A    
C72   C80   A    
C26   H38   S    
Cr3   O33   S    
Cr2   O2    S    
C15   Cl2   S    
C71   C75   A    
C35   C52   D    
C1    O18   A    
Cr5   O10   S    
C60   O42   A    
C81   H12   S    
Cr12  O31   S    
Cr12  O27   S    
C87   H55   S    
C43   O30   A    
Cr2   O32   S    
C86   H50   S    
C32   C68   S    
C17   C21   S    
C82   H23   S    
Cr7   O13   S    
C37   C60   S    
C35   H13   S    
Cr10  O50   S    
C38   C59   S    
C38   H7    S    
Cr9   O49   S    
Cr10  O47   S    
C5    H27   S    
C1    C13   S    
C52   H4    S    
C26   C29   D    
C51   H3    S    
C82   C83   A    
Cr4   O4    S    
Cr11  O51   S    
C36   H5    S    
C50   H2    S    
C73   C77   A    
Cr6   O38   S    
C69   O7    A    
Cr5   O37   S    
Cr6   O11   S    
Cr9   O19   S    
Cr1   O40   S    
Cr3   O3    S    
Cr11  O48   S    
C73   C83   A    
C83   H34   S    
C4    C56   A    
C59   O41   A    
C11   C12   S    
C55   O23   A    
C39   C48   D    
C71   C81   A    
C40   O27   A    
