data_mof_unit_26402.cif
_audit_creation_date              2012-12-11T16:29:32-0500
_audit_creation_method            fapswitch 2.2
_symmetry_space_group_name_H-M    P1
_symmetry_Int_Tables_number       1
_space_group_crystal_system       triclinic
_cell_length_a                    6.951931
_cell_length_b                    17.378235
_cell_length_c                    18.694045
_cell_angle_alpha                 106.301595
_cell_angle_beta                  89.665251
_cell_angle_gamma                 90.48224
_cell_volume                      2167.58316493

loop_
_atom_site_label
_atom_site_type_symbol
_atom_type_description
_atom_site_fract_x
_atom_site_fract_y
_atom_site_fract_z
_atom_type_partial_charge
O1    O     O_R   0.494360 0.415680 0.413760 -0.534582
O2    O     O_R   0.818810 0.432910 0.557230 -0.521619
O3    O     O_R   0.994290 0.584320 0.586240 -0.533005
C1    C     C_R   0.649783 0.415880 0.580539 0.713186
O4    O     O_R   0.823740 0.406440 0.412520 -0.536277
O5    O     O_R   0.999250 0.557660 0.440500 -0.527082
C2    C     C_R   0.655033 0.383996 0.384582 0.690262
O6    O     O_R   0.489400 0.442340 0.559500 -0.518725
O7    O     O_3   0.662500 0.549650 0.509350 -0.360652
V1    V     V_3+5 0.935340 0.490790 0.498270 1.443941
O8    O     O_R   0.329270 0.567090 0.442770 -0.527341
C3    C     C_R   0.161120 0.584191 0.419510 0.705611
O9    O     O_R   0.324340 0.593560 0.587480 -0.528605
C4    C     C_R   0.155287 0.615518 0.615762 0.789484
V2    V     V_3+5 0.435970 0.509210 0.501730 1.442579
O10   O     O_3   0.158940 0.450350 0.490650 -0.356490
C5    C     C_R   0.222741 0.593462 0.766443 0.180565
C6    C     C_R   0.259973 0.585531 0.837615 -0.155545
C7    C     C_R   0.254308 0.651313 0.899849 -0.156859
C8    C     C_R   0.209443 0.726309 0.892496 -0.135988
C9    C     C_R   0.171148 0.737676 0.821925 0.028137
C10   C     C_R   0.180490 0.670551 0.756771 0.069934
C11   C     C_R   0.120114 0.814667 0.816433 -0.152728
C12   C     C_R   0.078109 0.825517 0.745929 0.074709
C13   C     C_R   0.091254 0.759939 0.680522 -0.016164
C14   C     C_R   0.143983 0.682737 0.685436 -0.163517
C15   C     C_R   0.022984 0.901336 0.739201 -0.210319
C16   C     C_R   0.981614 0.912383 0.669970 -0.215049
C17   C     C_R   0.999194 0.848687 0.604950 0.469374
C18   C     C_R   0.050378 0.773187 0.610749 -0.191806
H1    H     H_    0.292398 0.527224 0.844637 0.119394
H2    H     H_    0.282823 0.643990 0.954437 0.124451
H3    H     H_    0.203763 0.775204 0.943187 0.102964
H4    H     H_    0.009497 0.952898 0.787406 0.123543
H5    H     H_    0.934831 0.970695 0.667196 0.123769
H6    H     H_    0.057908 0.725177 0.559427 0.108778
C19   C     C_1   0.111694 0.864609 0.133245 -0.222393
C20   C     C_1   0.119155 0.822554 0.177276 -0.003699
C21   C     C_1   0.128454 0.772871 0.229624 -0.008673
C22   C     C_1   0.136318 0.730631 0.273488 -0.018225
C23   C     C_1   0.145588 0.679905 0.324920 0.019283
C24   C     C_1   0.153137 0.636769 0.367994 -0.180763
C25   C     C_1   0.641180 0.363847 0.632469 -0.228398
C26   C     C_1   0.637052 0.321215 0.676016 -0.007182
C27   C     C_1   0.633847 0.270963 0.727893 -0.006916
C28   C     C_1   0.631495 0.228648 0.771736 -0.008471
C29   C     C_1   0.628249 0.178468 0.823683 -0.005729
C30   C     C_1   0.624059 0.135936 0.867324 -0.219070
H7    H     H_    0.337185 0.153707 0.439492 0.120416
C31   C     C_R   0.815981 0.394751 0.243929 -0.214994
C32   C     C_R   0.891886 0.402343 0.176840 0.454493
C33   C     C_R   0.880122 0.337938 0.112703 -0.200531
C34   C     C_R   0.788985 0.267052 0.114751 -0.204260
C35   C     C_R   0.711827 0.257531 0.181987 0.075105
C36   C     C_R   0.724910 0.322767 0.247961 0.011222
C37   C     C_R   0.620312 0.184849 0.183869 -0.168723
C38   C     C_R   0.541858 0.177332 0.251845 0.064824
C39   C     C_R   0.554445 0.242539 0.317852 0.071452
C40   C     C_R   0.644996 0.315449 0.315900 -0.160777
C41   C     C_R   0.454536 0.104766 0.256001 -0.141054
C42   C     C_R   0.380457 0.096885 0.322986 -0.119032
C43   C     C_R   0.393215 0.160367 0.387398 -0.123429
C44   C     C_R   0.479865 0.232262 0.385279 -0.134323
H8    H     H_    0.828739 0.446149 0.292287 0.124453
H9    H     H_    0.941183 0.343134 0.060816 0.129270
H10   H     H_    0.779859 0.220075 0.062800 0.128712
H11   H     H_    0.444051 0.052951 0.207932 0.108088
H12   H     H_    0.314429 0.040889 0.324972 0.112321
H13   H     H_    0.489497 0.279068 0.437341 0.104490
O11   O     O_R   0.775690 0.057750 0.940570 -0.526390
O12   O     O_R   0.441200 0.093570 0.087490 -0.534953
O13   O     O_R   0.265840 0.942320 0.059480 -0.526314
C45   C     C_R   0.609978 0.116254 0.115259 0.694832
O14   O     O_R   0.446270 0.067110 0.942790 -0.524144
O15   O     O_R   0.270950 0.915660 0.913750 -0.532311
C46   C     C_R   0.615324 0.084062 0.919400 0.713152
O16   O     O_R   0.770580 0.084400 0.086300 -0.533374
O17   O     O_3   0.602640 0.950400 0.990690 -0.358287
V3    V     V_3+5 0.329740 0.009200 0.001730 1.418825
O18   O     O_R   0.940900 0.906360 0.912450 -0.534533
C47   C     C_R   0.109898 0.883919 0.884620 0.696915
O19   O     O_R   0.935830 0.932820 0.057160 -0.522889
C48   C     C_R   0.103911 0.916104 0.080754 0.710695
V4    V     V_3+5 0.829130 0.990680 0.998180 1.418799
O20   O     O_3   0.106100 0.049590 0.009310 -0.359442
O21   O     O_3   0.948490 0.855967 0.535503 -0.575409
C49   C     C_3   0.051262 0.918814 0.517422 0.067551
H14   H     H_    0.129805 0.892378 0.464357 0.145941
H15   H     H_    0.162200 0.948983 0.559104 0.102385
C50   C     C_3   0.909267 0.980747 0.505269 -0.289555
H16   H     H_    0.804616 0.950664 0.461359 0.205888
H17   H     H_    0.828140 0.007496 0.557600 0.187704
C51   C     C_3   0.012485 0.047445 0.481453 -0.845080
H18   H     H_    0.115497 0.079431 0.525140 0.229332
H19   H     H_    0.905590 0.091145 0.472921 0.238401
H20   H     H_    0.091405 0.022146 0.428333 0.227741
O22   O     O_3   0.990292 0.471209 0.175255 -0.575285
C52   C     C_3   0.871291 0.519553 0.144741 0.063226
H21   H     H_    0.792377 0.562076 0.191003 0.137279
H22   H     H_    0.763674 0.484698 0.103865 0.106418
C53   C     C_3   0.997759 0.566642 0.104409 -0.284543
H23   H     H_    0.111093 0.599705 0.142737 0.209628
H24   H     H_    0.069744 0.524112 0.056202 0.187728
C54   C     C_3   0.880087 0.626029 0.076420 -0.828782
H25   H     H_    0.769230 0.593826 0.036278 0.229379
H26   H     H_    0.976456 0.659349 0.047815 0.231941
H27   H     H_    0.808609 0.669806 0.123834 0.237060
N1    N     N_3   0.224360 0.521948 0.705380 -0.670830
H28   H     H_    0.358766 0.495052 0.703994 0.225242
H29   H     H_    0.120305 0.482454 0.715544 0.220245

loop_
_geom_bond_atom_site_label_1
_geom_bond_atom_site_label_2
_ccdc_geom_bond_type
C32   O22   S    
C49   H14   S    
C51   H18   S    
C36   C40   A    
C31   H8    S    
C23   C24   T    
C30   C46   S    
C7    C8    A    
C12   C15   A    
O18   V4    S    
C54   H26   S    
O22   C52   S    
C38   C39   A    
C34   C35   A    
C37   C38   A    
C17   C18   A    
O14   C46   A    
C16   C17   A    
O13   V3    S    
O5    C3    A    
C20   C21   S    
V2    O10   S    
C13   C18   A    
N1    H28   S    
C6    C7    A    
C3    C24   S    
C53   C54   S    
C28   C29   S    
O8    V2    S    
V4    O20   S    
C44   H13   S    
C41   H11   S    
C11   C12   A    
O1    V2    S    
O11   V4    S    
O7    V1    S    
C1    O6    A    
C53   H24   S    
O9    C4    A    
C7    H2    S    
C37   C45   S    
C2    C40   S    
C54   H25   S    
C31   C32   A    
C15   H4    S    
C35   C37   A    
C32   C33   A    
C53   H23   S    
C12   C13   A    
C16   H5    S    
C5    N1    S    
C21   C22   T    
O12   C45   A    
O17   V3    S    
O15   C47   A    
C38   C41   A    
O16   V4    S    
C39   C40   A    
C27   C28   T    
O12   V3    S    
C41   C42   A    
O2    C1    A    
C25   C26   T    
C19   C20   T    
C50   H17   S    
C29   C30   T    
C43   C44   A    
C5    C6    A    
C33   C34   A    
C4    C14   S    
C34   H10   S    
C17   O21   S    
O3    C4    A    
C8    H3    S    
C22   C23   S    
C52   H21   S    
O6    V2    S    
O19   V4    S    
O14   V3    S    
O9    V2    S    
O11   C46   A    
O2    V1    S    
V3    O20   S    
C26   C27   S    
O21   C49   S    
C50   C51   S    
O4    C2    A    
C39   C44   A    
C35   C36   A    
H7    C43   S    
C11   C47   S    
O1    C2    A    
C5    C10   A    
O18   C47   A    
O5    V1    S    
O8    C3    A    
C1    C25   S    
C51   H20   S    
C52   C53   S    
C52   H22   S    
C31   C36   A    
C18   H6    S    
C9    C11   A    
C13   C14   A    
O4    V1    S    
O3    V1    S    
V1    O10   S    
C42   H12   S    
C50   H16   S    
N1    H29   S    
O7    V2    S    
C42   C43   A    
O13   C48   A    
O17   V4    S    
C8    C9    A    
C51   H19   S    
O19   C48   A    
C10   C14   A    
C49   C50   S    
C15   C16   A    
C49   H15   S    
C45   O16   A    
C19   C48   S    
C6    H1    S    
C9    C10   A    
O15   V3    S    
C54   H27   S    
C33   H9    S    
