data_mof_unit_36998.cif
_audit_creation_date              2012-12-10T19:45:02-0500
_audit_creation_method            fapswitch 2.2
_symmetry_space_group_name_H-M    P1
_symmetry_Int_Tables_number       1
_space_group_crystal_system       triclinic
_cell_length_a                    15.071959
_cell_length_b                    10.820325
_cell_length_c                    13.749924
_cell_angle_alpha                 90.568491
_cell_angle_beta                  89.279153
_cell_angle_gamma                 88.852946
_cell_volume                      2241.64279028

loop_
_atom_site_label
_atom_site_type_symbol
_atom_type_description
_atom_site_fract_x
_atom_site_fract_y
_atom_site_fract_z
_atom_type_partial_charge
C1    C     C_R   0.497941 0.262340 0.499549 0.811038
C2    C     C_R   0.587459 0.878974 0.660687 0.050657
C3    C     C_R   0.443887 0.103548 0.243333 -0.139631
C4    C     C_R   0.556167 0.896401 0.756665 -0.139642
C5    C     C_R   0.400422 0.161409 0.166207 0.426397
C6    C     C_R   0.599669 0.838526 0.833764 0.426376
C7    C     C_R   0.325313 0.236411 0.184464 -0.184239
C8    C     C_R   0.674793 0.763565 0.815461 -0.184210
C9    C     C_R   0.464525 0.933148 0.422921 -0.224440
C10   C     C_R   0.535460 0.066851 0.577083 -0.224412
C11   C     C_R   0.503735 0.871550 0.501027 -0.065802
C12   C     C_R   0.502055 0.737659 0.500451 0.811051
C13   C     C_R   0.496254 0.128450 0.498975 -0.065809
C14   C     C_R   0.540492 0.938716 0.578824 0.036397
C15   C     C_R   0.459499 0.061283 0.421176 0.036377
C16   C     C_R   0.328560 0.500714 0.500459 0.824315
C17   C     C_R   0.671440 0.499283 0.499540 0.824333
C18   C     C_R   0.557474 0.423848 0.791867 -0.050996
C19   C     C_R   0.442529 0.576156 0.208133 -0.050999
C20   C     C_R   0.442262 0.577514 0.795402 0.494292
C21   C     C_R   0.557742 0.422492 0.204598 0.494304
C22   C     C_R   0.440632 0.578546 0.898661 -0.057519
C23   C     C_R   0.044387 0.463644 0.674795 -0.191734
C24   C     C_R   0.559375 0.421466 0.101338 -0.057545
C25   C     C_R   0.499839 0.500239 0.948233 0.074371
C26   C     C_R   0.500167 0.499771 0.051767 0.074360
C27   C     C_R   0.558816 0.422467 0.894457 0.002215
C28   C     C_R   0.441191 0.577543 0.105543 0.002221
C29   C     C_R   0.381797 0.655723 0.953862 -0.080270
C30   C     C_R   0.618216 0.344300 0.046137 -0.080268
C31   C     C_R   0.382247 0.655134 0.055743 -0.154035
C32   C     C_R   0.617765 0.344887 0.944257 -0.154030
C33   C     C_R   0.815473 0.516496 0.412000 -0.203658
C34   C     C_R   0.955614 0.536327 0.325196 -0.191730
C35   C     C_R   0.184528 0.483488 0.587996 -0.203668
C36   C     C_R   0.768304 0.498071 0.499026 -0.071283
C37   C     C_R   0.231696 0.501917 0.500971 -0.071280
C38   C     C_R   0.813853 0.478994 0.586152 -0.264508
C39   C     C_R   0.186147 0.520982 0.413841 -0.264486
C40   C     C_R   0.906183 0.480027 0.587222 0.107932
C41   C     C_R   0.093817 0.519944 0.412768 0.107939
C42   C     C_R   0.953511 0.499334 0.499742 0.066477
C43   C     C_R   0.046490 0.500636 0.500249 0.066474
C44   C     C_R   0.907953 0.517338 0.411762 0.096766
C45   C     C_R   0.292982 0.252492 0.279501 -0.183336
C46   C     C_R   0.092048 0.482636 0.588230 0.096771
C47   C     C_R   0.951908 0.462331 0.674292 -0.210277
C48   C     C_R   0.048093 0.537637 0.325698 -0.210275
C49   C     C_R   0.707097 0.747530 0.720403 -0.183330
C50   C     C_R   0.336200 0.194979 0.356751 -0.110268
C51   C     C_R   0.663839 0.805049 0.643180 -0.110325
C52   C     C_R   0.412569 0.121020 0.339290 0.050651
Cl1   Cl    Cl    0.369730 0.678986 0.733672 -0.629703
Cl2   Cl    Cl    0.630272 0.321018 0.266327 -0.629690
Cl3   Cl    Cl    0.439606 0.139352 0.046532 -0.579573
Cl4   Cl    Cl    0.560509 0.860504 0.953462 -0.579558
Cu1   Cu    Cu3+1 0.500010 0.499980 0.597420 1.000132
Cu2   Cu    Cu3+1 0.499990 0.500020 0.402580 1.000128
H1    H     H_    0.780343 0.531149 0.344614 0.178334
H2    H     H_    0.663642 0.284261 0.904387 0.139859
H3    H     H_    0.777530 0.463418 0.653360 0.152082
H4    H     H_    0.222469 0.536560 0.346633 0.152067
H5    H     H_    0.916141 0.447589 0.741920 0.144168
H6    H     H_    0.083859 0.552379 0.258069 0.144164
H7    H     H_    0.078624 0.449750 0.742773 0.152647
H8    H     H_    0.921376 0.550222 0.257218 0.152653
H9    H     H_    0.234186 0.309207 0.293203 0.153214
H10   H     H_    0.765902 0.690846 0.706665 0.153234
H11   H     H_    0.502413 0.046266 0.228757 0.187466
H12   H     H_    0.219658 0.468841 0.655384 0.178329
H13   H     H_    0.497632 0.953655 0.771276 0.187481
H14   H     H_    0.291640 0.281553 0.125054 0.161961
H15   H     H_    0.708496 0.718415 0.874851 0.161955
H16   H     H_    0.310521 0.208455 0.430104 0.118387
H17   H     H_    0.689495 0.791603 0.569809 0.118389
H18   H     H_    0.434888 0.881133 0.364241 0.155846
H19   H     H_    0.565101 0.118863 0.635762 0.155850
H20   H     H_    0.602456 0.364096 0.750124 0.139376
H21   H     H_    0.397547 0.635908 0.249876 0.139374
H22   H     H_    0.334958 0.717631 0.919334 0.196104
H23   H     H_    0.665061 0.282400 0.080666 0.196114
H24   H     H_    0.336373 0.715766 0.095613 0.139854
N1    N     N_R   0.499960 0.499900 0.743810 -0.208894
N2    N     N_R   0.500040 0.500100 0.256190 -0.208891
O1    O     O_R   0.500000 0.319630 0.582270 -0.599991
O2    O     O_R   0.500000 0.680370 0.417730 -0.599992
O3    O     O_R   0.499990 0.319660 0.417730 -0.521052
O4    O     O_R   0.500010 0.680340 0.582270 -0.521049
O5    O     O_R   0.370260 0.499960 0.582280 -0.536898
O6    O     O_R   0.629740 0.500040 0.417720 -0.536899
O7    O     O_R   0.370250 0.499990 0.417740 -0.602348
O8    O     O_R   0.629750 0.500010 0.582260 -0.602336

loop_
_geom_bond_atom_site_label_1
_geom_bond_atom_site_label_2
_ccdc_geom_bond_type
C1    O3    A    
C40   C47   A    
C38   C40   A    
C49   H10   S    
Cu2   O3    S    
C34   H8    S    
C39   C41   A    
C31   H24   S    
Cu1   O5    S    
C7    C45   A    
C35   C37   A    
C24   C26   A    
C50   H16   S    
C47   H5    S    
C21   Cl2   S    
C11   C14   A    
C48   H6    S    
C33   C36   A    
C35   H12   S    
C49   C51   A    
C22   C25   A    
C45   H9    S    
C50   C52   A    
Cu1   N1    S    
C9    H18   S    
Cu2   O7    S    
C16   C37   S    
C38   H3    S    
C40   C42   A    
C16   O5    A    
C33   H1    S    
C23   C46   A    
C41   C43   A    
C17   O8    A    
C42   C44   A    
Cu2   O2    S    
C10   H19   S    
C17   O6    A    
C1    O1    A    
C23   C47   A    
C12   O4    A    
C34   C44   A    
C4    C6    A    
C10   C14   A    
C6    Cl4   S    
C7    H14   S    
C5    C7    A    
C6    C8    A    
C25   C26   A    
C2    C4    A    
Cu2   N2    S    
C9    C11   A    
C21   N2    A    
C18   H20   S    
C18   N1    A    
C15   C52   S    
C19   H21   S    
C19   C28   A    
Cu2   O6    S    
C17   C36   S    
C20   C22   A    
C13   C15   A    
C21   C24   A    
C1    C13   S    
C42   C43   A    
C32   H2    S    
C19   N2    A    
C39   H4    S    
C3    H11   S    
C27   C32   A    
C33   C44   A    
C5    Cl3   S    
C28   C31   A    
C18   C27   A    
C51   H17   S    
C20   Cl1   S    
C3    C5    A    
C10   C13   A    
C3    C52   A    
C25   C27   A    
C26   C28   A    
Cu1   O4    S    
C12   O2    A    
C23   H7    S    
C30   H23   S    
C36   C38   A    
C9    C15   A    
C37   C39   A    
C30   C32   A    
Cu1   Cu2   S    
C29   H22   S    
C45   C50   A    
C8    H15   S    
C41   C48   A    
Cu1   O1    S    
Cu1   O8    S    
C2    C14   S    
C43   C46   A    
C24   C30   A    
C2    C51   A    
C34   C48   A    
C16   O7    A    
C29   C31   A    
C20   N1    A    
C22   C29   A    
C35   C46   A    
C8    C49   A    
C4    H13   S    
C11   C12   S    
