data_mof_unit_48508.cif
_audit_creation_date              2012-12-10T19:04:43-0500
_audit_creation_method            fapswitch 2.2
_symmetry_space_group_name_H-M    P1
_symmetry_Int_Tables_number       1
_space_group_crystal_system       triclinic
_cell_length_a                    15.861537
_cell_length_b                    10.802617
_cell_length_c                    9.53838
_cell_angle_alpha                 90.039327
_cell_angle_beta                  89.964117
_cell_angle_gamma                 90.093198
_cell_volume                      1634.36143495

loop_
_atom_site_label
_atom_site_type_symbol
_atom_type_description
_atom_site_fract_x
_atom_site_fract_y
_atom_site_fract_z
_atom_type_partial_charge
C1    C     C_R   0.504973 0.262436 0.499859 0.808302
C2    C     C_3   0.082834 0.500764 0.500784 0.121566
C3    C     C_3   0.971303 0.585136 0.594111 -0.198012
C4    C     C_3   0.917012 0.500844 0.499973 0.147150
C5    C     C_3   0.027527 0.612723 0.465472 0.122167
C6    C     C_3   0.971882 0.530129 0.370961 -0.171604
C7    C     C_1   0.174577 0.500367 0.500521 -0.091759
C8    C     C_1   0.825408 0.500619 0.499743 -0.069437
C9    C     C_R   0.503090 0.063813 0.624419 0.035755
C10   C     C_R   0.518267 0.129446 0.500861 -0.223262
C11   C     C_R   0.546415 0.062655 0.381039 0.385186
C12   C     C_R   0.339818 0.499941 0.500036 0.822610
C13   C     C_R   0.540200 0.933510 0.381069 -0.203205
C14   C     C_R   0.511934 0.870561 0.501069 -0.262282
C15   C     C_R   0.501034 0.936715 0.625000 0.180871
C16   C     C_3   0.430849 0.932820 0.729318 0.214316
C17   C     C_3   0.433234 0.073688 0.729084 -0.494576
C18   C     C_R   0.537491 0.594302 0.073662 0.266647
C19   C     C_R   0.455747 0.414034 0.074431 -0.053766
C20   C     C_R   0.455645 0.414142 0.925490 -0.081423
C21   C     C_R   0.537488 0.594261 0.926315 0.335977
C22   C     C_3   0.627880 0.631901 0.920173 -0.493024
C23   C     C_R   0.501740 0.737698 0.500080 0.824143
C24   C     C_3   0.627959 0.631782 0.079373 -0.512251
C25   C     C_R   0.660179 0.500166 0.499971 0.815042
C26   C     C_3   0.971374 0.387231 0.535648 -0.165316
C27   C     C_3   0.028017 0.416929 0.407189 -0.210537
C28   C     C_1   0.250119 0.500134 0.500244 -0.184185
C29   C     C_1   0.749865 0.500417 0.499821 -0.187074
C30   C     C_3   0.027016 0.471818 0.627857 0.117939
Cu1   Cu    Cu3+1 0.500000 0.499980 0.640670 0.956136
Cu2   Cu    Cu3+1 0.500000 0.500020 0.359330 0.946526
H1    H     H_    0.052618 0.347729 0.331539 0.149736
H2    H     H_    0.375397 0.116185 0.684337 0.150938
H3    H     H_    0.455023 0.114722 0.829705 0.225605
H4    H     H_    0.421244 0.343049 0.130235 0.152968
H5    H     H_    0.420850 0.343528 0.869632 0.139832
H6    H     H_    0.669153 0.559212 0.874550 0.211756
H7    H     H_    0.636027 0.725761 0.874360 0.220533
H8    H     H_    0.669199 0.558937 0.124572 0.220007
H9    H     H_    0.636384 0.725547 0.125332 0.202883
H10   H     H_    0.947005 0.294351 0.564825 0.129409
H11   H     H_    0.947799 0.554906 0.265414 0.133808
H12   H     H_    0.947095 0.653942 0.670640 0.122350
H13   H     H_    0.556770 0.883044 0.286822 0.186809
H14   H     H_    0.371713 0.890705 0.687917 0.084189
N1    N     N_R   0.500530 0.500930 0.147930 -0.194343
N2    N     N_R   0.500530 0.500890 0.852020 -0.196795
O1    O     O_R   0.500000 0.319640 0.618810 -0.574225
O2    O     O_R   0.500010 0.319680 0.381230 -0.574189
O3    O     O_R   0.379070 0.499970 0.618770 -0.579149
O4    O     O_R   0.379080 0.500010 0.381190 -0.575920
O5    O     O_R   0.499990 0.680320 0.618770 -0.555303
O6    O     O_R   0.500000 0.680360 0.381190 -0.584570
O7    O     O_R   0.620920 0.499990 0.618810 -0.580632
O8    O     O_R   0.620930 0.500030 0.381230 -0.584403
O9    O     O_3   0.458187 0.882556 0.856731 -0.704584
H15   H     H_    0.408435 0.884155 0.919762 0.321166
C31   C     C_3   0.061743 0.740246 0.425774 -0.417724
C32   C     C_3   0.990082 0.832065 0.398494 -0.336624
C33   C     C_3   0.024491 0.959781 0.360732 -0.854633
H16   H     H_    0.063362 0.997019 0.448003 0.250339
H17   H     H_    0.063546 0.954421 0.264210 0.252620
H18   H     H_    0.971294 0.024281 0.341549 0.242450
H19   H     H_    0.950124 0.798035 0.310810 0.218686
H20   H     H_    0.950046 0.840549 0.493700 0.217748
H21   H     H_    0.102046 0.774631 0.512801 0.195689
H22   H     H_    0.101285 0.730825 0.330145 0.200001
C34   C     C_3   0.060264 0.438677 0.773279 -0.413467
C35   C     C_3   0.987775 0.414592 0.875992 -0.335751
C36   C     C_3   0.020958 0.381596 0.021245 -0.866518
H23   H     H_    0.060788 0.297234 0.016019 0.253620
H24   H     H_    0.058686 0.459401 0.064686 0.254633
H25   H     H_    0.967054 0.363167 0.092605 0.242987
H26   H     H_    0.947633 0.498520 0.884627 0.216794
H27   H     H_    0.948144 0.336916 0.837004 0.219595
H28   H     H_    0.100254 0.354658 0.764368 0.198552
H29   H     H_    0.099884 0.516398 0.812102 0.198977
O10   O     O_3   0.577566 0.118758 0.262041 -0.715494
H30   H     H_    0.609201 0.193550 0.291262 0.331024

loop_
_geom_bond_atom_site_label_1
_geom_bond_atom_site_label_2
_ccdc_geom_bond_type
C33   H18   S    
C18   C21   A    
C34   H28   S    
C2    C7    S    
C25   O8    A    
C4    C8    S    
C18   N1    A    
C12   O3    A    
C27   H1    S    
C26   C27   S    
C12   C28   S    
C18   C24   S    
C8    C29   T    
C19   H4    S    
C5    C6    S    
C19   N1    A    
C15   C16   S    
C22   H6    S    
C33   H17   S    
Cu2   O4    S    
C31   H21   S    
Cu1   Cu2   S    
C16   C17   S    
C35   C36   S    
C1    O2    A    
C21   N2    A    
C32   H20   S    
C31   C32   S    
C13   C14   A    
C24   H9    S    
C34   H29   S    
C34   C35   S    
Cu1   O1    S    
Cu2   O6    S    
C12   O4    A    
C23   O5    A    
C25   C29   S    
C3    H12   S    
C5    C31   S    
C4    C6    S    
C16   H14   S    
C36   H24   S    
C7    C28   T    
C32   C33   S    
C14   C23   S    
C3    C30   S    
C31   H22   S    
C6    C27   S    
Cu1   O5    S    
Cu2   O2    S    
C20   N2    A    
C11   O10   S    
C9    C17   S    
C32   H19   S    
C26   C30   S    
Cu1   N2    S    
C2    C27   S    
C35   H27   S    
Cu2   N1    S    
C22   C24   S    
C2    C5    S    
C17   H2    S    
C3    C4    S    
C30   C34   S    
C26   H10   S    
C23   O6    A    
C9    C10   A    
C14   C15   A    
C1    C10   S    
C25   O7    A    
Cu1   O3    S    
C3    C5    S    
C36   H25   S    
C4    C26   S    
C2    C30   S    
C19   C20   A    
C9    C15   A    
C36   H23   S    
C13   H13   S    
C20   H5    S    
C11   C13   A    
O9    H15   S    
C22   H7    S    
C24   H8    S    
C16   O9    S    
C33   H16   S    
C10   C11   A    
O10   H30   S    
C35   H26   S    
C6    H11   S    
C17   H3    S    
Cu1   O7    S    
C21   C22   S    
C1    O1    A    
Cu2   O8    S    
