data_mof_unit_31634.cif
_audit_creation_date              2012-12-10T17:17:26-0500
_audit_creation_method            fapswitch 2.2
_symmetry_space_group_name_H-M    P1
_symmetry_Int_Tables_number       1
_space_group_crystal_system       triclinic
_cell_length_a                    10.200296
_cell_length_b                    10.596593
_cell_length_c                    12.486987
_cell_angle_alpha                 90.114284
_cell_angle_beta                  110.36132
_cell_angle_gamma                 96.447987
_cell_volume                      1256.13835541

loop_
_atom_site_label
_atom_site_type_symbol
_atom_type_description
_atom_site_fract_x
_atom_site_fract_y
_atom_site_fract_z
_atom_type_partial_charge
C1    C     C_R   0.054927 0.734852 0.495820 0.891432
C2    C     C_R   0.439327 0.561548 0.983984 -0.000011
C3    C     C_R   0.369849 0.584459 0.869183 0.085951
C4    C     C_R   0.576971 0.528160 0.016331 0.030756
C5    C     C_R   0.654617 0.555500 0.942704 0.124662
C6    C     C_R   0.593314 0.612844 0.839456 -0.269193
C7    C     C_R   0.452147 0.634474 0.804722 0.174899
C8    C     C_R   0.640208 0.469093 0.119198 0.114819
C9    C     C_R   0.863984 0.501625 0.089295 -0.250238
C10   C     C_R   0.222039 0.572759 0.829734 -0.162486
C11   C     C_2   0.100145 0.872530 0.512739 -0.004924
C12   C     C_R   0.138878 0.527530 0.711597 0.859521
C13   C     C_2   0.042859 0.936290 0.575451 -0.239484
C14   C     C_2   0.929437 0.130830 0.536462 -0.000828
C15   C     C_2   0.047890 0.073764 0.574866 -0.236327
C16   C     C_2   0.436350 0.507071 0.510563 -0.138729
C17   C     C_2   0.570402 0.481122 0.495645 -0.141550
C18   C     C_R   0.949384 0.265744 0.511462 0.917095
C19   C     C_R   0.862923 0.482938 0.286472 0.873517
C20   C     C_R   0.795848 0.534847 0.977741 -0.200350
C21   C     C_R   0.788114 0.478958 0.163106 -0.061587
C22   C     C_R   0.156526 0.601659 0.906892 -0.238034
C23   C     C_R   0.237388 0.624158 0.023060 0.238461
C24   C     C_R   0.375488 0.591856 0.063025 -0.223284
H1    H     H_    0.976500 0.498158 0.119172 0.168564
H2    H     H_    0.975080 0.886329 0.616183 0.171184
H3    H     H_    0.572171 0.400625 0.442941 0.167847
H4    H     H_    0.442178 0.581173 0.571762 0.145085
H5    H     H_    0.682392 0.630294 0.594193 0.149790
H6    H     H_    0.657779 0.648710 0.790474 0.129552
H7    H     H_    0.855287 0.553577 0.921754 0.137360
H8    H     H_    0.046145 0.614156 0.875665 0.147725
H9    H     H_    0.435866 0.601031 0.153789 0.147320
H10   H     H_    0.150834 0.127626 0.592399 0.175356
N1    N     N_2   0.313640 0.446500 0.454900 -0.127799
N2    N     N_2   0.686360 0.553430 0.545150 -0.195452
O1    O     O_R   0.936910 0.692950 0.509080 -0.620547
O2    O     O_R   0.138320 0.658600 0.480130 -0.615502
O3    O     O_R   0.002900 0.525670 0.675280 -0.605377
O4    O     O_R   0.204310 0.491320 0.646330 -0.612901
O5    O     O_R   0.861680 0.341400 0.519870 -0.590258
O6    O     O_R   0.063090 0.307050 0.490920 -0.620048
O7    O     O_R   0.795690 0.508680 0.353670 -0.604637
O8    O     O_R   0.997100 0.474330 0.324720 -0.612252
Zn1   Zn    Zn3+2 0.865520 0.522940 0.519330 0.918604
Zn2   Zn    Zn3+2 0.134480 0.477060 0.480670 0.928295
C25   C     C_3   0.785219 0.054860 0.515856 -0.410668
C26   C     C_3   0.659520 0.130847 0.486525 -0.859309
H11   H     H_    0.670600 0.196694 0.559276 0.276602
H12   H     H_    0.648691 0.184385 0.408527 0.266263
H13   H     H_    0.561569 0.064625 0.470084 0.244015
H14   H     H_    0.764153 0.982310 0.445592 0.221144
H15   H     H_    0.788966 0.004003 0.594437 0.214091
C27   C     C_3   0.201146 0.943311 0.460621 -0.402818
C28   C     C_3   0.271862 0.860840 0.402009 -0.859648
H16   H     H_    0.343184 0.802686 0.464996 0.264741
H17   H     H_    0.191378 0.798764 0.333262 0.276348
H18   H     H_    0.336776 0.923058 0.363376 0.244642
H19   H     H_    0.142677 0.009125 0.397203 0.229224
H20   H     H_    0.286872 0.001498 0.529289 0.213267
C29   C     C_1   0.302198 0.350606 0.374542 0.281238
N3    N     N_1   0.292391 0.270845 0.307763 -0.274600
C30   C     C_3   0.552231 0.377799 0.169420 -0.413481
C31   C     C_3   0.596076 0.243886 0.175772 -0.863682
H21   H     H_    0.591866 0.209701 0.090328 0.267379
H22   H     H_    0.704370 0.242269 0.238031 0.244913
H23   H     H_    0.522489 0.177770 0.203198 0.254430
H24   H     H_    0.558620 0.413017 0.254611 0.220196
H25   H     H_    0.439199 0.367041 0.114947 0.222997
C32   C     C_3   0.182573 0.694047 0.100288 -0.443074
C33   C     C_3   0.247122 0.833097 0.116667 -0.853187
H26   H     H_    0.360559 0.841231 0.170330 0.259536
H27   H     H_    0.235951 0.874451 0.032675 0.263321
H28   H     H_    0.191467 0.889206 0.158484 0.255479
H29   H     H_    0.207350 0.648774 0.184109 0.207654
H30   H     H_    0.066674 0.692429 0.061509 0.208901
C34   C     C_3   0.408260 0.743869 0.727698 -0.413194
C35   C     C_3   0.416809 0.864758 0.797864 -0.858823
H31   H     H_    0.525757 0.890359 0.859210 0.264888
H32   H     H_    0.387530 0.944386 0.739979 0.249374
H33   H     H_    0.343012 0.851346 0.845780 0.263572
H34   H     H_    0.477407 0.764335 0.676462 0.186467
H35   H     H_    0.299902 0.722084 0.668252 0.225808

loop_
_geom_bond_atom_site_label_1
_geom_bond_atom_site_label_2
_ccdc_geom_bond_type
C16   H4    S    
C28   H16   S    
C14   C18   S    
C1    C11   S    
C4    C8    A    
C9    H1    S    
C5    C20   A    
C27   H20   S    
C34   C35   S    
C10   C22   A    
O4    Zn2   S    
H5    N2    S    
C22   H8    S    
C19   C21   S    
C3    C7    A    
C18   O6    A    
C16   N1    D    
C5    C6    A    
C35   H32   S    
C34   H35   S    
O6    Zn2   S    
C30   H24   S    
C26   H13   S    
C30   H25   S    
C19   O7    A    
C16   C17   S    
C23   C24   A    
C32   C33   S    
C17   N2    D    
C15   H10   S    
C1    O1    A    
C7    C34   S    
C26   H12   S    
C23   C32   S    
O8    Zn2   S    
C6    C7    A    
C27   H19   S    
C17   H3    S    
C31   H23   S    
C18   O5    A    
C33   H27   S    
C35   H31   S    
C31   H22   S    
C12   O4    A    
C2    C4    A    
C9    C20   A    
C25   C26   S    
C8    C21   A    
N2    Zn1   S    
N1    C29   S    
O7    Zn1   S    
C14   C25   S    
C11   C27   S    
C10   C12   S    
C1    O2    A    
C26   H11   S    
C6    H6    S    
C13   C15   S    
C32   H30   S    
C13   H2    S    
O1    Zn1   S    
C19   O8    A    
C27   C28   S    
C14   C15   D    
C4    C5    A    
C33   H28   S    
C25   H14   S    
C24   H9    S    
O3    Zn1   S    
C31   H21   S    
C12   O3    A    
C28   H17   S    
C2    C3    A    
C33   H26   S    
C3    C10   A    
C2    C24   A    
C11   C13   D    
C35   H33   S    
C9    C21   A    
C34   H34   S    
C25   H15   S    
C29   N3    T    
O2    Zn2   S    
C8    C30   S    
C30   C31   S    
C28   H18   S    
C32   H29   S    
O5    Zn1   S    
C22   C23   A    
N1    Zn2   S    
C20   H7    S    
