data_mof_unit_11585.cif
_audit_creation_date              2012-12-10T18:45:11-0500
_audit_creation_method            fapswitch 2.2
_symmetry_space_group_name_H-M    P1
_symmetry_Int_Tables_number       1
_space_group_crystal_system       triclinic
_cell_length_a                    10.712973
_cell_length_b                    9.810881
_cell_length_c                    10.631879
_cell_angle_alpha                 89.95275
_cell_angle_beta                  90.105052
_cell_angle_gamma                 90.005154
_cell_volume                      1117.44759287

loop_
_atom_site_label
_atom_site_type_symbol
_atom_type_description
_atom_site_fract_x
_atom_site_fract_y
_atom_site_fract_z
_atom_type_partial_charge
C1    C     C_R   0.259811 0.499961 0.500007 0.864549
C2    C     C_R   0.740195 0.499977 0.500077 0.863823
C3    C     C_R   0.936133 0.620588 0.528258 -0.190088
C4    C     C_R   0.064029 0.620525 0.528486 -0.201913
C5    C     C_R   0.567688 0.071960 0.587202 -0.078639
C6    C     C_R   0.432293 0.072104 0.412811 -0.080507
C7    C     C_R   0.567741 0.927866 0.587162 -0.092189
C8    C     C_R   0.432242 0.928011 0.412852 -0.091815
C9    C     C_R   0.513837 0.500502 0.260019 0.892176
C10   C     C_R   0.486070 0.500374 0.739943 0.893007
C11   C     C_R   0.580097 0.751716 0.103239 0.220363
C12   C     C_R   0.416936 0.750609 0.896046 0.227401
C13   C     C_R   0.540947 0.874493 0.048589 -0.226657
C14   C     C_R   0.454714 0.873911 0.950488 -0.224463
C15   C     C_R   0.469376 0.626355 0.941265 0.048386
C16   C     C_R   0.528866 0.626773 0.058414 0.048680
C17   C     C_R   0.529033 0.501955 0.125615 -0.121590
C18   C     C_R   0.470635 0.501553 0.874297 -0.121079
C19   C     C_R   0.512391 0.378000 0.063215 -0.217984
C20   C     C_R   0.488582 0.377831 0.936898 -0.216318
C21   C     C_R   0.063877 0.379493 0.471955 -0.191777
C22   C     C_R   0.936010 0.379518 0.471888 -0.199440
C23   C     C_R   0.872589 0.500051 0.500022 -0.013584
C24   C     C_R   0.127427 0.499990 0.500211 -0.012120
H1    H     H_    0.516498 0.280986 0.111889 0.164650
H2    H     H_    0.485622 0.280769 0.888369 0.165052
H3    H     H_    0.576096 0.970989 0.083287 0.152159
H4    H     H_    0.418628 0.969931 0.915512 0.152851
H5    H     H_    0.112604 0.285967 0.449080 0.154240
H6    H     H_    0.887182 0.285990 0.449042 0.156734
H7    H     H_    0.887378 0.714128 0.551031 0.154955
H8    H     H_    0.112899 0.713992 0.551496 0.158920
H9    H     H_    0.621729 0.126666 0.656830 0.129999
H10   H     H_    0.378230 0.126924 0.343199 0.127488
H11   H     H_    0.621703 0.873000 0.656830 0.139620
H12   H     H_    0.378297 0.873259 0.343173 0.142731
N1    N     N_R   0.500000 0.857200 0.500000 -0.089368
N2    N     N_R   0.500000 0.142810 0.500000 -0.078412
O1    O     O_R   0.316770 0.614620 0.499990 -0.628371
O2    O     O_R   0.683230 0.614620 0.500010 -0.628930
O3    O     O_R   0.316800 0.385290 0.500000 -0.624561
O4    O     O_R   0.683200 0.385290 0.500000 -0.624680
O5    O     O_R   0.500010 0.614690 0.316770 -0.608619
O6    O     O_R   0.499990 0.614690 0.683230 -0.609972
O7    O     O_R   0.500040 0.385360 0.316770 -0.627088
O8    O     O_R   0.499960 0.385360 0.683230 -0.625138
Zn1   Zn    Zn3+2 0.500000 0.653120 0.500000 0.929796
Zn2   Zn    Zn3+2 0.500000 0.346880 0.500000 0.937963
C25   C     C_3   0.687510 0.757755 0.195129 -0.846494
H13   H     H_    0.766637 0.813666 0.151734 0.219135
H14   H     H_    0.659036 0.812861 0.281550 0.258866
H15   H     H_    0.722542 0.654915 0.220508 0.225667
C26   C     C_3   0.309879 0.755241 0.803648 -0.861354
H16   H     H_    0.230016 0.810315 0.846480 0.220055
H17   H     H_    0.338228 0.810500 0.717174 0.258947
H18   H     H_    0.275937 0.651964 0.778431 0.224935

loop_
_geom_bond_atom_site_label_1
_geom_bond_atom_site_label_2
_ccdc_geom_bond_type
C10   O8    A    
C15   C18   A    
C6    N2    A    
C9    O7    A    
C11   C25   S    
C13   C14   A    
N1    Zn1   S    
O6    Zn1   S    
C22   H6    S    
C11   C16   A    
C3    C23   A    
C12   C26   S    
C12   C15   A    
C25   H15   S    
C6    H10   S    
C25   H14   S    
C7    N1    A    
O4    Zn2   S    
C26   H16   S    
C3    H7    S    
C11   C13   A    
C4    H8    S    
C21   H5    S    
C2    O4    A    
C19   H1    S    
C1    O3    A    
C17   C19   A    
O3    Zn2   S    
C10   C18   S    
C18   C20   A    
C26   H17   S    
C4    C24   A    
O8    Zn2   S    
C9    O5    A    
C8    N1    A    
C21   C24   A    
C10   O6    A    
C15   C16   A    
C2    O2    A    
C7    H11   S    
N2    Zn2   S    
C5    N2    A    
C1    C24   S    
O1    Zn1   S    
C25   H13   S    
C8    H12   S    
C26   H18   S    
C9    C17   S    
C2    C23   S    
C5    C7    A    
C1    O1    A    
C22   C23   A    
C13   H3    S    
C6    C8    A    
O7    Zn2   S    
C14   H4    S    
C21   C22   A    
O2    Zn1   S    
O5    Zn1   S    
C3    C4    A    
C19   C20   A    
C12   C14   A    
C16   C17   A    
C20   H2    S    
C5    H9    S    
