data_mof_unit_11622.cif
_audit_creation_date              2012-12-11T16:07:30-0500
_audit_creation_method            fapswitch 2.2
_symmetry_space_group_name_H-M    P1
_symmetry_Int_Tables_number       1
_space_group_crystal_system       triclinic
_cell_length_a                    6.92675
_cell_length_b                    14.498968
_cell_length_c                    15.812033
_cell_angle_alpha                 90.26158
_cell_angle_beta                  89.864686
_cell_angle_gamma                 90.116495
_cell_volume                      1587.98973725

loop_
_atom_site_label
_atom_site_type_symbol
_atom_type_description
_atom_site_fract_x
_atom_site_fract_y
_atom_site_fract_z
_atom_type_partial_charge
O1    O     O_R   0.494320 0.415010 0.412140 -0.539288
O2    O     O_R   0.824010 0.404260 0.587250 -0.537299
O3    O     O_R   0.994320 0.584990 0.587860 -0.534834
C1    C     C_R   0.654882 0.380627 0.615387 0.680634
O4    O     O_R   0.824040 0.403870 0.412760 -0.547004
O5    O     O_R   0.994350 0.584590 0.412130 -0.537194
C2    C     C_R   0.655168 0.380702 0.384004 0.655824
O6    O     O_R   0.494300 0.415410 0.587870 -0.550705
O7    O     O_3   0.660800 0.559290 0.500000 -0.357557
V1    V     V_3+5 0.935650 0.489000 0.500000 1.403936
O8    O     O_R   0.324060 0.595740 0.412750 -0.517874
C3    C     C_R   0.155700 0.618080 0.383458 0.674158
O9    O     O_R   0.324040 0.596130 0.587240 -0.546576
C4    C     C_R   0.154748 0.618431 0.616378 0.675970
V2    V     V_3+5 0.435660 0.511000 0.500000 1.417853
O10   O     O_3   0.160640 0.440710 0.500000 -0.376399
C5    C     C_3   0.953302 0.727100 0.724660 -0.109635
C6    C     C_3   0.036064 0.713833 0.814721 -0.138031
H1    H     H_    0.957819 0.685441 0.870120 0.088701
H2    H     H_    0.805028 0.707953 0.704492 0.106371
C7    C     C_3   0.122969 0.811361 0.811261 -0.004826
C8    C     C_3   0.040201 0.825619 0.722000 -0.149116
C9    C     C_3   0.229258 0.786385 0.683444 -0.147856
C10   C     C_3   0.311963 0.772910 0.773535 -0.119234
C11   C     C_3   0.224749 0.674528 0.776229 -0.140875
C12   C     C_3   0.142507 0.688645 0.686881 0.000114
H3    H     H_    0.963830 0.888359 0.700141 0.091022
H4    H     H_    0.309121 0.815985 0.628969 0.093732
H5    H     H_    0.460301 0.791751 0.793844 0.108815
H6    H     H_    0.297369 0.611468 0.799010 0.089573
C13   C     C_3   0.338016 0.795754 0.212650 -0.356107
H7    H     H_    0.422362 0.771520 0.157047 0.153704
H8    H     H_    0.405190 0.862435 0.232089 0.101783
C14   C     C_3   0.351952 0.727113 0.287061 0.396845
H9    H     H_    0.398501 0.769555 0.342311 0.060363
H10   H     H_    0.114641 0.690130 0.104939 0.114641
H11   H     H_    0.096291 0.581295 0.212595 0.104894
C15   C     C_3   0.034407 0.718436 0.160200 -0.332052
C16   C     C_3   0.013533 0.846414 0.267713 -0.338999
C17   C     C_3   0.123431 0.812192 0.187537 0.065591
H12   H     H_    0.859194 0.858851 0.252098 0.157220
H13   H     H_    0.075527 0.913264 0.289460 0.117799
C18   C     C_3   0.146463 0.688567 0.312362 0.027112
C19   C     C_3   0.038133 0.648377 0.234133 -0.334304
C20   C     C_3   0.026119 0.774344 0.340549 -0.401691
H14   H     H_    0.092209 0.807047 0.397353 0.112119
H15   H     H_    0.877564 0.753028 0.359191 0.189591
H16   H     H_    0.882376 0.728470 0.139582 0.157610
H17   H     H_    0.887268 0.632830 0.253013 0.193525
C21   C     C_3   0.493099 0.233479 0.665520 -0.423220
H18   H     H_    0.347698 0.264907 0.658077 0.147792
H19   H     H_    0.529877 0.199342 0.604412 0.140942
C22   C     C_3   0.484727 0.160121 0.736813 -0.341326
H20   H     H_    0.524662 0.091403 0.710564 0.134887
H21   H     H_    0.333866 0.154731 0.760704 0.147125
H22   H     H_    0.440713 0.388513 0.761925 0.030111
H23   H     H_    0.416135 0.282635 0.866554 0.100624
C23   C     C_3   0.586464 0.356813 0.771179 0.385319
C24   C     C_3   0.842289 0.260432 0.698779 -0.295734
C25   C     C_3   0.644753 0.309617 0.686084 0.057912
H24   H     H_    0.958647 0.311611 0.711645 0.172904
H25   H     H_    0.883282 0.222958 0.639842 0.118786
C26   C     C_3   0.623512 0.186085 0.810257 0.065361
C27   C     C_3   0.567462 0.283560 0.842712 -0.350690
C28   C     C_3   0.831682 0.191590 0.773034 -0.314055
H26   H     H_    0.878280 0.122249 0.750518 0.126248
H27   H     H_    0.934814 0.213782 0.823090 0.152404
H28   H     H_    0.660592 0.302715 0.897357 0.147356
C29   C     C_3   0.549031 0.351235 0.233582 -0.321597
H29   H     H_    0.401148 0.375630 0.249456 0.128650
H30   H     H_    0.635442 0.411196 0.211891 0.116179
C30   C     C_3   0.535876 0.279692 0.160642 -0.325841
H31   H     H_    0.613658 0.306305 0.104081 0.118595
H32   H     H_    0.381960 0.270145 0.142447 0.137946
H33   H     H_    0.375962 0.245580 0.358573 0.138152
H34   H     H_    0.357813 0.139654 0.250915 0.134150
C31   C     C_3   0.524400 0.223905 0.340275 -0.322968
C32   C     C_3   0.849432 0.275078 0.287316 -0.318212
C33   C     C_3   0.644980 0.309338 0.313197 0.122348
H35   H     H_    0.922099 0.243021 0.342566 0.131286
H36   H     H_    0.940257 0.334400 0.266832 0.131477
C34   C     C_3   0.623656 0.186306 0.187825 0.122472
C35   C     C_3   0.512047 0.152033 0.267081 -0.324778
C36   C     C_3   0.837178 0.203938 0.214498 -0.304926
H37   H     H_    0.921915 0.229797 0.159549 0.137691
H38   H     H_    0.904857 0.138205 0.235117 0.127816
H39   H     H_    0.590978 0.191438 0.396747 0.112794
H40   H     H_    0.573014 0.085145 0.288455 0.114575
O11   O     O_R   0.771990 0.083520 0.910980 -0.540688
O12   O     O_R   0.442180 0.095020 0.086060 -0.542993
O13   O     O_R   0.271950 0.914280 0.086680 -0.540566
C37   C     C_R   0.611348 0.116519 0.116052 0.652925
O14   O     O_R   0.442270 0.094630 0.911580 -0.541864
O15   O     O_R   0.272040 0.913890 0.910940 -0.538631
C38   C     C_R   0.611546 0.116050 0.881609 0.675263
O16   O     O_R   0.771900 0.083910 0.086710 -0.541154
O17   O     O_3   0.605520 0.939610 0.998840 -0.365810
V3    V     V_3+5 0.330640 0.009880 0.998810 1.372935
O18   O     O_R   0.942330 0.902710 0.911540 -0.540881
C39   C     C_R   0.111451 0.880899 0.882136 0.677396
O19   O     O_R   0.942240 0.903100 0.086030 -0.543476
C40   C     C_R   0.111093 0.881809 0.116040 0.673817
V4    V     V_3+5 0.830640 0.987830 0.998780 1.374817
O20   O     O_3   0.105630 0.058150 0.998800 -0.368669
O21   O     O_3   0.505266 0.662613 0.277164 -0.553369
C41   C     C_3   0.472556 0.594920 0.214597 -0.257313
H41   H     H_    0.397623 0.620530 0.157662 0.127115
H42   H     H_    0.394200 0.536023 0.242786 0.135051
H43   H     H_    0.613979 0.569093 0.192202 0.130519
O22   O     O_3   0.731237 0.421806 0.794149 -0.555622
C42   C     C_3   0.650392 0.509324 0.809279 -0.304008
H44   H     H_    0.538828 0.506215 0.859943 0.129154
H45   H     H_    0.589999 0.538199 0.749931 0.138208
H46   H     H_    0.766169 0.556279 0.831191 0.167251

loop_
_geom_bond_atom_site_label_1
_geom_bond_atom_site_label_2
_ccdc_geom_bond_type
C19   H17   S    
O18   V4    S    
C26   C28   S    
O19   C40   A    
C6    C7    S    
C42   H44   S    
C1    O6    A    
O17   V3    S    
C16   H12   S    
C22   H20   S    
C5    C12   S    
C27   H28   S    
C36   H38   S    
C14   H9    S    
C3    C18   S    
O5    C3    A    
C32   H35   S    
C9    C12   S    
C41   H41   S    
C31   C35   S    
C23   C25   S    
V2    O10   S    
C26   C38   S    
C37   O16   A    
C5    H2    S    
C34   C37   S    
C13   C17   S    
C6    H1    S    
C20   H15   S    
C29   H30   S    
C10   H5    S    
O22   C42   S    
O8    V2    S    
C13   H7    S    
C28   H27   S    
C21   H19   S    
C9    C10   S    
C13   H8    S    
O1    V2    S    
O7    V1    S    
C15   H16   S    
C16   C20   S    
C22   H21   S    
C35   H40   S    
C24   C25   S    
O19   V4    S    
O1    C2    A    
O9    C4    A    
O11   V4    S    
C6    C11   S    
H34   C35   S    
C21   H18   S    
C16   H13   S    
C31   C33   S    
C23   C27   S    
C24   H24   S    
C21   C22   S    
C10   C11   S    
C30   H32   S    
C16   C17   S    
O4    C2    A    
C7    C39   S    
C32   C33   S    
C11   C12   S    
C20   H14   S    
C4    C12   S    
O11   C38   A    
C29   C30   S    
O2    C1    A    
C18   C19   S    
C15   C19   S    
C18   C20   S    
O12   C37   A    
O18   C39   A    
O15   C39   A    
C1    C25   S    
C5    C6    S    
C13   C14   S    
C42   H45   S    
C9    H4    S    
C36   H37   S    
H33   C31   S    
O17   V4    S    
O3    C4    A    
C28   H26   S    
O6    V2    S    
C34   C36   S    
C8    H3    S    
O9    V2    S    
C29   C33   S    
C7    C10   S    
O13   C40   A    
O2    V1    S    
H23   C27   S    
C2    C33   S    
C11   H6    S    
C24   H25   S    
C23   O22   S    
C14   O21   S    
C14   C18   S    
C30   H31   S    
O5    V1    S    
O8    C3    A    
O21   C41   S    
C5    C8    S    
C21   C25   S    
H11   C19   S    
H10   C15   S    
O7    V2    S    
O4    V1    S    
O3    V1    S    
V1    O10   S    
C24   C28   S    
C15   C17   S    
C22   C26   S    
C32   H36   S    
C41   H42   S    
V3    O20   S    
H22   C23   S    
C42   H46   S    
O13   V3    S    
C29   H29   S    
C17   C40   S    
C26   C27   S    
C32   C36   S    
C31   H39   S    
O14   C38   A    
C34   C35   S    
O16   V4    S    
V4    O20   S    
O15   V3    S    
C8    C9    S    
C7    C8    S    
O14   V3    S    
O12   V3    S    
C30   C34   S    
C41   H43   S    
