data_mof_unit_41918.cif
_audit_creation_date              2012-12-10T18:22:14-0500
_audit_creation_method            fapswitch 2.2
_symmetry_space_group_name_H-M    P1
_symmetry_Int_Tables_number       1
_space_group_crystal_system       triclinic
_cell_length_a                    14.990112
_cell_length_b                    14.003876
_cell_length_c                    15.745721
_cell_angle_alpha                 90.233132
_cell_angle_beta                  89.852147
_cell_angle_gamma                 90.105487
_cell_volume                      3305.29264591

loop_
_atom_site_label
_atom_site_type_symbol
_atom_type_description
_atom_site_fract_x
_atom_site_fract_y
_atom_site_fract_z
_atom_type_partial_charge
C1    C     C_R   0.326567 0.499875 0.499366 0.896891
C2    C     C_3   0.611265 0.485263 0.952639 0.322352
C3    C     C_3   0.603197 0.497304 0.051453 -0.576150
C4    C     C_1   0.508716 0.500541 0.825453 0.094932
C5    C     C_1   0.502552 0.499136 0.174400 0.046362
C6    C     C_1   0.501364 0.499386 0.249577 -0.210740
C7    C     C_R   0.814372 0.579944 0.458414 0.588468
C8    C     C_R   0.769378 0.500209 0.491089 -0.207790
C9    C     C_R   0.815349 0.418737 0.515650 -0.305343
C10   C     C_R   0.907183 0.417110 0.511785 0.054194
C11   C     C_R   0.953885 0.497917 0.481351 -0.064744
C12   C     C_R   0.500162 0.499820 0.338228 0.903760
C13   C     C_R   0.907574 0.579274 0.451749 -0.070071
C14   C     C_R   0.952676 0.336184 0.539830 -0.271264
C15   C     C_R   0.044994 0.335488 0.540755 0.611546
C16   C     C_R   0.092273 0.416230 0.513686 -0.000484
C17   C     C_R   0.046795 0.497504 0.482576 -0.026154
C18   C     C_R   0.094439 0.578828 0.455091 0.081019
C19   C     C_R   0.049375 0.658423 0.421412 0.113796
C20   C     C_R   0.955373 0.658111 0.418136 0.172031
C21   C     C_R   0.184360 0.417729 0.518527 -0.183402
C22   C     C_R   0.230975 0.499246 0.494297 -0.114659
C23   C     C_R   0.673553 0.500175 0.498022 0.929847
C24   C     C_R   0.186905 0.579049 0.462686 -0.209559
C25   C     C_R   0.556219 0.797002 0.446225 -0.005947
C26   C     C_R   0.556175 0.202592 0.446234 -0.033743
C27   C     C_R   0.443997 0.798760 0.552725 -0.058120
C28   C     C_R   0.443692 0.201491 0.552467 -0.047041
C29   C     C_R   0.442751 0.899201 0.552824 0.044044
C30   C     C_R   0.442446 0.101001 0.552597 0.043748
C31   C     C_R   0.499785 0.949334 0.496999 0.044925
C32   C     C_R   0.499401 0.050539 0.496725 0.033035
C33   C     C_R   0.557304 0.898136 0.442329 -0.088156
C34   C     C_R   0.556270 0.101488 0.441597 -0.068654
C35   C     C_R   0.385892 0.950222 0.607470 -0.199996
C36   C     C_R   0.385780 0.050249 0.607396 -0.186358
C37   C     C_R   0.612326 0.050676 0.384577 0.184900
C38   C     C_R   0.613305 0.949106 0.385311 0.141237
C39   C     C_R   0.500106 0.500186 0.661788 0.904030
C40   C     C_3   0.456809 0.591092 0.049266 -0.088319
C41   C     C_3   0.450878 0.411420 0.048476 -0.062691
C42   C     C_3   0.448909 0.414563 0.948829 0.663371
C43   C     C_3   0.470276 0.597236 0.950860 0.726437
C44   C     C_1   0.504119 0.500599 0.750352 -0.176491
C45   C     C_3   0.504289 0.499452 0.082890 -0.022022
C46   C     C_3   0.512035 0.499426 0.917043 -0.079930
H1    H     H_    0.219934 0.356268 0.542790 0.206609
H2    H     H_    0.225408 0.640845 0.443481 0.192741
H3    H     H_    0.599568 0.754432 0.406504 0.184909
H4    H     H_    0.600692 0.244515 0.407123 0.170401
H5    H     H_    0.400401 0.759071 0.594717 0.141342
H6    H     H_    0.400040 0.241397 0.594408 0.140029
H7    H     H_    0.341713 0.912717 0.650555 0.148945
H8    H     H_    0.341573 0.087960 0.650468 0.154767
H9    H     H_    0.383802 0.581287 0.060496 0.201109
H10   H     H_    0.380379 0.419977 0.070193 0.184395
H11   H     H_    0.636710 0.564255 0.072129 0.180236
H12   H     H_    0.641590 0.441024 0.084918 0.189819
H13   H     H_    0.779633 0.357224 0.540205 0.185061
H14   H     H_    0.916690 0.274006 0.562422 0.172674
N1    N     N_R   0.500070 0.750030 0.500040 -0.112616
N2    N     N_R   0.500070 0.249970 0.500040 -0.113520
O1    O     O_R   0.367860 0.580280 0.500020 -0.629215
O2    O     O_R   0.367860 0.419720 0.500020 -0.623035
O3    O     O_R   0.500020 0.580310 0.377140 -0.620347
O4    O     O_R   0.500020 0.419690 0.377140 -0.622318
O5    O     O_R   0.632160 0.580270 0.499980 -0.559314
O6    O     O_R   0.632160 0.419730 0.499980 -0.641273
O7    O     O_R   0.500010 0.580240 0.622850 -0.611319
O8    O     O_R   0.500010 0.419760 0.622850 -0.623566
Zn1   Zn    Zn3+2 0.500020 0.607200 0.499990 0.974682
Zn2   Zn    Zn3+2 0.500020 0.392800 0.499990 0.946381
F1    F     F_    0.386325 0.608640 0.914374 -0.618072
F2    F     F_    0.361901 0.435162 0.924140 -0.626025
F3    F     F_    0.087925 0.256768 0.569735 -0.675756
N3    N     N_2   0.099186 0.738248 0.390894 -0.314540
H15   H     H_    0.077443 0.805463 0.407626 0.227254
C47   C     C_3   0.136206 0.729851 0.306129 -0.786689
H16   H     H_    0.099767 0.777564 0.262092 0.237392
H17   H     H_    0.132342 0.655329 0.281639 0.247877
H18   H     H_    0.207341 0.751892 0.307381 0.245478
N4    N     N_2   0.908983 0.735061 0.378915 -0.239021
H19   H     H_    0.933577 0.802453 0.390776 0.217124
C48   C     C_3   0.886997 0.719081 0.290541 -0.689398
H20   H     H_    0.948643 0.713385 0.251703 0.219526
H21   H     H_    0.846693 0.779734 0.266758 0.227292
H22   H     H_    0.847248 0.652560 0.283034 0.253536
N5    N     N_2   0.670898 0.101795 0.329302 -0.306705
H23   H     H_    0.730495 0.068117 0.316165 0.254663
C49   C     C_3   0.629538 0.140974 0.254093 -0.800501
H24   H     H_    0.677554 0.188914 0.221425 0.241249
H25   H     H_    0.569349 0.183188 0.270645 0.244540
H26   H     H_    0.610305 0.083063 0.209570 0.242842
N6    N     N_2   0.672512 0.899818 0.329414 -0.316584
H27   H     H_    0.712547 0.850369 0.359048 0.263113
C50   C     C_3   0.632188 0.863714 0.252209 -0.791289
H28   H     H_    0.685161 0.837122 0.208823 0.238580
H29   H     H_    0.594782 0.920788 0.219290 0.248592
H30   H     H_    0.585842 0.803931 0.266269 0.236924
N7    N     N_2   0.484210 0.320436 0.081417 -0.289048
H31   H     H_    0.551425 0.315521 0.093275 0.235479
C51   C     C_3   0.430336 0.272825 0.145053 -0.794161
H32   H     H_    0.455168 0.198931 0.153924 0.241725
H33   H     H_    0.359570 0.268327 0.124723 0.244434
H34   H     H_    0.434497 0.311469 0.206574 0.251589
N8    N     N_2   0.484785 0.678640 0.093153 -0.304188
H35   H     H_    0.549421 0.681822 0.115027 0.235253
C52   C     C_3   0.420096 0.724133 0.148374 -0.783806
H36   H     H_    0.446571 0.793983 0.170492 0.237951
H37   H     H_    0.406400 0.678554 0.204458 0.246497
H38   H     H_    0.357071 0.737407 0.113426 0.255740
N9    N     N_2   0.472155 0.321532 0.911552 -0.313667
H39   H     H_    0.504451 0.323287 0.853836 0.219635
C53   C     C_3   0.403168 0.248790 0.911171 -0.640406
H40   H     H_    0.433983 0.177891 0.899556 0.207475
H41   H     H_    0.354558 0.263220 0.859653 0.255053
H42   H     H_    0.367090 0.246402 0.972627 0.260117
N10   N     N_2   0.525611 0.679409 0.927470 -0.317150
H43   H     H_    0.581338 0.690966 0.964282 0.222074
C54   C     C_3   0.480984 0.767194 0.904283 -0.656185
H44   H     H_    0.531439 0.822994 0.889748 0.203330
H45   H     H_    0.438121 0.792747 0.957292 0.257707
H46   H     H_    0.440025 0.755944 0.846414 0.271563
N11   N     N_2   0.677632 0.556435 0.923861 -0.300125
H47   H     H_    0.738433 0.549379 0.953864 0.240176
C55   C     C_3   0.687903 0.589098 0.836599 -0.766967
H48   H     H_    0.748063 0.635239 0.832069 0.231403
H49   H     H_    0.631209 0.633632 0.816284 0.263296
H50   H     H_    0.696661 0.529877 0.791011 0.240240
N12   N     N_2   0.646150 0.388684 0.936331 -0.304633
H51   H     H_    0.624467 0.332748 0.973091 0.229007
C56   C     C_3   0.690456 0.361519 0.858098 -0.770682
H52   H     H_    0.704003 0.283563 0.858513 0.232233
H53   H     H_    0.755874 0.398218 0.852998 0.260110
H54   H     H_    0.647855 0.376422 0.802376 0.230973
F4    F     F_    0.766879 0.657934 0.434542 -0.674115

loop_
_geom_bond_atom_site_label_1
_geom_bond_atom_site_label_2
_ccdc_geom_bond_type
C43   F1    S    
C15   F3    S    
C16   C21   A    
C20   N4    S    
C27   C29   A    
C34   C37   A    
C11   C13   A    
C41   C42   S    
C37   N5    S    
C19   C20   A    
C48   H22   S    
N9    C53   S    
C53   H40   S    
C7    C8    A    
C4    C46   S    
C2    C46   S    
C55   H48   S    
N8    C52   S    
C18   C24   A    
N11   C55   S    
C19   N3    S    
C48   H21   S    
C26   H4    S    
C6    C12   S    
C5    C6    T    
C51   H33   S    
C47   H17   S    
C35   H7    S    
N8    H35   S    
C15   C16   A    
C50   H30   S    
C8    C23   S    
C52   H36   S    
C51   H34   S    
C18   C19   A    
C42   C46   S    
C23   O5    A    
O7    Zn1   S    
C42   N9    S    
N10   H43   S    
C27   N1    A    
C26   C34   A    
C40   C43   S    
O4    Zn2   S    
C35   C36   A    
C54   H45   S    
C8    C9    A    
C50   H29   S    
C31   C33   A    
C9    C10   A    
C54   H46   S    
N1    Zn1   S    
C1    C22   S    
C21   C22   A    
N6    H27   S    
C1    O1    A    
N9    H39   S    
C27   H5    S    
N10   C54   S    
C40   C45   S    
C42   F2    S    
C24   H2    S    
C48   H20   S    
C10   C14   A    
C47   H16   S    
C56   H52   S    
C4    C44   T    
C55   H50   S    
O3    Zn1   S    
C12   O4    A    
C3    C45   S    
C9    H13   S    
C32   C34   A    
C23   O6    A    
N12   C56   S    
C41   H10   S    
C37   C38   A    
C49   H25   S    
C31   C32   A    
O6    Zn2   S    
C40   H9    S    
C50   H28   S    
C38   N6    S    
N7    C51   S    
C17   C18   A    
C39   O7    A    
C41   N7    S    
N2    Zn2   S    
C25   N1    A    
N3    H15   S    
N6    C50   S    
O1    Zn1   S    
C3    H11   S    
N5    C49   S    
N4    C48   S    
C22   C24   A    
C1    O2    A    
C54   H44   S    
C49   H26   S    
C40   N8    S    
C11   C17   A    
C55   H49   S    
C13   C20   A    
N3    C47   S    
C53   H41   S    
C39   C44   S    
C2    N11   S    
C14   H14   S    
C12   O3    A    
C29   C35   A    
C33   C38   A    
C52   H38   S    
C30   C36   A    
C28   C30   A    
N12   H51   S    
C26   N2    A    
C7    F4    S    
C29   C31   A    
C30   C32   A    
C28   H6    S    
C47   H18   S    
C49   H24   S    
C16   C17   A    
C5    C45   S    
C56   H54   S    
N7    H31   S    
C2    N12   S    
C39   O8    A    
C52   H37   S    
C2    C3    S    
O5    Zn1   S    
O2    Zn2   S    
C51   H32   S    
C43   C46   S    
C25   H3    S    
C53   H42   S    
C36   H8    S    
C10   C11   A    
C43   N10   S    
C3    H12   S    
C7    C13   A    
N5    H23   S    
C56   H53   S    
N4    H19   S    
C41   C45   S    
C14   C15   A    
O8    Zn2   S    
C25   C33   A    
N11   H47   S    
C21   H1    S    
C28   N2    A    
