data_mof_unit_7703.cif
_audit_creation_date              2012-10-26T19:35:36-0400
_audit_creation_method            fapswitch 2.2
_symmetry_space_group_name_H-M    P1
_symmetry_Int_Tables_number       1
_space_group_crystal_system       triclinic
_cell_length_a                    15.831024
_cell_length_b                    10.826084
_cell_length_c                    9.648206
_cell_angle_alpha                 90.334784
_cell_angle_beta                  90.37755
_cell_angle_gamma                 92.451085
_cell_volume                      1652.00690253

loop_
_atom_site_label
_atom_site_type_symbol
_atom_type_description
_atom_site_fract_x
_atom_site_fract_y
_atom_site_fract_z
_atom_type_partial_charge
C1    C     C_R   0.497415 0.262684 0.499684 0.544398
C2    C     C_R   0.488040 0.129248 0.500870 -0.018500
C3    C     C_R   0.459179 0.061567 0.383892 -0.109555
C4    C     C_R   0.340138 0.500062 0.499466 0.549544
C5    C     C_R   0.457726 0.932281 0.386062 -0.103604
C6    C     C_R   0.487696 0.870467 0.503213 0.006206
C7    C     C_R   0.502825 0.939023 0.624782 -0.007163
C8    C     C_3   0.575238 0.940068 0.724882 -0.222468
C9    C     C_3   0.576166 0.080076 0.721005 0.124264
C10   C     C_R   0.567682 0.546210 0.072965 0.170635
C11   C     C_R   0.440185 0.432853 0.075059 0.350125
C12   C     C_3   0.083389 0.504584 0.494552 0.000731
C13   C     C_R   0.437827 0.435183 0.926146 0.159649
C14   C     C_R   0.571466 0.535781 0.927891 0.095198
C15   C     C_3   0.626104 0.651607 0.916732 -0.100731
C16   C     C_R   0.497716 0.737483 0.500616 0.558118
C17   C     C_3   0.610008 0.672324 0.072378 0.416260
C18   C     C_R   0.659853 0.500616 0.500391 0.559862
C19   C     C_3   0.971047 0.417534 0.583641 -0.005426
C20   C     C_3   0.024364 0.393184 0.454009 0.264150
C21   C     C_1   0.250535 0.501536 0.497802 0.012757
C22   C     C_1   0.749521 0.502175 0.500998 0.015873
C23   C     C_3   0.976012 0.615003 0.538670 0.249591
C24   C     C_3   0.030784 0.528723 0.625396 -0.122262
C25   C     C_3   0.367334 0.356882 0.856388 -0.189111
C26   C     C_3   0.282149 0.418965 0.863015 -0.424063
C27   C     C_3   0.718759 0.625089 0.880617 -0.288370
C28   C     C_3   0.772270 0.744449 0.862131 -0.385686
C29   C     C_3   0.934847 0.320714 0.684270 -0.259908
C30   C     C_3   0.004498 0.257193 0.763308 -0.397164
C31   C     C_3   0.927934 0.448473 0.227634 -0.252727
C32   C     C_3   0.991677 0.430927 0.112020 -0.421659
C33   C     C_3   0.069313 0.693646 0.316665 -0.257659
C34   C     C_3   0.916819 0.504112 0.498271 0.010182
C35   C     C_3   0.003459 0.766533 0.239436 -0.377433
C36   C     C_3   0.029495 0.592135 0.408451 0.024191
C37   C     C_3   0.969961 0.480222 0.367743 0.020897
C38   C     C_1   0.175026 0.503034 0.495928 -0.011235
C39   C     C_1   0.825086 0.503526 0.500560 -0.010440
C40   C     C_R   0.503101 0.066184 0.623159 0.060253
Cl1   Cl    Cl    0.059026 0.246071 0.399529 -0.607713
Cl2   Cl    Cl    0.546967 0.147765 0.882105 -0.567771
Cl3   Cl    Cl    0.368655 0.333272 0.165668 -0.595402
Cl4   Cl    Cl    0.699094 0.688016 0.187695 -0.584344
Cl5   Cl    Cl    0.538309 0.792645 0.097288 -0.580235
Cl6   Cl    Cl    0.942435 0.760478 0.599636 -0.636064
Cu1   Cu    Cu3+1 0.500000 0.499980 0.640670 0.967893
Cu2   Cu    Cu3+1 0.500000 0.500020 0.359330 1.115829
H1    H     H_    0.632730 0.900585 0.680061 0.108624
H2    H     H_    0.257001 0.417877 0.969985 0.190490
H3    H     H_    0.381097 0.329960 0.750143 0.206497
H4    H     H_    0.360825 0.264876 0.906204 0.195808
H5    H     H_    0.752973 0.791825 0.766056 0.173810
H6    H     H_    0.765509 0.808085 0.951484 0.218804
H7    H     H_    0.839819 0.722232 0.853387 0.193960
H8    H     H_    0.747918 0.566785 0.960729 0.180734
H9    H     H_    0.721846 0.571927 0.783300 0.179546
H10   H     H_    0.043844 0.204340 0.691282 0.224964
H11   H     H_    0.045644 0.326278 0.820100 0.135722
H12   H     H_    0.633812 0.123412 0.673211 0.128735
H13   H     H_    0.975554 0.191906 0.839495 0.159457
H14   H     H_    0.893592 0.366873 0.759588 0.137955
H15   H     H_    0.895718 0.250454 0.625520 0.183644
H16   H     H_    0.030928 0.516529 0.095081 0.147034
H17   H     H_    0.033449 0.354213 0.136229 0.218848
H18   H     H_    0.956959 0.408007 0.014322 0.133766
H19   H     H_    0.888567 0.361724 0.238805 0.177822
H20   H     H_    0.885197 0.522934 0.198670 0.170499
H21   H     H_    0.967409 0.706713 0.164435 0.151315
H22   H     H_    0.958786 0.807704 0.312734 0.236020
H23   H     H_    0.597474 0.717101 0.845346 0.162996
H24   H     H_    0.035860 0.842551 0.180895 0.163387
H25   H     H_    0.108104 0.758380 0.383277 0.184207
H26   H     H_    0.112203 0.651586 0.240900 0.143392
H27   H     H_    0.056829 0.549190 0.730574 0.127857
H28   H     H_    0.440645 0.107810 0.290038 0.213954
H29   H     H_    0.435745 0.881470 0.295229 0.202943
H30   H     H_    0.555203 0.903400 0.826889 0.221547
H31   H     H_    0.288302 0.516639 0.828911 0.174876
H32   H     H_    0.235488 0.368328 0.794828 0.141233
N1    N     N_R   0.500530 0.500930 0.147930 -0.225294
N2    N     N_R   0.500530 0.500890 0.852020 -0.244721
O1    O     O_R   0.500000 0.319640 0.618810 -0.496060
O2    O     O_R   0.500010 0.319680 0.381230 -0.456739
O3    O     O_R   0.379070 0.499970 0.618770 -0.538352
O4    O     O_R   0.379080 0.500010 0.381190 -0.440424
O5    O     O_R   0.499990 0.680320 0.618770 -0.513404
O6    O     O_R   0.500000 0.680360 0.381190 -0.444218
O7    O     O_R   0.620920 0.499990 0.618810 -0.522260
O8    O     O_R   0.620930 0.500030 0.381230 -0.448887

loop_
_geom_bond_atom_site_label_1
_geom_bond_atom_site_label_2
_ccdc_geom_bond_type
C29   H15   S    
C20   C37   S    
C34   C37   S    
C19   C20   S    
C20   Cl1   S    
C7    C8    S    
C11   N1    A    
C1    O2    A    
C31   H19   S    
C9    Cl2   S    
Cu1   O3    S    
C36   C37   S    
C17   Cl5   S    
C26   H2    S    
C5    C6    A    
C4    O4    A    
C10   C17   S    
C33   C36   S    
Cu2   N1    S    
C1    C2    S    
Cu1   N2    S    
C21   C38   T    
C31   C32   S    
C35   H22   S    
C8    C9    S    
C16   O5    A    
C7    C40   A    
Cu2   O6    S    
C11   Cl3   S    
Cu1   O1    S    
C12   C36   S    
C23   Cl6   S    
Cu2   O8    S    
C8    H30   S    
Cu1   O7    S    
C13   C25   S    
C28   H7    S    
C31   H20   S    
C34   C39   S    
C18   O8    A    
C32   H16   S    
C10   C14   A    
C28   H6    S    
C27   H8    S    
C4    O3    A    
C25   C26   S    
C13   N2    A    
C9    C40   S    
C26   H32   S    
Cu2   O2    S    
C31   C37   S    
Cu1   O5    S    
C25   H3    S    
C29   C30   S    
C15   C27   S    
Cu1   Cu2   S    
C23   C24   S    
C23   C34   S    
C30   H11   S    
C12   C20   S    
C3    H28   S    
C33   H25   S    
C35   H24   S    
C27   H9    S    
Cu2   O4    S    
C14   N2    A    
C5    H29   S    
C19   C29   S    
C32   H18   S    
C15   C17   S    
C29   H14   S    
C18   C22   S    
C18   O7    A    
C3    C5    A    
C19   C34   S    
C28   H5    S    
C24   H27   S    
C6    C7    A    
C1    O1    A    
C15   H23   S    
C12   C24   S    
C10   N1    A    
C26   H31   S    
C9    H12   S    
C2    C3    A    
C25   H4    S    
C4    C21   S    
C11   C13   A    
C22   C39   T    
C30   H10   S    
C33   C35   S    
C19   C24   S    
C12   C38   S    
C17   Cl4   S    
C6    C16   S    
C2    C40   A    
C33   H26   S    
C35   H21   S    
C23   C36   S    
C30   H13   S    
C27   C28   S    
C16   O6    A    
C14   C15   S    
C8    H1    S    
C32   H17   S    
