data_mof_unit_29476.cif
_audit_creation_date              2012-12-11T14:19:20-0500
_audit_creation_method            fapswitch 2.2
_symmetry_space_group_name_H-M    P1
_symmetry_Int_Tables_number       1
_space_group_crystal_system       triclinic
_cell_length_a                    19.386814
_cell_length_b                    7.24455
_cell_length_c                    17.764333
_cell_angle_alpha                 90.000214
_cell_angle_beta                  107.786875
_cell_angle_gamma                 90.000175
_cell_volume                      2375.71677623

loop_
_atom_site_label
_atom_site_type_symbol
_atom_type_description
_atom_site_fract_x
_atom_site_fract_y
_atom_site_fract_z
_atom_type_partial_charge
O1    O     O_R   0.414820 0.494320 0.416790 -0.540314
O2    O     O_R   0.585180 0.994320 0.583210 -0.540314
O3    O     O_R   0.560270 0.819500 0.430140 -0.543550
O4    O     O_R   0.439730 0.319500 0.569860 -0.543548
C1    C     C_R   0.581445 0.655569 0.415077 0.712559
C2    C     C_R   0.418557 0.155569 0.584925 0.712564
O5    O     O_R   0.413840 0.823740 0.407440 -0.537948
O6    O     O_R   0.586160 0.323740 0.592560 -0.537949
O7    O     O_R   0.437710 0.998590 0.560350 -0.539758
O8    O     O_R   0.562290 0.498590 0.439650 -0.539759
C3    C     C_R   0.387579 0.654938 0.385252 0.735812
C4    C     C_R   0.612423 0.154940 0.614745 0.735820
O9    O     O_3   0.508000 0.662290 0.550200 -0.380621
O10   O     O_3   0.492000 0.162290 0.449800 -0.380622
V1    V     V_3+5 0.498520 0.935380 0.490690 1.395528
V2    V     V_3+5 0.501480 0.435380 0.509310 1.395531
C5    C     C_2   0.785985 0.272076 0.787605 -0.146081
C6    C     C_2   0.214049 0.772069 0.212352 -0.145989
C7    C     C_2   0.820778 0.113598 0.816593 -0.315254
C8    C     C_2   0.179218 0.613604 0.183412 -0.315281
H1    H     H_    0.808045 0.402347 0.814679 0.139336
H2    H     H_    0.192025 0.902326 0.185231 0.139314
H3    H     H_    0.800441 0.981931 0.790238 0.132910
H4    H     H_    0.199521 0.481956 0.209814 0.132913
C9    C     C_2   0.718124 0.284814 0.719500 -0.138118
C10   C     C_2   0.281902 0.784809 0.280467 -0.138074
C11   C     C_2   0.679334 0.138627 0.682613 -0.306575
C12   C     C_2   0.320674 0.638621 0.317377 -0.306570
H5    H     H_    0.699345 0.423036 0.699878 0.141292
H6    H     H_    0.300692 0.923031 0.300074 0.141278
H7    H     H_    0.696580 0.999619 0.701750 0.131722
H8    H     H_    0.303421 0.499611 0.298247 0.131713
C13   C     C_R   0.324158 0.299603 0.636370 -0.221243
C14   C     C_R   0.675856 0.799593 0.363648 -0.221248
C15   C     C_R   0.369096 0.148147 0.634179 -0.079692
C16   C     C_R   0.630912 0.648143 0.365831 -0.079690
C17   C     C_R   0.366297 0.989939 0.679002 -0.223661
C18   C     C_R   0.633714 0.489932 0.321010 -0.223657
C19   C     C_R   0.320335 0.983533 0.726583 0.098752
C20   C     C_R   0.679683 0.483520 0.273438 0.098764
C21   C     C_R   0.275243 0.135450 0.728267 0.081871
C22   C     C_R   0.724779 0.635435 0.271760 0.081866
C23   C     C_R   0.276722 0.293383 0.682316 0.089183
C24   C     C_R   0.723298 0.793370 0.317710 0.089177
C25   C     C_R   0.318715 0.827594 0.772556 -0.213614
C26   C     C_R   0.681305 0.327581 0.227465 -0.213596
C27   C     C_R   0.273131 0.822019 0.820064 -0.172159
C28   C     C_R   0.726894 0.322006 0.179962 -0.172325
C29   C     C_R   0.228257 0.972894 0.823156 0.006087
C30   C     C_R   0.771768 0.472884 0.176873 0.006123
C31   C     C_R   0.228701 0.129553 0.776021 -0.008920
C32   C     C_R   0.771326 0.629538 0.224011 -0.008885
C33   C     C_R   0.182924 0.280607 0.776568 0.087314
C34   C     C_R   0.817103 0.780596 0.223467 0.087310
C35   C     C_R   0.183970 0.435614 0.729507 -0.160258
C36   C     C_R   0.816053 0.935604 0.270525 -0.160266
C37   C     C_R   0.230591 0.442173 0.683007 -0.196922
C38   C     C_R   0.769428 0.942162 0.317021 -0.196906
C39   C     C_R   0.183757 0.970512 0.873058 0.374213
C40   C     C_R   0.816267 0.470517 0.126971 0.374223
C41   C     C_R   0.134675 0.118424 0.870301 -0.178375
C42   C     C_R   0.865346 0.618428 0.129726 -0.178410
C43   C     C_R   0.136111 0.273515 0.823116 -0.261996
C44   C     C_R   0.863916 0.773510 0.176917 -0.262039
H9    H     H_    0.325331 0.421560 0.601400 0.127307
H10   H     H_    0.674681 0.921550 0.398618 0.127306
H11   H     H_    0.400789 0.872795 0.677893 0.130502
H12   H     H_    0.599218 0.372793 0.322112 0.130500
H13   H     H_    0.352707 0.709324 0.771722 0.135115
H14   H     H_    0.647310 0.209313 0.228293 0.135116
H15   H     H_    0.273012 0.698178 0.854076 0.168042
H16   H     H_    0.727010 0.198174 0.145943 0.168049
H17   H     H_    0.099813 0.388275 0.821639 0.162786
H18   H     H_    0.900212 0.888270 0.178391 0.162780
H19   H     H_    0.148971 0.552556 0.728999 0.137795
H20   H     H_    0.851050 0.052551 0.271032 0.137787
H21   H     H_    0.230618 0.563977 0.647613 0.135941
H22   H     H_    0.769398 0.063971 0.352412 0.135942
O11   O     O_R   0.937810 0.773680 0.060480 -0.538655
O12   O     O_R   0.062190 0.273680 0.939520 -0.538654
O13   O     O_R   0.086190 0.439740 0.092580 -0.543538
O14   O     O_R   0.913810 0.939740 0.907420 -0.543531
C45   C     C_R   0.112282 0.608344 0.115003 0.723395
C46   C     C_R   0.887719 0.108343 0.884997 0.723472
O15   O     O_R   0.939760 0.444210 0.069890 -0.517922
O16   O     O_R   0.060240 0.944210 0.930110 -0.517946
O17   O     O_R   0.914790 0.269640 0.916760 -0.541061
O18   O     O_R   0.085210 0.769640 0.083240 -0.541046
C47   C     C_R   0.917886 0.612068 0.083562 0.712485
C48   C     C_R   0.082117 0.112066 0.916442 0.712387
O19   O     O_3   0.992050 0.601530 0.949880 -0.378460
O20   O     O_3   0.007950 0.101530 0.050120 -0.378456
V3    V     V_3+5 0.001480 0.328340 0.009300 1.431421
V4    V     V_3+5 0.998520 0.828340 0.990700 1.431419
O21   O     O_3   0.186866 0.819424 0.921984 -0.573649
C49   C     C_3   0.226253 0.865016 0.001098 0.111162
H23   H     H_    0.208698 0.768124 0.039908 0.149426
H24   H     H_    0.214494 0.006672 0.018463 0.080317
C50   C     C_3   0.308020 0.840217 0.016844 -0.354189
H25   H     H_    0.319025 0.700138 0.997743 0.200962
H26   H     H_    0.328132 0.944503 0.982753 0.195543
C51   C     C_3   0.349295 0.863133 0.104444 -0.820551
H27   H     H_    0.337695 0.000110 0.125983 0.228045
H28   H     H_    0.408398 0.852601 0.113372 0.232556
H29   H     H_    0.333684 0.752710 0.139421 0.243712
O22   O     O_3   0.813136 0.319507 0.078001 -0.573619
C52   C     C_3   0.773667 0.365189 0.998924 0.110953
H30   H     H_    0.791422 0.268966 0.960027 0.149498
H31   H     H_    0.785115 0.507213 0.981666 0.080203
C53   C     C_3   0.691960 0.339127 0.983177 -0.353954
H32   H     H_    0.681266 0.198637 0.002120 0.200942
H33   H     H_    0.671645 0.442659 0.017409 0.195642
C54   C     C_3   0.650606 0.362337 0.895616 -0.820718
H34   H     H_    0.661907 0.499769 0.874242 0.228106
H35   H     H_    0.591530 0.350866 0.886706 0.232564
H36   H     H_    0.666431 0.252595 0.860493 0.243785

loop_
_geom_bond_atom_site_label_1
_geom_bond_atom_site_label_2
_ccdc_geom_bond_type
C1    C16   S    
C36   H20   S    
C21   C23   A    
O21   C49   S    
O1    C3    A    
C46   O17   A    
O2    C4    A    
C49   C50   S    
C14   H10   S    
C2    O7    A    
C13   H9    S    
C27   C29   A    
C20   C26   A    
C39   O21   S    
O14   V4    S    
C15   C17   A    
O22   C52   S    
C42   C47   S    
O17   V3    S    
C2    C15   S    
C51   H29   S    
C40   C42   A    
C25   C27   A    
C41   C43   A    
C53   H32   S    
C42   C44   A    
O16   V4    S    
C5    C7    D    
C6    C10   S    
O15   V3    S    
C8    H4    S    
C24   C38   A    
C29   C31   A    
C49   H24   S    
C30   C32   A    
C52   H30   S    
C14   C16   A    
C19   C25   A    
C54   H36   S    
C35   H19   S    
C28   C30   A    
C45   O18   A    
O6    V2    S    
C52   H31   S    
C38   H22   S    
C22   C24   A    
C28   H16   S    
O13   C45   A    
C32   C34   A    
O5    C3    A    
O18   V4    S    
C33   C35   A    
C9    H5    S    
C34   C36   A    
C39   C41   A    
O11   C47   A    
C4    C11   S    
C11   H7    S    
C13   C23   A    
C37   H21   S    
C12   H8    S    
C14   C24   A    
O11   V4    S    
O4    C2    A    
O16   C48   A    
O15   C47   A    
O5    V1    S    
C43   H17   S    
C25   H13   S    
C5    H1    S    
C31   C33   A    
O4    V2    S    
C7    H3    S    
O13   V3    S    
C50   H25   S    
O6    C4    A    
C49   H23   S    
O1    V2    S    
C51   H28   S    
O2    V1    S    
C53   C54   S    
C27   H15   S    
C50   H26   S    
C18   H12   S    
C10   H6    S    
O14   C46   A    
C35   C37   A    
C52   C53   S    
O9    V2    S    
C7    C46   S    
C40   O22   S    
C41   C48   S    
C54   H34   S    
C6    H2    S    
O3    C1    A    
C9    C11   D    
C10   C12   D    
C29   C39   A    
C30   C40   A    
C16   C18   A    
O7    V1    S    
C5    C9    S    
C1    O8    A    
C17   C19   A    
O8    V2    S    
O19   V4    S    
C18   C20   A    
C33   C43   A    
C34   C44   A    
C3    C12   S    
C17   H11   S    
C20   C22   A    
O20   V3    S    
C13   C15   A    
C36   C38   A    
C6    C8    D    
O12   C48   A    
C51   H27   S    
C53   H33   S    
C26   H14   S    
C23   C37   A    
C26   C28   A    
C50   C51   S    
C19   C21   A    
C8    C45   S    
C44   H18   S    
O10   V1    S    
O3    V1    S    
O12   V3    S    
C21   C31   A    
C22   C32   A    
C54   H35   S    
