data_mof_unit_45428.cif
_audit_creation_date              2013-03-05T16:48:16-0500
_audit_creation_method            fapswitch 2.2
_symmetry_space_group_name_H-M    P1
_symmetry_Int_Tables_number       1
_space_group_crystal_system       triclinic
_cell_length_a                    23.481191
_cell_length_b                    8.934119
_cell_length_c                    8.09276
_cell_angle_alpha                 89.853514
_cell_angle_beta                  89.957236
_cell_angle_gamma                 90.108342
_cell_volume                      1697.72051549

loop_
_atom_site_label
_atom_site_type_symbol
_atom_site_description
_atom_site_fract_x
_atom_site_fract_y
_atom_site_fract_z
_atom_type_partial_charge
O1    O     O_R   0.500000 0.285350 0.636850 -0.617428
O2    O     O_R   0.500000 0.714650 0.363150 -0.597827
O3    O     O_R   0.500000 0.714650 0.636850 -0.616337
O4    O     O_R   0.500000 0.285350 0.363150 -0.597918
H1    H     H_    0.946757 0.122414 0.505166 0.192745
H2    H     H_    0.054021 0.869306 0.388067 0.191370
H3    H     H_    0.950579 0.872877 0.394260 0.189132
H4    H     H_    0.050191 0.119967 0.511692 0.189617
C1    C     C_R   0.500119 0.217939 0.500139 0.956346
C2    C     C_R   0.499925 0.782061 0.499869 0.953557
O5    O     O_R   0.416160 0.500000 0.636910 -0.578907
O6    O     O_R   0.583840 0.500000 0.363090 -0.589231
O7    O     O_R   0.583840 0.500000 0.636910 -0.579352
O8    O     O_R   0.416160 0.500000 0.363090 -0.590551
C3    C     C_R   0.208458 0.492878 0.471175 0.174445
C4    C     C_R   0.791990 0.504210 0.471509 0.168968
C5    C     C_R   0.389060 0.497049 0.500097 0.946691
C6    C     C_R   0.610993 0.503430 0.499984 0.942890
Zn1   Zn    Zn3+2 0.500000 0.500000 0.682780 1.122000
Zn2   Zn    Zn3+2 0.500000 0.500000 0.317220 1.125720
H5    H     H_    0.209819 0.632533 0.687176 0.189001
H6    H     H_    0.789989 0.384380 0.702660 0.192404
H7    H     H_    0.218837 0.348679 0.261811 0.198415
H8    H     H_    0.781385 0.629468 0.246845 0.204216
C7    C     C_R   0.294187 0.568628 0.613795 0.259158
C8    C     C_R   0.705878 0.439831 0.620577 0.260852
C9    C     C_R   0.299430 0.403640 0.372337 0.269142
C10   C     C_R   0.701014 0.588107 0.365519 0.267551
C11   C     C_R   0.326932 0.486820 0.498411 -0.280558
C12   C     C_R   0.673237 0.513443 0.498035 -0.284104
C13   C     C_R   0.882034 0.633786 0.443804 0.528048
C14   C     C_R   0.118886 0.361281 0.480033 0.530115
C15   C     C_R   0.880534 0.366846 0.467906 0.530315
C16   C     C_R   0.120310 0.625702 0.432150 0.533186
N1    N     N_R   0.852802 0.501477 0.459535 -0.341532
N2    N     N_R   0.147862 0.493176 0.459704 -0.344455
C17   C     C_R   0.939982 0.362307 0.468337 -0.022732
C18   C     C_R   0.060877 0.629841 0.428742 -0.024310
C19   C     C_R   0.941395 0.633704 0.433491 -0.019591
C20   C     C_R   0.059478 0.359325 0.473460 -0.020909
C21   C     C_R   0.970520 0.497012 0.449819 -0.017879
C22   C     C_R   0.030350 0.495295 0.449922 -0.018001
C23   C     C_R   0.969416 0.226973 0.488749 -0.151014
C24   C     C_R   0.031418 0.764873 0.406441 -0.151375
C25   C     C_R   0.972168 0.766945 0.410146 -0.151382
C26   C     C_R   0.028668 0.225627 0.492647 -0.152498
C27   C     C_1   0.500062 0.065175 0.500193 -0.088935
C28   C     C_1   0.499991 0.934823 0.499806 -0.090316
C29   C     C_R   0.235180 0.570673 0.598790 -0.122688
C30   C     C_R   0.764928 0.438221 0.607214 -0.122206
C31   C     C_R   0.240406 0.410705 0.358209 -0.126127
C32   C     C_R   0.759937 0.576794 0.350354 -0.127406
N3    N     N_1   0.500000 0.500000 0.073640 0.026307
N4    N     N_1   0.500000 0.500000 0.926360 0.030040
O9    O     O_2   0.853799 0.765268 0.441441 -0.512501
O10   O     O_2   0.147547 0.233011 0.508948 -0.509062
O11   O     O_2   0.850606 0.237833 0.475488 -0.505237
O12   O     O_2   0.150457 0.752771 0.408388 -0.504437
N5    N     N_R   0.320025 0.653797 0.743485 0.215669
O13   O     O_R   0.340982 0.584803 0.871413 -0.316049
O14   O     O_R   0.310466 0.796936 0.752511 -0.323867
N6    N     N_R   0.679976 0.361637 0.755974 0.216546
O15   O     O_R   0.658654 0.437057 0.878482 -0.311988
O16   O     O_R   0.689685 0.219367 0.775211 -0.326587
N7    N     N_R   0.330399 0.307190 0.262327 0.241287
O17   O     O_R   0.313585 0.290578 0.110239 -0.311291
O18   O     O_R   0.369266 0.217707 0.320288 -0.368915
N8    N     N_R   0.670573 0.681439 0.250496 0.244851
O19   O     O_R   0.688314 0.694464 0.098730 -0.309151
O20   O     O_R   0.632089 0.774145 0.303980 -0.365930

loop_
_geom_bond_atom_site_label_1
_geom_bond_atom_site_label_2
_geom_bond_distance
_ccdc_geom_bond_type
H8    C32   1.083171 S    
C7    C11   1.414869 A    
C20   C26   1.403524 A    
C18   C24   1.403106 A    
N6    O15   1.300606 A    
C9    N7    1.438496 S    
C3    C31   1.393556 A    
C9    C11   1.418911 A    
C5    C11   1.461598 S    
C21   C22   1.404993 A    
H7    C31   1.083470 S    
C27   C28   1.164589 T    
N7    O18   1.301371 A    
C19   C25   1.403655 A    
H6    C30   1.083575 S    
O6    Zn2   2.003628 S    
C10   C12   1.419205 A    
N6    O16   1.300740 A    
C8    N6    1.432507 S    
Zn2   N3    1.971234 S    
N5    O13   1.300993 A    
C19   C21   1.406778 A    
O3    C2    1.260240 A    
H2    C24   1.082412 S    
N3    N4    1.191901 T    
C3    C29   1.395121 A    
O3    Zn1   1.952465 S    
C10   C32   1.392795 A    
O8    C5    1.278170 A    
O5    Zn1   2.003631 S    
O7    C6    1.278303 A    
C17   C21   1.407344 A    
C6    C12   1.464194 S    
H3    C25   1.081898 S    
Zn1   N4    1.971234 S    
H5    C29   1.083667 S    
C15   N1    1.370404 A    
C9    C31   1.392296 A    
C18   C22   1.408410 A    
C2    C28   1.364794 S    
C16   N2    1.368171 A    
C8    C30   1.390799 A    
C4    N1    1.431407 S    
H1    C23   1.082010 S    
C4    C30   1.397030 A    
C23   C26   1.391760 A    
C7    C29   1.391118 A    
C17   C23   1.403272 A    
O1    Zn1   1.954332 S    
C1    C27   1.364810 S    
N5    O14   1.301008 A    
O7    Zn1   2.003084 S    
O2    Zn2   1.954331 S    
O4    Zn2   1.952466 S    
C14   N2    1.369079 A    
C3    N2    1.425958 S    
C14   C20   1.396093 A    
O1    C1    1.261022 A    
C24   C25   1.391716 A    
O8    Zn2   2.003086 S    
N8    O20   1.301535 A    
N7    O17   1.301628 A    
O6    C6    1.279035 A    
C16   O12   1.350015 S    
C20   C22   1.407811 A    
O5    C5    1.277750 A    
C13   N1    1.371372 A    
C7    N5    1.432444 S    
H4    C26   1.082343 S    
C13   O9    1.350048 S    
O4    C1    1.260299 A    
C16   C18   1.396404 A    
C14   O10   1.350084 S    
C15   O11   1.350067 S    
C15   C17   1.396575 A    
C4    C32   1.395709 A    
C13   C19   1.396301 A    
N8    O19   1.301497 A    
C10   N8    1.439451 S    
C8    C12   1.415331 A    
O2    C2    1.261080 A    
