data_mof_unit_8494.cif
_audit_creation_date              2012-12-10T20:27:09-0500
_audit_creation_method            fapswitch 2.2
_symmetry_space_group_name_H-M    P1
_symmetry_Int_Tables_number       1
_space_group_crystal_system       triclinic
_cell_length_a                    10.81893
_cell_length_b                    10.732436
_cell_length_c                    9.968312
_cell_angle_alpha                 88.535069
_cell_angle_beta                  105.016479
_cell_angle_gamma                 92.510147
_cell_volume                      1116.73587549

loop_
_atom_site_label
_atom_site_type_symbol
_atom_type_description
_atom_site_fract_x
_atom_site_fract_y
_atom_site_fract_z
_atom_type_partial_charge
C1    C     C_R   0.502868 0.260082 0.501980 0.908001
C2    C     C_R   0.520164 0.128489 0.507776 -0.046462
C3    C     C_R   0.549347 0.069451 0.395663 -0.206378
C4    C     C_R   0.550305 0.940283 0.393731 -0.196346
C5    C     C_R   0.523217 0.871474 0.504499 -0.047720
C6    C     C_R   0.516671 0.931675 0.623869 0.021989
C7    C     C_3   0.422016 0.911387 0.708045 -0.409956
C8    C     C_3   0.418753 0.051774 0.711658 0.210580
C9    C     C_R   0.398078 0.451147 0.043552 0.166340
C10   C     C_R   0.588948 0.571039 0.095129 0.193292
C11   C     C_R   0.589448 0.570333 0.950966 0.192323
C12   C     C_R   0.259297 0.502926 0.440709 1.011922
C13   C     C_R   0.397025 0.453014 0.902091 0.201480
C14   C     C_3   0.339423 0.324849 0.883799 -0.424028
C15   C     C_3   0.341822 0.322054 0.037068 -0.499760
C16   C     C_R   0.504657 0.739586 0.499870 0.875066
C17   C     C_R   0.740410 0.496452 0.559396 0.894610
C18   C     C_2   0.121702 0.492305 0.405693 -0.418740
C19   C     C_2   0.060995 0.525630 0.499526 0.393464
C20   C     C_2   0.877917 0.501648 0.595540 -0.301792
C21   C     C_2   0.939064 0.462117 0.504585 0.141397
C22   C     C_R   0.514426 0.058679 0.626032 0.031608
H1    H     H_    0.460127 0.084937 0.818642 0.092203
H2    H     H_    0.241244 0.322461 0.813156 0.248533
H3    H     H_    0.407179 0.262377 0.858203 0.214812
H4    H     H_    0.244689 0.318574 0.055434 0.218711
H5    H     H_    0.409235 0.254289 0.099485 0.212935
H6    H     H_    0.924140 0.561339 0.681683 0.179575
H7    H     H_    0.075783 0.434730 0.317450 0.134401
H8    H     H_    0.563848 0.121791 0.306274 0.161693
H9    H     H_    0.564374 0.895098 0.303176 0.162521
H10   H     H_    0.331144 0.864723 0.648870 0.275051
H11   H     H_    0.465507 0.868218 0.811148 0.173654
N1    N     N_R   0.499160 0.499140 0.142600 -0.128042
N2    N     N_R   0.499160 0.499180 0.856960 -0.130561
O1    O     O_R   0.500020 0.316790 0.614700 -0.606659
O2    O     O_R   0.500000 0.316760 0.385350 -0.632109
O3    O     O_R   0.317820 0.500020 0.571850 -0.548736
O4    O     O_R   0.317800 0.499980 0.342510 -0.612494
O5    O     O_R   0.500000 0.683240 0.614650 -0.618307
O6    O     O_R   0.499980 0.683210 0.385300 -0.637124
O7    O     O_R   0.682200 0.500020 0.657490 -0.635113
O8    O     O_R   0.682180 0.499980 0.428150 -0.605851
Zn1   Zn    Zn3+2 0.500010 0.500020 0.653140 0.977354
Zn2   Zn    Zn3+2 0.499990 0.499980 0.346860 0.946943
C23   C     C_3   0.884782 0.353050 0.409242 -0.842079
H12   H     H_    0.852356 0.386738 0.299985 0.236292
H13   H     H_    0.959438 0.283392 0.417610 0.252352
H14   H     H_    0.803416 0.302419 0.438065 0.242056
C24   C     C_3   0.687723 0.654319 0.191768 -0.788200
H15   H     H_    0.668502 0.669756 0.291349 0.282930
H16   H     H_    0.784371 0.616068 0.208908 0.230237
H17   H     H_    0.688382 0.750479 0.149103 0.198432
C25   C     C_3   0.688644 0.652797 0.905342 -0.802633
H18   H     H_    0.677945 0.657705 0.794515 0.286465
H19   H     H_    0.680317 0.751313 0.931204 0.203429
H20   H     H_    0.786309 0.621327 0.956214 0.225083
Cl1   Cl    Cl    0.126686 0.649959 0.615579 -0.639237
Cl2   Cl    Cl    0.265451 0.108622 0.622556 -0.619406

loop_
_geom_bond_atom_site_label_1
_geom_bond_atom_site_label_2
_ccdc_geom_bond_type
C2    C22   A    
C3    H8    S    
C8    C22   S    
C17   O8    A    
O3    Zn1   S    
C6    C7    S    
C8    Cl2   S    
C7    H11   S    
C24   H16   S    
C14   C15   S    
C1    O2    A    
O4    Zn2   S    
C8    H1    S    
C12   O4    A    
C11   N2    A    
C2    C3    A    
C9    C15   S    
C7    C8    S    
C10   N1    A    
N1    Zn2   S    
C13   C14   S    
N2    Zn1   S    
O8    Zn2   S    
C23   H14   S    
C5    C6    A    
C11   C25   S    
O7    Zn1   S    
C16   O5    A    
C14   H3    S    
C21   C23   S    
C19   C21   S    
C18   C19   D    
C23   H13   S    
C19   Cl1   S    
C12   O3    A    
C9    N1    A    
C25   H19   S    
O1    Zn1   S    
C24   H17   S    
C6    C22   A    
C10   C11   A    
O2    Zn2   S    
C3    C4    A    
C4    H9    S    
O5    Zn1   S    
C17   C20   S    
C20   C21   D    
C1    C2    S    
C23   H12   S    
C14   H2    S    
C18   H7    S    
C9    C13   A    
C25   H18   S    
C5    C16   S    
O6    Zn2   S    
C7    H10   S    
C20   H6    S    
C24   H15   S    
C17   O7    A    
C15   H5    S    
C16   O6    A    
C13   N2    A    
C12   C18   S    
C1    O1    A    
C4    C5    A    
C15   H4    S    
C25   H20   S    
C10   C24   S    
