data_mof_unit_36286.cif
_audit_creation_date              2012-12-11T15:55:51-0500
_audit_creation_method            fapswitch 2.2
_symmetry_space_group_name_H-M    P1
_symmetry_Int_Tables_number       1
_space_group_crystal_system       triclinic
_cell_length_a                    6.930424
_cell_length_b                    14.554933
_cell_length_c                    16.113032
_cell_angle_alpha                 89.956575
_cell_angle_beta                  90.177432
_cell_angle_gamma                 90.049673
_cell_volume                      1625.34259155

loop_
_atom_site_label
_atom_site_type_symbol
_atom_type_description
_atom_site_fract_x
_atom_site_fract_y
_atom_site_fract_z
_atom_type_partial_charge
O1    O     O_R   0.505680 0.583900 0.413320 -0.507649
O2    O     O_R   0.176010 0.594950 0.586080 -0.502259
O3    O     O_R   0.005680 0.416100 0.586680 -0.550261
C1    C     C_R   0.345024 0.617656 0.614737 0.716782
O4    O     O_R   0.175960 0.594930 0.413930 -0.519805
O5    O     O_R   0.005640 0.416080 0.413300 -0.546916
C2    C     C_R   0.344727 0.617344 0.385213 0.830352
O6    O     O_R   0.505720 0.583920 0.586700 -0.547650
O7    O     O_3   0.339190 0.441320 0.500000 -0.400289
V1    V     V_3+5 0.064350 0.510890 0.500000 1.539697
O8    O     O_R   0.675920 0.405050 0.413920 -0.548079
C3    C     C_R   0.844186 0.381704 0.385912 0.762632
O9    O     O_R   0.675960 0.405070 0.586070 -0.553436
C4    C     C_R   0.844923 0.383109 0.615007 0.679703
V2    V     V_3+5 0.564340 0.489110 0.500000 1.465434
O10   O     O_3   0.839370 0.558680 0.500000 -0.335869
C5    C     C_R   0.002161 0.320299 0.744504 0.144043
C6    C     C_R   0.852919 0.317550 0.685549 -0.151820
C7    C     C_R   0.704080 0.253085 0.698693 -0.184472
H1    H     H_    0.584032 0.249116 0.655833 0.129757
C8    C     C_R   0.714696 0.189012 0.764276 -0.163872
H2    H     H_    0.602140 0.137876 0.769985 0.124552
C9    C     C_R   0.875308 0.186891 0.818256 -0.102921
C10   C     C_R   0.013818 0.256113 0.808568 0.059286
C11   C     C_3   0.227898 0.249635 0.802402 -0.383201
C12   C     C_3   0.215755 0.320540 0.732908 0.011885
H3    H     H_    0.274692 0.180856 0.780516 0.137434
H4    H     H_    0.301286 0.274466 0.859628 0.188613
H5    H     H_    0.261888 0.295747 0.670777 0.114806
C13   C     C_R   0.030894 0.249061 0.199367 0.181382
C14   C     C_R   0.015525 0.311282 0.265809 -0.202062
H6    H     H_    0.130467 0.360549 0.275948 0.137483
C15   C     C_R   0.852826 0.312602 0.317647 -0.213161
C16   C     C_R   0.703014 0.248045 0.302615 0.098652
C17   C     C_R   0.718341 0.185561 0.236906 0.629660
C18   C     C_R   0.880420 0.185217 0.184171 -0.257319
C19   C     C_R   0.190105 0.734529 0.710142 0.623555
C20   C     C_R   0.202063 0.797480 0.775647 -0.228285
H7    H     H_    0.072399 0.833524 0.794032 0.143658
C21   C     C_R   0.378472 0.814626 0.816196 -0.130746
C22   C     C_R   0.543272 0.766793 0.789589 -0.134040
H8    H     H_    0.681620 0.778012 0.819347 0.149362
C23   C     C_R   0.531521 0.703195 0.724509 -0.191349
H9    H     H_    0.660999 0.666872 0.706552 0.207245
C24   C     C_R   0.355195 0.686089 0.683643 -0.172710
C25   C     C_R   0.210974 0.753281 0.305397 0.034655
C26   C     C_R   0.224070 0.816565 0.239650 0.531767
C27   C     C_R   0.380053 0.814250 0.183712 -0.263129
C28   C     C_R   0.524221 0.746687 0.194692 0.041559
C29   C     C_R   0.511124 0.683401 0.260439 0.513069
C30   C     C_R   0.355115 0.685702 0.316365 -0.258204
O11   O     O_R   0.229200 0.915950 0.913350 -0.554494
O12   O     O_R   0.559090 0.905000 0.086080 -0.513324
O13   O     O_R   0.729280 0.083880 0.086680 -0.509597
C31   C     C_R   0.390360 0.882575 0.114835 0.877590
O14   O     O_R   0.558920 0.904980 0.913920 -0.553349
O15   O     O_R   0.729110 0.083860 0.913300 -0.552807
C32   C     C_R   0.389753 0.882732 0.885039 0.678864
O16   O     O_R   0.229360 0.915970 0.086730 -0.511859
O17   O     O_3   0.395680 0.058580 0.000030 -0.370240
V3    V     V_3+5 0.670570 0.989070 0.999990 1.533548
O18   O     O_R   0.058820 0.094950 0.913870 -0.552357
C33   C     C_R   0.889563 0.116836 0.884938 0.659335
O19   O     O_R   0.058990 0.094970 0.086020 -0.509733
C34   C     C_R   0.890446 0.117331 0.114848 0.824606
V4    V     V_3+5 0.170560 0.010930 0.999930 1.533465
O20   O     O_3   0.895590 0.941310 0.999960 -0.371136
F1    F     F_    0.573966 0.123364 0.226138 -0.634515
F2    F     F_    0.016711 0.722367 0.672395 -0.701530
N1    N     N_3   0.053176 0.759738 0.362425 -0.586485
H10   H     H_    0.055553 0.825132 0.389227 0.266022
H11   H     H_    0.924500 0.753062 0.328920 0.281215
F3    F     F_    0.085522 0.882146 0.232255 -0.669471
N2    N     N_3   0.682036 0.740240 0.137673 -0.611443
H12   H     H_    0.810699 0.746916 0.171186 0.281479
H13   H     H_    0.679677 0.674847 0.110870 0.246855
F4    F     F_    0.649682 0.617827 0.267841 -0.692821
N3    N     N_3   0.300248 0.408522 0.756902 -0.641804
H14   H     H_    0.450232 0.401199 0.755849 0.239401
H15   H     H_    0.265809 0.456235 0.710746 0.229098
N4    N     N_3   0.197332 0.252197 0.146376 -0.575626
H16   H     H_    0.302047 0.296671 0.170432 0.231882
H17   H     H_    0.153204 0.279805 0.089485 0.200440
N5    N     N_3   0.535215 0.241773 0.354157 -0.580377
H18   H     H_    0.452184 0.301063 0.346502 0.237328
H19   H     H_    0.578339 0.235257 0.416118 0.224317

loop_
_geom_bond_atom_site_label_1
_geom_bond_atom_site_label_2
_ccdc_geom_bond_type
C27   C31   S    
C31   O16   A    
C22   H8    S    
C4    C6    S    
C17   C18   A    
C1    O6    A    
N4    H16   S    
O13   C34   A    
C11   H4    S    
C12   N3    S    
N2    H13   S    
C5    C12   S    
C7    C8    A    
N5    H19   S    
C6    C7    A    
C19   F2    S    
O16   V4    S    
O5    C3    A    
C13   C14   A    
N3    H15   S    
V2    O10   S    
O12   V3    S    
C5    C6    A    
C16   C17   A    
O8    V2    S    
C26   C27   A    
C9    C10   A    
C14   C15   A    
N1    H10   S    
O1    V2    S    
O7    V1    S    
C9    C33   S    
V4    O20   S    
O17   V4    S    
C28   N2    S    
C8    H2    S    
C22   C23   A    
C16   N5    S    
N4    H17   S    
O15   C33   A    
C1    C24   S    
O12   C31   A    
C5    C10   A    
C21   C32   S    
N2    H12   S    
O18   V4    S    
C10   C11   S    
C26   F3    S    
O4    C2    A    
C18   C34   S    
C29   C30   A    
C11   C12   S    
C25   C30   A    
O17   V3    S    
O19   V4    S    
O2    C1    A    
C23   H9    S    
C19   C20   A    
V3    O20   S    
C14   H6    S    
O18   C33   A    
C15   C16   A    
N5    H18   S    
C23   C24   A    
O3    C4    A    
O11   C32   A    
C21   C22   A    
O6    V2    S    
O9    V2    S    
C19   C24   A    
O2    V1    S    
C29   F4    S    
O11   V4    S    
C25   C26   A    
C27   C28   A    
O1    C2    A    
O5    V1    S    
O8    C3    A    
O15   V3    S    
O13   V3    S    
C11   H3    S    
C7    H1    S    
C13   C18   A    
O19   C34   A    
C13   N4    S    
C8    C9    A    
O7    V2    S    
C2    C30   S    
O4    V1    S    
O3    V1    S    
V1    O10   S    
C20   C21   A    
N3    H14   S    
C20   H7    S    
C17   F1    S    
O14   C32   A    
C25   N1    S    
C12   H5    S    
C28   C29   A    
O14   V3    S    
N1    H11   S    
C3    C15   S    
O9    C4    A    
