data_mof_unit_42531.cif
_audit_creation_date              2012-12-10T17:48:47-0500
_audit_creation_method            fapswitch 2.2
_symmetry_space_group_name_H-M    P1
_symmetry_Int_Tables_number       1
_space_group_crystal_system       triclinic
_cell_length_a                    15.718302
_cell_length_b                    10.723661
_cell_length_c                    9.932759
_cell_angle_alpha                 92.282643
_cell_angle_beta                  90.971517
_cell_angle_gamma                 92.333429
_cell_volume                      1671.23837655

loop_
_atom_site_label
_atom_site_type_symbol
_atom_type_description
_atom_site_fract_x
_atom_site_fract_y
_atom_site_fract_z
_atom_type_partial_charge
C1    C     C_R   0.506865 0.261432 0.497824 0.858750
C2    C     C_R   0.625291 0.092342 0.827052 -0.132116
C3    C     C_R   0.591610 0.975023 0.855743 -0.161493
C4    C     C_R   0.338393 0.499558 0.499058 0.901886
C5    C     C_R   0.545928 0.903196 0.756594 -0.205008
C6    C     C_R   0.533075 0.947988 0.625416 0.104519
C7    C     C_R   0.554058 0.074177 0.606707 0.103466
C8    C     C_R   0.518647 0.130172 0.494007 -0.112182
C9    C     C_R   0.480840 0.059334 0.387211 -0.230215
C10   C     C_R   0.473787 0.932312 0.394361 -0.218346
C11   C     C_R   0.499135 0.875228 0.511883 -0.125680
C12   C     C_3   0.952001 0.456979 0.638904 -0.405712
C13   C     C_R   0.386539 0.338456 0.131063 -0.149560
C14   C     C_R   0.329665 0.259077 0.056853 -0.207619
C15   C     C_R   0.328530 0.259674 0.917451 -0.193874
C16   C     C_R   0.498959 0.740669 0.503664 0.877159
C17   C     C_R   0.384368 0.339442 0.851337 -0.119030
C18   C     C_R   0.442422 0.422192 0.923162 0.134296
C19   C     C_R   0.443210 0.421478 0.067632 0.152332
C20   C     C_R   0.555899 0.572145 0.077880 -0.125621
C21   C     C_R   0.559130 0.568742 0.935286 0.152716
C22   C     C_R   0.661573 0.500374 0.500971 0.899800
C23   C     C_3   0.917304 0.499689 0.502187 0.373357
C24   C     C_3   0.050199 0.456683 0.636934 -0.393128
C25   C     C_3   0.044313 0.408821 0.386176 -0.402388
C26   C     C_3   0.946147 0.409112 0.388112 -0.393249
C27   C     C_1   0.750507 0.500140 0.503056 -0.208944
C28   C     C_3   0.082453 0.499233 0.498888 0.368416
C29   C     C_3   0.633733 0.638218 0.875167 -0.387693
C30   C     C_3   0.714310 0.560874 0.871888 -0.300378
C31   C     C_3   0.760057 0.558133 0.008745 -0.911980
C32   C     C_3   0.954158 0.632757 0.477585 -0.399301
C33   C     C_3   0.052325 0.632481 0.475585 -0.397119
C34   C     C_1   0.825875 0.499935 0.503481 -0.133642
C35   C     C_1   0.173948 0.499078 0.497279 -0.128351
C36   C     C_1   0.249366 0.499209 0.497189 -0.188817
C37   C     C_R   0.606527 0.142331 0.703580 -0.158239
H1    H     H_    0.925888 0.361527 0.658732 0.165370
H2    H     H_    0.446038 0.878786 0.308480 0.170995
H3    H     H_    0.601195 0.630652 0.137594 0.161112
H4    H     H_    0.071492 0.361079 0.655870 0.163773
H5    H     H_    0.385408 0.331145 0.237701 0.199280
H6    H     H_    0.286770 0.195917 0.107910 0.142143
H7    H     H_    0.284742 0.196861 0.859898 0.141864
H8    H     H_    0.381063 0.331439 0.744258 0.201125
H9    H     H_    0.067000 0.437608 0.286019 0.168343
H10   H     H_    0.065521 0.312421 0.400898 0.163297
H11   H     H_    0.919972 0.312825 0.403690 0.164790
H12   H     H_    0.077249 0.520343 0.719519 0.168479
H13   H     H_    0.921446 0.438050 0.288861 0.168474
H14   H     H_    0.079427 0.699113 0.555429 0.165681
H15   H     H_    0.075105 0.665003 0.376900 0.166425
H16   H     H_    0.933875 0.699475 0.558422 0.164097
H17   H     H_    0.771911 0.654286 0.052599 0.257472
H18   H     H_    0.722217 0.501739 0.079400 0.272386
H19   H     H_    0.822327 0.514216 0.995794 0.239728
H20   H     H_    0.698370 0.463262 0.835354 0.235692
H21   H     H_    0.759363 0.602963 0.799723 0.207427
H22   H     H_    0.617859 0.665977 0.772830 0.227137
H23   H     H_    0.931619 0.520790 0.722382 0.165327
H24   H     H_    0.647758 0.727559 0.933217 0.161634
H25   H     H_    0.929567 0.665443 0.379863 0.167236
H26   H     H_    0.454422 0.102266 0.299687 0.167188
H27   H     H_    0.632497 0.234980 0.685038 0.146426
H28   H     H_    0.663041 0.146645 0.902301 0.132713
H29   H     H_    0.600885 0.939548 0.955198 0.131129
H30   H     H_    0.516995 0.817605 0.789478 0.173440
N1    N     N_R   0.499210 0.498800 0.142780 -0.138411
N2    N     N_R   0.499180 0.498720 0.857170 -0.145529
O1    O     O_R   0.500000 0.316780 0.614690 -0.638789
O2    O     O_R   0.499990 0.316750 0.385360 -0.638475
O3    O     O_R   0.377150 0.500020 0.614720 -0.629839
O4    O     O_R   0.377140 0.499990 0.385380 -0.628848
O5    O     O_R   0.500010 0.683250 0.614640 -0.648520
O6    O     O_R   0.500000 0.683220 0.385310 -0.613555
O7    O     O_R   0.622860 0.500010 0.614620 -0.645027
O8    O     O_R   0.622850 0.499980 0.385280 -0.607545
Zn1   Zn    Zn3+2 0.500010 0.500020 0.653130 0.908298
Zn2   Zn    Zn3+2 0.499990 0.499980 0.346870 0.929042

loop_
_geom_bond_atom_site_label_1
_geom_bond_atom_site_label_2
_ccdc_geom_bond_type
C4    C36   S    
O1    Zn1   S    
C1    C8    S    
C35   C36   T    
C22   O7    A    
C5    H30   S    
C2    H28   S    
O2    Zn2   S    
C7    C8    A    
C33   H15   S    
C12   C23   S    
C1    O2    A    
C16   O5    A    
C17   H8    S    
C15   H7    S    
C26   H13   S    
C30   C31   S    
C20   H3    S    
C16   O6    A    
C30   H20   S    
C18   C19   A    
C23   C26   S    
O3    Zn1   S    
C29   H22   S    
C28   C35   S    
C8    C9    A    
C31   H19   S    
C9    C10   A    
C25   H10   S    
C26   H11   S    
N1    Zn2   S    
C13   C14   A    
C24   H4    S    
N2    Zn1   S    
C13   H5    S    
O8    Zn2   S    
C27   C34   T    
C7    C37   A    
C29   H24   S    
C13   C19   A    
C6    C11   A    
C25   C26   S    
C21   C29   S    
C21   N2    A    
C10   H2    S    
C25   C28   S    
C29   C30   S    
C11   C16   S    
C23   C34   S    
C17   C18   A    
O4    Zn2   S    
C19   N1    A    
C4    O4    A    
C28   C33   S    
C22   C27   S    
C3    H29   S    
C32   H16   S    
C4    O3    A    
C37   H27   S    
C24   H12   S    
C15   C17   A    
C9    H26   S    
C20   N1    A    
C24   C28   S    
C22   O8    A    
O7    Zn1   S    
C3    C5    A    
C6    C7    A    
C33   H14   S    
C12   C24   S    
C1    O1    A    
C23   C32   S    
C2    C3    A    
C32   H25   S    
C32   C33   S    
C2    C37   A    
C5    C6    A    
C18   N2    A    
C30   H21   S    
C31   H17   S    
C12   H1    S    
C10   C11   A    
C12   H23   S    
C20   C21   A    
O5    Zn1   S    
C14   C15   A    
C31   H18   S    
O6    Zn2   S    
C25   H9    S    
C14   H6    S    
