data_mof_unit_60633.cif
_audit_creation_date              2012-12-10T19:12:24-0500
_audit_creation_method            fapswitch 2.2
_symmetry_space_group_name_H-M    P1
_symmetry_Int_Tables_number       1
_space_group_crystal_system       triclinic
_cell_length_a                    15.689006
_cell_length_b                    10.825486
_cell_length_c                    9.822289
_cell_angle_alpha                 90.190197
_cell_angle_beta                  87.735205
_cell_angle_gamma                 90.136073
_cell_volume                      1666.91201549

loop_
_atom_site_label
_atom_site_type_symbol
_atom_type_description
_atom_site_fract_x
_atom_site_fract_y
_atom_site_fract_z
_atom_type_partial_charge
C1    C     C_R   0.503267 0.258675 0.499305 0.997472
C2    C     C_3   0.083105 0.494036 0.505036 -0.185334
C3    C     C_3   0.967548 0.556405 0.609017 0.156462
C4    C     C_3   0.916786 0.495341 0.496561 -0.238913
C5    C     C_3   0.028621 0.610565 0.498503 0.623196
C6    C     C_3   0.977509 0.549519 0.386730 0.595290
C7    C     C_1   0.173830 0.495594 0.507932 0.191390
C8    C     C_1   0.826076 0.496852 0.492679 0.201942
C9    C     C_3   0.549275 0.075749 0.623997 0.334689
C10   C     C_3   0.554840 0.934094 0.619723 -0.030957
C11   C     C_3   0.408740 0.076123 0.507919 -0.004189
C12   C     C_R   0.338125 0.499452 0.502313 0.900676
C13   C     C_3   0.551691 0.072161 0.366543 0.760653
C14   C     C_3   0.503815 0.123490 0.497499 -0.391604
C15   C     C_3   0.498984 0.881244 0.501511 -0.387965
C16   C     C_3   0.406938 0.933199 0.527388 0.116863
C17   C     C_3   0.538403 0.931218 0.361263 0.096082
C18   C     C_3   0.499988 0.371086 0.081970 0.317922
C19   C     C_3   0.490260 0.369371 0.921416 -0.053625
C20   C     C_3   0.419184 0.555194 0.084455 0.983687
C21   C     C_3   0.575069 0.565787 0.069953 0.576932
C22   C     C_3   0.428699 0.574404 0.925241 0.337139
C23   C     C_R   0.500034 0.743090 0.500508 0.946667
C24   C     C_3   0.580144 0.545694 0.910021 0.935378
C25   C     C_R   0.661858 0.499865 0.497749 0.893841
C26   C     C_3   0.971475 0.378537 0.503150 0.294310
C27   C     C_3   0.033117 0.432186 0.391291 -0.293057
C28   C     C_1   0.249177 0.497422 0.507134 -0.000137
C29   C     C_1   0.750772 0.498354 0.493100 0.004708
C30   C     C_3   0.023204 0.438853 0.616922 -0.243328
H1    H     H_    0.061530 0.381396 0.302193 0.243143
H2    H     H_    0.377165 0.117676 0.600692 0.150120
H3    H     H_    0.388201 0.916196 0.635926 0.167117
H4    H     H_    0.600893 0.885138 0.340505 0.140048
H5    H     H_    0.448230 0.315509 0.132289 0.257752
H6    H     H_    0.540244 0.308169 0.874734 0.267248
H7    H     H_    0.442238 0.673136 0.905252 0.178640
H8    H     H_    0.043672 0.393012 0.711153 0.239317
H9    H     H_    0.510759 0.106764 0.715298 0.190033
H10   H     H_    0.622264 0.905210 0.600392 0.219575
N1    N     N_3   0.498170 0.499750 0.138610 -0.333530
N2    N     N_3   0.498850 0.496730 0.861320 -0.297693
O1    O     O_R   0.499980 0.314910 0.616040 -0.621162
O2    O     O_R   0.500040 0.314680 0.383960 -0.536011
O3    O     O_R   0.376750 0.500100 0.616020 -0.539127
O4    O     O_R   0.376810 0.499870 0.383940 -0.549571
O5    O     O_R   0.499960 0.685320 0.616040 -0.568663
O6    O     O_R   0.500020 0.685090 0.383960 -0.528290
O7    O     O_R   0.623190 0.500130 0.616060 -0.520910
O8    O     O_R   0.623250 0.499900 0.383980 -0.589138
Zn1   Zn    Zn3+2 0.499960 0.500150 0.654960 1.132219
Zn2   Zn    Zn3+2 0.500040 0.499850 0.345040 1.161830
Br1   Br    Br    0.521723 0.884369 0.806133 -0.248497
F1    F     F_    0.520319 0.126103 0.251278 -0.530799
Br2   Br    Br    0.673750 0.112363 0.354342 -0.204506
Br3   Br    Br    0.470902 0.895047 0.201835 -0.030763
Br4   Br    Br    0.339361 0.136575 0.359894 -0.238831
Br5   Br    Br    0.315220 0.843925 0.438292 -0.203479
Br6   Br    Br    0.927981 0.210925 0.506209 -0.206727
F2    F     F_    0.575244 0.312799 0.112585 -0.523953
Br7   Br    Br    0.384368 0.285807 0.874857 -0.280485
F3    F     F_    0.348942 0.480112 0.114112 -0.568297
F4    F     F_    0.351547 0.551297 0.866869 -0.524703
F5    F     F_    0.569157 0.690594 0.096550 -0.574964
Br8   Br    Br    0.689539 0.522247 0.128865 -0.102386
F6    F     F_    0.645263 0.464185 0.871478 -0.570706
F7    F     F_    0.600741 0.654864 0.845319 -0.552807
F8    F     F_    0.401217 0.665486 0.147905 -0.537645
F9    F     F_    0.952254 0.607352 0.269651 -0.534823
F10   F     F_    0.060056 0.730075 0.495666 -0.534443
Br9   Br    Br    0.919065 0.646235 0.764384 -0.160300
F11   F     F_    0.629512 0.127111 0.637923 -0.570021

loop_
_geom_bond_atom_site_label_1
_geom_bond_atom_site_label_2
_ccdc_geom_bond_type
C6    F9    S    
C24   N2    S    
C2    C7    S    
C9    F11   S    
C4    C8    S    
C20   N1    S    
C26   C27   S    
C12   C28   S    
C8    C29   T    
C19   H6    S    
C5    C6    S    
C11   C14   S    
O3    Zn1   S    
C15   C16   S    
O4    Zn2   S    
C9    H9    S    
C30   H8    S    
C10   H10   S    
C18   C19   S    
C10   Br1   S    
C25   O8    A    
C21   F5    S    
C24   F7    S    
C22   F4    S    
C1    O1    A    
O7    Zn1   S    
O8    Zn2   S    
C2    C27   S    
C26   Br6   S    
N1    Zn2   S    
C19   N2    S    
C24   F6    S    
N2    Zn1   S    
O2    Zn2   S    
C15   C23   S    
C13   C14   S    
C9    C10   S    
C25   C29   S    
C23   O5    A    
C27   H1    S    
C2    C30   S    
C12   O4    A    
C4    C6    S    
C18   N1    S    
O5    Zn1   S    
C22   H7    S    
C7    C28   T    
C3    C30   S    
C3    Br9   S    
C9    C14   S    
C5    F10   S    
C16   H3    S    
C11   C16   S    
C1    O2    A    
C6    C27   S    
C16   Br5   S    
C17   Br3   S    
C21   N1    S    
C18   F2    S    
C20   C22   S    
C11   H2    S    
C26   C30   S    
C2    C5    S    
C17   H4    S    
C3    C4    S    
C13   F1    S    
C18   H5    S    
C15   C17   S    
C23   O6    A    
C21   Br8   S    
C20   F8    S    
C12   O3    A    
C3    C5    S    
C4    C26   S    
C13   C17   S    
C10   C15   S    
O1    Zn1   S    
C22   N2    S    
C19   Br7   S    
C20   F3    S    
C25   O7    A    
O6    Zn2   S    
C21   C24   S    
C1    C14   S    
C11   Br4   S    
C13   Br2   S    
