data_mof_unit_30956.cif
_audit_creation_date              2012-12-10T17:43:31-0500
_audit_creation_method            fapswitch 2.2
_symmetry_space_group_name_H-M    P1
_symmetry_Int_Tables_number       1
_space_group_crystal_system       triclinic
_cell_length_a                    14.973154
_cell_length_b                    10.723162
_cell_length_c                    9.879894
_cell_angle_alpha                 89.578491
_cell_angle_beta                  89.9165
_cell_angle_gamma                 91.78029
_cell_volume                      1585.50053073

loop_
_atom_site_label
_atom_site_type_symbol
_atom_type_description
_atom_site_fract_x
_atom_site_fract_y
_atom_site_fract_z
_atom_type_partial_charge
C1    C     C_R   0.506190 0.260085 0.501629 0.863074
C2    C     C_R   0.184413 0.440837 0.599284 -0.323421
C3    C     C_R   0.231731 0.509098 0.501013 -0.186585
C4    C     C_R   0.327020 0.502082 0.500109 0.918922
C5    C     C_R   0.188447 0.584611 0.406359 0.464327
C6    C     C_R   0.524911 0.110349 0.760612 -0.173525
C7    C     C_R   0.498929 0.047927 0.879266 -0.141718
C8    C     C_R   0.451771 0.934666 0.871799 -0.115102
C9    C     C_R   0.438572 0.878476 0.746446 -0.124766
C10   C     C_R   0.473384 0.935302 0.626590 0.100644
C11   C     C_R   0.503929 0.059500 0.631642 0.105876
C12   C     C_R   0.908279 0.581917 0.406018 0.010671
C13   C     C_R   0.511206 0.126386 0.506929 -0.119187
C14   C     C_R   0.508481 0.063995 0.383297 -0.229352
C15   C     C_R   0.497210 0.937055 0.381347 -0.235310
C16   C     C_R   0.491744 0.739146 0.500171 0.858776
C17   C     C_R   0.481876 0.871858 0.502261 -0.139221
C18   C     C_R   0.383587 0.334824 0.141793 -0.186374
C19   C     C_R   0.327231 0.252249 0.072130 -0.227386
C20   C     C_R   0.327304 0.252042 0.931979 0.174563
C21   C     C_R   0.383733 0.334858 0.860990 -0.198480
C22   C     C_R   0.442656 0.418546 0.928330 0.124959
C23   C     C_R   0.952347 0.365831 0.695516 -0.158007
C24   C     C_R   0.442658 0.418548 0.073095 0.174243
C25   C     C_R   0.554571 0.578304 0.070874 -0.100488
C26   C     C_R   0.554532 0.578282 0.927521 -0.096551
C27   C     C_R   0.673026 0.500291 0.499873 0.976055
C28   C     C_R   0.815231 0.582322 0.408603 0.410473
C29   C     C_R   0.768760 0.502808 0.499828 -0.318957
C30   C     C_R   0.813323 0.426615 0.592109 0.412006
C31   C     C_R   0.906213 0.434101 0.597766 -0.002089
C32   C     C_R   0.953754 0.509608 0.502457 -0.057579
C33   C     C_3   0.752057 0.770696 0.380565 -0.316666
C34   C     C_R   0.044891 0.369856 0.697298 -0.191691
C35   C     C_3   0.752412 0.231081 0.613962 -0.324522
C36   C     C_3   0.258225 0.772793 0.370095 -0.278970
C37   C     C_R   0.092275 0.441114 0.600791 0.128489
C38   C     C_R   0.047072 0.511876 0.502982 0.052586
C39   C     C_R   0.095170 0.584021 0.405310 0.009421
C40   C     C_R   0.049224 0.653562 0.308697 -0.200725
C41   C     C_R   0.956589 0.653106 0.309556 -0.171072
H1    H     H_    0.563634 0.196073 0.772733 0.184915
H2    H     H_    0.598981 0.642213 0.872806 0.152492
H3    H     H_    0.917190 0.308782 0.770556 0.192617
H4    H     H_    0.079382 0.316068 0.773128 0.179620
H5    H     H_    0.219567 0.385027 0.672681 0.195711
H6    H     H_    0.084577 0.708651 0.232213 0.193898
H7    H     H_    0.923036 0.708230 0.233926 0.190751
H8    H     H_    0.515738 0.112999 0.287377 0.173300
H9    H     H_    0.709172 0.757386 0.471936 0.154012
H10   H     H_    0.715276 0.829532 0.308045 0.190655
H11   H     H_    0.815191 0.822132 0.407442 0.157610
H12   H     H_    0.513354 0.089177 0.976839 0.139870
H13   H     H_    0.718273 0.165193 0.685446 0.188229
H14   H     H_    0.816942 0.189636 0.585191 0.161300
H15   H     H_    0.709025 0.239950 0.523323 0.147855
H16   H     H_    0.301054 0.827373 0.297979 0.197879
H17   H     H_    0.296231 0.763804 0.466207 0.140224
H18   H     H_    0.196828 0.826192 0.387907 0.160974
H19   H     H_    0.427380 0.888845 0.963230 0.143941
H20   H     H_    0.400499 0.791132 0.744489 0.163786
H21   H     H_    0.501595 0.890108 0.284900 0.172032
H22   H     H_    0.599088 0.642193 0.124334 0.171383
H23   H     H_    0.378723 0.330086 0.249091 0.215730
H24   H     H_    0.283250 0.188195 0.127709 0.175908
H25   H     H_    0.379853 0.330056 0.753766 0.221201
I1    I     I_    0.242998 0.124599 0.826759 -0.467943
N1    N     N_R   0.499150 0.498800 0.142780 -0.119505
N2    N     N_R   0.499120 0.498720 0.857170 -0.119652
O1    O     O_R   0.500000 0.316780 0.614690 -0.645589
O2    O     O_3   0.765684 0.346997 0.678861 -0.585789
O3    O     O_3   0.237327 0.655354 0.312730 -0.597623
O4    O     O_R   0.499990 0.316750 0.385360 -0.653018
O5    O     O_R   0.367850 0.499980 0.614680 -0.653817
O6    O     O_R   0.367840 0.499960 0.385350 -0.591503
O7    O     O_R   0.500010 0.683250 0.614640 -0.640015
O8    O     O_R   0.500000 0.683220 0.385310 -0.611229
O9    O     O_R   0.632160 0.500040 0.614650 -0.583976
O10   O     O_R   0.632150 0.500020 0.385320 -0.582783
O11   O     O_3   0.769368 0.656030 0.317999 -0.593559
Zn1   Zn    Zn3+2 0.500010 0.500020 0.653130 0.943117
Zn2   Zn    Zn3+2 0.499990 0.499980 0.346870 0.969649

loop_
_geom_bond_atom_site_label_1
_geom_bond_atom_site_label_2
_ccdc_geom_bond_type
C40   H6    S    
C21   H25   S    
C27   C29   S    
C34   C37   A    
C20   I1    S    
C19   C20   A    
O9    Zn1   S    
C27   O9    A    
C30   O2    S    
C7    C8    A    
C2    H5    S    
C33   H11   S    
C29   C30   A    
C12   C28   A    
C9    H20   S    
C28   C29   A    
C37   C38   A    
C16   O8    A    
C5    O3    S    
C36   H17   S    
C38   C39   A    
C14   H8    S    
C10   C17   A    
C18   C19   A    
C25   H22   S    
O1    Zn1   S    
C4    O6    A    
C15   H21   S    
C8    C9    A    
C18   C24   A    
C32   C38   A    
C9    C10   A    
C22   N2    A    
C4    O5    A    
C36   H18   S    
C35   O2    S    
C13   C14   A    
C12   C32   A    
C35   H13   S    
C25   N1    A    
C26   H2    S    
C35   H14   S    
C36   H16   S    
C6    C11   A    
C16   C17   S    
C25   C26   A    
C23   H3    S    
C23   C31   A    
C12   C41   A    
C31   C32   A    
C23   C34   A    
C33   O11   S    
C34   H4    S    
C40   C41   A    
C5    C39   A    
C22   C24   A    
C1    C13   S    
C7    H12   S    
O5    Zn1   S    
C3    C4    S    
O4    Zn2   S    
C39   C40   A    
C15   C17   A    
C35   H15   S    
C16   O7    A    
C3    C5    A    
O7    Zn1   S    
O10   Zn2   S    
O6    Zn2   S    
C6    C7    A    
C33   H10   S    
C27   O10   A    
C1    O1    A    
N1    Zn2   S    
C2    C3    A    
C33   H9    S    
C1    O4    A    
C8    H19   S    
C11   C13   A    
C2    C37   A    
C18   H23   S    
C30   C31   A    
O8    Zn2   S    
C41   H7    S    
C19   H24   S    
C28   O11   S    
N2    Zn1   S    
C10   C11   A    
C24   N1    A    
C20   C21   A    
C6    H1    S    
C26   N2    A    
C14   C15   A    
C21   C22   A    
C36   O3    S    
