data_mof_unit_28659.cif
_audit_creation_date              2013-03-05T15:55:41-0500
_audit_creation_method            fapswitch 2.2
_symmetry_space_group_name_H-M    P1
_symmetry_Int_Tables_number       1
_space_group_crystal_system       triclinic
_cell_length_a                    6.933863
_cell_length_b                    17.578598
_cell_length_c                    19.445038
_cell_angle_alpha                 108.589741
_cell_angle_beta                  89.517441
_cell_angle_gamma                 90.592264
_cell_volume                      2246.2967104

loop_
_atom_site_label
_atom_site_type_symbol
_atom_site_description
_atom_site_fract_x
_atom_site_fract_y
_atom_site_fract_z
_atom_type_partial_charge
O1    O     O_R   0.494330 0.415710 0.413720 -0.598695
O2    O     O_R   0.819360 0.430070 0.560210 -0.592579
O3    O     O_R   0.994320 0.584290 0.586280 -0.573679
C1    C     C_R   0.650127 0.415564 0.582257 0.952969
O4    O     O_R   0.823740 0.406290 0.412670 -0.599065
O5    O     O_R   0.998730 0.560340 0.437690 -0.554699
C2    C     C_R   0.654785 0.383115 0.384715 0.941747
O6    O     O_R   0.489920 0.439660 0.562310 -0.598268
O7    O     O_3   0.662330 0.550570 0.508380 -0.268322
V1    V     V_3+5 0.935370 0.490620 0.498440 1.179315
O8    O     O_R   0.328720 0.569930 0.439790 -0.594780
C3    C     C_R   0.160759 0.583563 0.416973 0.994402
O9    O     O_R   0.324340 0.593710 0.587330 -0.620154
C4    C     C_R   0.155191 0.616003 0.615912 0.974646
V2    V     V_3+5 0.435940 0.509380 0.501560 1.155558
O10   O     O_3   0.159110 0.449430 0.491620 -0.287605
C5    C     C_R   0.279338 0.746478 0.700887 -0.254736
H1    H     H_    0.392960 0.746385 0.662332 0.138730
C6    C     C_R   0.269325 0.810713 0.765725 -0.126885
H2    H     H_    0.376421 0.858263 0.775885 0.121092
C7    C     C_R   0.120786 0.814476 0.816249 -0.175607
C8    C     C_R   0.984494 0.751780 0.801234 -0.263999
H3    H     H_    0.874280 0.752181 0.841142 0.178888
C9    C     C_R   0.994018 0.686448 0.736293 0.628930
C10   C     C_R   0.143206 0.683594 0.685390 -0.279022
C11   C     C_R   0.996956 0.618072 0.315257 0.550459
C12   C     C_R   0.152278 0.629360 0.364668 -0.329424
C13   C     C_R   0.300939 0.683870 0.363212 -0.300293
C14   C     C_R   0.293338 0.729410 0.315738 0.147954
C15   C     C_R   0.134954 0.720549 0.268544 -0.001796
C16   C     C_R   0.986431 0.664925 0.268370 -0.026113
C17   C     C_R   0.441224 0.784278 0.315109 -0.195314
C18   C     C_R   0.431818 0.830579 0.268659 -0.183720
C19   C     C_R   0.274798 0.822628 0.221705 0.148198
C20   C     C_R   0.125799 0.767166 0.221153 0.032530
C21   C     C_R   0.969226 0.757515 0.172796 -0.016348
C22   C     C_R   0.823427 0.701252 0.173045 -0.149399
C23   C     C_R   0.830865 0.656433 0.220595 -0.189724
C24   C     C_R   0.264829 0.869460 0.175529 -0.194850
C25   C     C_R   0.110968 0.860632 0.126920 -0.314950
C26   C     C_R   0.964126 0.803004 0.124402 0.290824
H4    H     H_    0.421600 0.691892 0.400055 0.173029
H5    H     H_    0.564292 0.791525 0.350704 0.135894
H6    H     H_    0.547988 0.872536 0.269311 0.135807
H7    H     H_    0.377278 0.913514 0.177763 0.162090
H8    H     H_    0.701872 0.691267 0.136655 0.183104
H9    H     H_    0.714109 0.614584 0.219332 0.174731
C27   C     C_R   0.765115 0.193968 0.876984 -0.150905
C28   C     C_R   0.623415 0.133997 0.868610 -0.166033
C29   C     C_R   0.485333 0.121952 0.813582 -0.224206
C30   C     C_R   0.490396 0.167769 0.766177 0.231404
C31   C     C_R   0.631906 0.228560 0.775184 -0.036915
C32   C     C_R   0.767551 0.243055 0.831888 -0.084026
C33   C     C_R   0.355277 0.154038 0.710107 -0.224974
C34   C     C_R   0.360808 0.199415 0.662707 -0.249350
C35   C     C_R   0.500214 0.260049 0.670936 0.211036
C36   C     C_R   0.635778 0.275294 0.727857 -0.044876
C37   C     C_R   0.772637 0.337918 0.737999 -0.099597
C38   C     C_R   0.903898 0.354201 0.796206 0.417453
C39   C     C_R   0.899393 0.307683 0.843595 0.424411
C40   C     C_R   0.503568 0.306678 0.624075 -0.276146
C41   C     C_R   0.641626 0.367906 0.632825 -0.174930
C42   C     C_R   0.774677 0.383384 0.689918 -0.125475
H10   H     H_    0.869534 0.203679 0.920146 0.163755
H11   H     H_    0.375565 0.075796 0.806947 0.118435
H12   H     H_    0.245257 0.107946 0.702781 0.132723
H13   H     H_    0.254704 0.187537 0.619899 0.138153
H14   H     H_    0.399973 0.294914 0.580382 0.133206
H15   H     H_    0.878774 0.431633 0.696906 0.183722
C43   C     C_R   0.811629 0.276577 0.281375 -0.165980
H16   H     H_    0.952305 0.295958 0.304485 0.120786
C44   C     C_R   0.800520 0.212829 0.216311 -0.138095
H17   H     H_    0.933183 0.184833 0.191442 0.122070
C45   C     C_R   0.620981 0.185551 0.183985 -0.118676
C46   C     C_R   0.452894 0.223933 0.218421 -0.147494
H18   H     H_    0.312245 0.204694 0.195220 0.119165
C47   C     C_R   0.464013 0.287721 0.283472 -0.139871
H19   H     H_    0.331393 0.315853 0.308262 0.119789
C48   C     C_R   0.643511 0.314792 0.315923 -0.136501
O11   O     O_R   0.774940 0.060470 0.937800 -0.602656
O12   O     O_R   0.440880 0.093730 0.087350 -0.605455
O13   O     O_R   0.266130 0.939630 0.062280 -0.582329
C49   C     C_R   0.609782 0.117031 0.115312 0.907212
O14   O     O_R   0.445480 0.069960 0.939820 -0.595766
O15   O     O_R   0.270770 0.915690 0.913690 -0.598058
C50   C     C_R   0.614788 0.085031 0.918184 0.928378
O16   O     O_R   0.770300 0.084410 0.086380 -0.605773
O17   O     O_3   0.602600 0.949510 0.991670 -0.233512
V3    V     V_3+5 0.329470 0.009370 0.001550 1.178669
O18   O     O_R   0.940760 0.906160 0.912560 -0.589253
C51   C     C_R   0.109939 0.883045 0.884731 0.973025
O19   O     O_R   0.936150 0.929930 0.060100 -0.562961
C52   C     C_R   0.104147 0.913090 0.080198 1.019748
V4    V     V_3+5 0.828930 0.990450 0.998310 1.208492
O20   O     O_3   0.105670 0.050490 0.008320 -0.292854
N1    N     N_R   0.816870 0.787517 0.070130 0.235926
O21   O     O_R   0.638538 0.806000 0.088738 -0.419957
O22   O     O_R   0.863145 0.759899 0.001696 -0.403188
O23   O     O_3   0.024778 0.420559 0.811466 -0.598179
C53   C     C_3   0.205590 0.395864 0.779113 -0.121413
H20   H     H_    0.302714 0.448982 0.791242 0.167781
H21   H     H_    0.192662 0.370733 0.719139 0.113866
H22   H     H_    0.273444 0.351733 0.801454 0.161005
O24   O     O_3   0.029590 0.324269 0.900095 -0.608234
C54   C     C_3   0.948454 0.382333 0.960950 -0.174611
H23   H     H_    0.051019 0.394448 0.006737 0.155653
H24   H     H_    0.811121 0.360431 0.978363 0.112029
H25   H     H_    0.924496 0.439991 0.950181 0.178849
O25   O     O_3   0.873038 0.620682 0.726405 -0.631283
C55   C     C_3   0.683338 0.641971 0.715121 -0.144859
H26   H     H_    0.592042 0.586992 0.700222 0.161994
H27   H     H_    0.677161 0.667246 0.669479 0.126196
H28   H     H_    0.620973 0.684625 0.765325 0.135219
O26   O     O_3   0.852537 0.562531 0.313733 -0.609523
C56   C     C_3   0.908061 0.487566 0.264920 -0.236595
H29   H     H_    0.035660 0.463484 0.285255 0.122891
H30   H     H_    0.937976 0.491071 0.209662 0.121449
H31   H     H_    0.787246 0.444371 0.260002 0.165153

loop_
_geom_bond_atom_site_label_1
_geom_bond_atom_site_label_2
_geom_bond_distance
_ccdc_geom_bond_type
C49   O16   1.296565 A    
C34   C35   1.403057 A    
C38   O23   1.383663 S    
C20   C21   1.415368 A    
C25   C52   1.487873 S    
C1    O6    1.298308 A    
O26   C56   1.411579 S    
O15   C51   1.296668 A    
C47   H19   1.082816 S    
C54   H24   1.113445 S    
C13   C14   1.403097 A    
C11   C12   1.419100 A    
C41   C42   1.406087 A    
O13   V3    1.998367 S    
C15   C20   1.417152 A    
C21   C22   1.408010 A    
C6    C7    1.404739 A    
C22   C23   1.394415 A    
O14   C50   1.296795 A    
C14   C17   1.403127 A    
O5    C3    1.295722 A    
C15   C16   1.412004 A    
C27   H10   1.083561 S    
C26   N1    1.435118 S    
C56   H29   1.112962 S    
O16   V4    2.006192 S    
C1    C41   1.481686 S    
C35   C36   1.415501 A    
C19   C20   1.410909 A    
C55   H26   1.109332 S    
O19   C52   1.298398 A    
O11   C50   1.298881 A    
O8    V2    1.993699 S    
C42   H15   1.083662 S    
C56   H30   1.113364 S    
N1    O22   1.301372 A    
O18   V4    2.000933 S    
C43   H16   1.082754 S    
O1    V2    2.000395 S    
O7    V1    2.153470 S    
C45   C49   1.488048 S    
C24   H7    1.084520 S    
O12   V3    1.999983 S    
C38   C39   1.413571 A    
O13   C52   1.298754 A    
C7    C8    1.403896 A    
C21   C26   1.416721 A    
V4    O20   2.160401 S    
O19   V4    1.993616 S    
O24   C54   1.410380 S    
O12   C49   1.301460 A    
C32   C39   1.412554 A    
C29   C30   1.404202 A    
C36   C37   1.412239 A    
C47   C48   1.408269 A    
C27   C32   1.412683 A    
C54   H25   1.112693 S    
O17   V4    1.708286 S    
C45   C46   1.406068 A    
C3    C12   1.486619 S    
C30   C31   1.413263 A    
C9    C10   1.415798 A    
C44   C45   1.408358 A    
C24   C25   1.405596 A    
O4    C2    1.301369 A    
O15   V3    2.000089 S    
C37   C38   1.413072 A    
C53   H22   1.112551 S    
C19   C24   1.400800 A    
V3    O20   1.704986 S    
O2    C1    1.296463 A    
C46   H18   1.082744 S    
C11   O26   1.385179 S    
C14   C15   1.412363 A    
O23   C53   1.407090 S    
C56   H31   1.108764 S    
N1    O21   1.300504 A    
C53   H21   1.111601 S    
C5    H1    1.082603 S    
C39   O24   1.383492 S    
C46   C47   1.399574 A    
C55   H28   1.111353 S    
C23   H9    1.083363 S    
O3    C4    1.296221 A    
C27   C28   1.405375 A    
O6    V2    1.994384 S    
O9    V2    2.000881 S    
C8    C9    1.411886 A    
O14   V3    2.000857 S    
O11   V4    1.994969 S    
O2    V1    2.000951 S    
C31   C32   1.413742 A    
C2    C48   1.487752 S    
C7    C51   1.486133 S    
C37   C42   1.410326 A    
C33   C34   1.398146 A    
C25   C26   1.418870 A    
C43   C48   1.405956 A    
O1    C2    1.296454 A    
C18   H6    1.083934 S    
C28   C50   1.483468 S    
C8    H3    1.082995 S    
C9    O25   1.384956 S    
C44   H17   1.082744 S    
O5    V1    1.998418 S    
C34   H13   1.083544 S    
O8    C3    1.301106 A    
C33   H12   1.083602 S    
C54   H23   1.109259 S    
C16   C23   1.404991 A    
C30   C33   1.403377 A    
C5    C10   1.405191 A    
C17   C18   1.397609 A    
C6    H2    1.083274 S    
O7    V2    1.710198 S    
O4    V1    1.999975 S    
O3    V1    2.000114 S    
V1    O10   1.705045 S    
O25   C55   1.409154 S    
C40   H14   1.084327 S    
O18   C51   1.301142 A    
C13   H4    1.084600 S    
C53   H20   1.109189 S    
C5    C6    1.400662 A    
C17   H5    1.083961 S    
C18   C19   1.403834 A    
C4    C10   1.490150 S    
C40   C41   1.403009 A    
C29   H11   1.084616 S    
C55   H27   1.113269 S    
C31   C36   1.415520 A    
C11   C16   1.412807 A    
O17   V3    2.153364 S    
C28   C29   1.405390 A    
C12   C13   1.406375 A    
C35   C40   1.406478 A    
C43   C44   1.399395 A    
C22   H8    1.081523 S    
O9    C4    1.302963 A    
V2    O10   2.160320 S    
