data_mof_unit_34469.cif
_audit_creation_date              2012-12-11T15:50:25-0500
_audit_creation_method            fapswitch 2.2
_symmetry_space_group_name_H-M    P1
_symmetry_Int_Tables_number       1
_space_group_crystal_system       triclinic
_cell_length_a                    18.940976
_cell_length_b                    10.96627
_cell_length_c                    18.804133
_cell_angle_alpha                 89.634777
_cell_angle_beta                  90.945575
_cell_angle_gamma                 89.494923
_cell_volume                      3905.07472643

loop_
_atom_site_label
_atom_site_type_symbol
_atom_type_description
_atom_site_fract_x
_atom_site_fract_y
_atom_site_fract_z
_atom_type_partial_charge
C1    C     C_R   0.273483 0.041311 0.854333 0.534667
C2    C     C_R   0.710410 0.000547 0.138737 0.521965
C3    C     C_R   0.773483 0.541311 0.854333 0.534667
C4    C     C_R   0.210410 0.500547 0.138737 0.521965
C5    C     C_3   0.527346 0.730826 0.964620 -0.110583
C6    C     C_3   0.483800 0.722889 0.032716 -0.119931
C7    C     C_3   0.027346 0.230826 0.964620 -0.110583
C8    C     C_3   0.983800 0.222889 0.032716 -0.119931
C9    C     C_R   0.219827 0.523024 0.062188 -0.013391
C10   C     C_R   0.754209 0.595075 0.922494 0.004657
C11   C     C_R   0.719827 0.023024 0.062188 -0.013391
C12   C     C_R   0.254209 0.095075 0.922494 0.004657
C13   C     C_R   0.279929 0.479040 0.028183 -0.006359
C14   C     C_R   0.691337 0.564026 0.956122 -0.014256
C15   C     C_R   0.779929 0.979040 0.028183 -0.006359
C16   C     C_R   0.191337 0.064026 0.956122 -0.014256
C17   C     C_R   0.290562 0.499878 0.956019 0.015319
C18   C     C_R   0.680280 0.593988 0.026760 -0.009709
C19   C     C_R   0.790562 0.999878 0.956019 0.015319
C20   C     C_R   0.180280 0.093988 0.026760 -0.009709
C21   C     C_R   0.176066 0.594943 0.946578 -0.174125
C22   C     C_R   0.791762 0.696454 0.031163 -0.160859
C23   C     C_R   0.676066 0.094943 0.946578 -0.174125
C24   C     C_R   0.291762 0.196454 0.031163 -0.160859
C25   C     C_R   0.166222 0.579897 0.019394 -0.060506
C26   C     C_R   0.803773 0.668395 0.961005 -0.035260
C27   C     C_R   0.666222 0.079897 0.019394 -0.060506
C28   C     C_R   0.303773 0.168395 0.961005 -0.035260
C29   C     C_3   0.355088 0.506130 0.046187 -0.271139
C30   C     C_3   0.657296 0.442505 0.964563 -0.256942
C31   C     C_3   0.855088 0.006130 0.046187 -0.271140
C32   C     C_3   0.157296 0.942505 0.964563 -0.256942
C33   C     C_3   0.366880 0.524504 0.967360 -0.268663
C34   C     C_3   0.644939 0.475608 0.041679 -0.242386
C35   C     C_3   0.866880 0.024504 0.967360 -0.268663
C36   C     C_3   0.144939 0.975608 0.041679 -0.242386
C37   C     C_R   0.241232 0.566832 0.915555 0.003461
C38   C     C_R   0.732390 0.654347 0.066174 -0.008450
C39   C     C_R   0.741232 0.066832 0.915555 0.003461
C40   C     C_R   0.232390 0.154347 0.066174 -0.008450
C41   C     C_R   0.522574 0.831711 0.431268 0.007971
C42   C     C_R   0.504284 0.825929 0.578791 0.017972
C43   C     C_R   0.022574 0.331711 0.431268 0.007971
C44   C     C_R   0.004284 0.325929 0.578791 0.017972
C45   C     C_R   0.443606 0.817727 0.863116 0.544541
C46   C     C_R   0.556630 0.818131 0.136865 0.522804
C47   C     C_R   0.943606 0.317727 0.863116 0.544541
C48   C     C_R   0.056630 0.318132 0.136865 0.522804
C49   C     C_R   0.506574 0.724669 0.465614 0.004354
C50   C     C_R   0.496532 0.722191 0.536975 0.055499
C51   C     C_R   0.006574 0.224669 0.465614 0.004354
C52   C     C_R   0.996532 0.222191 0.536975 0.055499
C53   C     C_R   0.532927 0.930405 0.547351 -0.173848
C54   C     C_R   0.541940 0.933321 0.473032 -0.158103
C55   C     C_R   0.032927 0.430405 0.547351 -0.173848
C56   C     C_R   0.041940 0.433321 0.473032 -0.158103
C57   C     C_3   0.448418 0.639205 0.449826 -0.276410
C58   C     C_3   0.435618 0.638002 0.528916 -0.242501
C59   C     C_3   0.948418 0.139205 0.449826 -0.276410
C60   C     C_3   0.935618 0.138002 0.528916 -0.242501
C61   C     C_R   0.252703 0.582160 0.423766 -0.002181
C62   C     C_R   0.755980 0.589275 0.575973 0.006425
C63   C     C_R   0.752703 0.082160 0.423766 -0.002181
C64   C     C_R   0.255980 0.089275 0.575973 0.006425
C65   C     C_R   0.221899 0.683755 0.454614 -0.014729
C66   C     C_R   0.814314 0.613100 0.533717 0.018427
C67   C     C_R   0.721899 0.183755 0.454614 -0.014729
C68   C     C_R   0.314314 0.113100 0.533717 0.018427
C69   C     C_R   0.219944 0.691636 0.526658 0.023804
C70   C     C_R   0.808403 0.615967 0.461811 0.050761
C71   C     C_R   0.719944 0.191636 0.526658 0.023804
C72   C     C_R   0.308403 0.115967 0.461811 0.050761
C73   C     C_R   0.290399 0.510019 0.541761 -0.180554
C74   C     C_R   0.682585 0.588500 0.470435 -0.174434
C75   C     C_R   0.790400 0.010019 0.541761 -0.180554
C76   C     C_R   0.182585 0.088500 0.470435 -0.174434
C77   C     C_R   0.294484 0.501750 0.467928 -0.042562
C78   C     C_R   0.688485 0.583658 0.544635 -0.060973
C79   C     C_R   0.794484 0.001751 0.467928 -0.042562
C80   C     C_R   0.188485 0.083658 0.544635 -0.060973
C81   C     C_3   0.152014 0.747759 0.445420 -0.266636
C82   C     C_3   0.882939 0.545209 0.530279 -0.238969
C83   C     C_3   0.652014 0.247759 0.445420 -0.266636
C84   C     C_3   0.382939 0.045209 0.530279 -0.238969
C85   C     C_3   0.148935 0.751028 0.525818 -0.249952
C86   C     C_3   0.875532 0.548233 0.450396 -0.271102
C87   C     C_3   0.648935 0.251028 0.525818 -0.249952
C88   C     C_3   0.375532 0.048233 0.450396 -0.271102
C89   C     C_R   0.259626 0.633019 0.850484 0.534933
C90   C     C_R   0.726356 0.682759 0.141187 0.527595
C91   C     C_R   0.759626 0.133019 0.850484 0.534933
C92   C     C_R   0.226356 0.182759 0.141187 0.527595
C93   C     C_R   0.249755 0.602396 0.571389 0.004968
C94   C     C_R   0.744063 0.598753 0.428947 -0.002179
C95   C     C_R   0.749755 0.102396 0.571389 0.004968
C96   C     C_R   0.244063 0.098752 0.428947 -0.002179
C97   C     C_R   0.271589 0.046730 0.646588 0.546478
C98   C     C_R   0.729027 0.044178 0.354286 0.557299
C99   C     C_R   0.771589 0.546730 0.646588 0.546478
C100  C     C_R   0.229027 0.544178 0.354286 0.557299
C101  C     C_R   0.471671 0.823097 0.648212 0.546656
C102  C     C_R   0.536334 0.823494 0.356091 0.557486
C103  C     C_R   0.971671 0.323097 0.648212 0.546656
C104  C     C_R   0.036334 0.323494 0.356091 0.557486
C105  C     C_R   0.259186 0.636048 0.644235 0.543009
C106  C     C_R   0.738988 0.637942 0.356694 0.559552
C107  C     C_R   0.759186 0.136048 0.644235 0.543009
C108  C     C_R   0.238988 0.137942 0.356694 0.559552
C109  C     C_3   0.474248 0.922252 0.034889 -0.084231
C110  C     C_3   0.517700 0.930051 0.965859 -0.089786
C111  C     C_3   0.974248 0.422252 0.034889 -0.084231
C112  C     C_3   0.017700 0.430051 0.965859 -0.089786
C113  C     C_3   0.430192 0.817896 0.002743 -0.156942
C114  C     C_3   0.571347 0.835063 0.996584 -0.145422
C115  C     C_3   0.930192 0.317896 0.002743 -0.156942
C116  C     C_3   0.071347 0.335063 0.996584 -0.145422
C117  C     C_3   0.474131 0.825249 0.935136 0.046308
C118  C     C_3   0.527336 0.826999 0.064156 0.052366
C119  C     C_3   0.974131 0.325250 0.935136 0.046308
C120  C     C_3   0.027336 0.326999 0.064156 0.052366
Cr1   Cr    Cr6+3 0.229640 0.835880 0.747370 1.033338
Cr2   Cr    Cr6+3 0.770360 0.835880 0.252630 1.037869
Cr3   Cr    Cr6+3 0.729640 0.335880 0.747370 1.033338
Cr4   Cr    Cr6+3 0.270360 0.335880 0.252630 1.037869
Cr5   Cr    Cr6+3 0.387390 0.989720 0.750850 1.035602
Cr6   Cr    Cr6+3 0.612610 0.989720 0.249150 1.032855
Cr7   Cr    Cr6+3 0.887390 0.489720 0.750850 1.035602
Cr8   Cr    Cr6+3 0.112610 0.489720 0.249150 1.032855
Cr9   Cr    Cr6+3 0.385770 0.677220 0.749340 1.031091
Cr10  Cr    Cr6+3 0.614230 0.677220 0.250660 1.014128
Cr11  Cr    Cr6+3 0.885770 0.177220 0.749340 1.031091
Cr12  Cr    Cr6+3 0.114230 0.177220 0.250660 1.014127
H1    H     H_    0.371714 0.812642 0.004522 0.101224
H2    H     H_    0.629705 0.840005 0.994631 0.111834
H3    H     H_    0.871714 0.312642 0.004522 0.101224
H4    H     H_    0.129705 0.340005 0.994631 0.111834
H5    H     H_    0.542682 0.011130 0.578635 0.119422
H6    H     H_    0.561380 0.014921 0.448309 0.134519
H7    H     H_    0.042682 0.511130 0.578635 0.119422
H8    H     H_    0.061380 0.514921 0.448309 0.134519
H9    H     H_    0.969157 0.051365 0.429362 0.168696
H10   H     H_    0.885647 0.184612 0.543226 0.146823
H11   H     H_    0.469157 0.551365 0.429362 0.168696
H12   H     H_    0.385647 0.684612 0.543226 0.146823
H13   H     H_    0.404715 0.681950 0.417942 0.136833
H14   H     H_    0.445732 0.547590 0.554294 0.170740
H15   H     H_    0.904715 0.181950 0.417942 0.136833
H16   H     H_    0.945732 0.047590 0.554294 0.170740
H17   H     H_    0.321341 0.448908 0.575807 0.130616
H18   H     H_    0.630749 0.584238 0.445443 0.149136
H19   H     H_    0.821341 0.948908 0.575807 0.130616
H20   H     H_    0.130749 0.084238 0.445443 0.149136
H21   H     H_    0.109229 0.692866 0.421467 0.160942
H22   H     H_    0.879068 0.451392 0.552350 0.148335
H23   H     H_    0.609229 0.192866 0.421467 0.160942
H24   H     H_    0.379068 0.951392 0.552350 0.148335
H25   H     H_    0.157771 0.839636 0.421045 0.143198
H26   H     H_    0.927153 0.601384 0.550998 0.153684
H27   H     H_    0.657771 0.339636 0.421045 0.143198
H28   H     H_    0.427153 0.101384 0.550998 0.153684
H29   H     H_    0.150886 0.843679 0.547730 0.170499
H30   H     H_    0.916167 0.604729 0.424320 0.172522
H31   H     H_    0.650886 0.343679 0.547730 0.170499
H32   H     H_    0.416167 0.104729 0.424320 0.172522
H33   H     H_    0.107490 0.691665 0.548186 0.133667
H34   H     H_    0.867256 0.456676 0.426643 0.126251
H35   H     H_    0.607490 0.191665 0.548186 0.133667
H36   H     H_    0.367256 0.956676 0.426643 0.126251
H37   H     H_    0.452329 0.000415 0.064826 0.155853
H38   H     H_    0.529806 0.014586 0.935991 0.147673
H39   H     H_    0.952329 0.500415 0.064826 0.155853
H40   H     H_    0.029806 0.514586 0.935991 0.147673
H41   H     H_    0.548175 0.651639 0.934878 0.142652
H42   H     H_    0.474051 0.636134 0.061026 0.136094
H43   H     H_    0.048175 0.151639 0.934878 0.142652
H44   H     H_    0.974051 0.136134 0.061026 0.136094
H45   H     H_    0.135393 0.643254 0.916106 0.147942
H46   H     H_    0.832412 0.744809 0.060159 0.149731
H47   H     H_    0.635393 0.143255 0.916106 0.147942
H48   H     H_    0.332412 0.244809 0.060159 0.149731
H49   H     H_    0.884866 0.927117 0.068882 0.146426
H50   H     H_    0.195170 0.865368 0.958458 0.153962
H51   H     H_    0.384866 0.427117 0.068882 0.146426
H52   H     H_    0.695170 0.365368 0.958458 0.153962
H53   H     H_    0.359287 0.591093 0.077818 0.150257
H54   H     H_    0.607624 0.435247 0.932632 0.148740
H55   H     H_    0.859286 0.091093 0.077818 0.150257
H56   H     H_    0.107624 0.935247 0.932632 0.148740
H57   H     H_    0.380074 0.618278 0.951620 0.149397
H58   H     H_    0.588160 0.488193 0.054021 0.149959
H59   H     H_    0.880074 0.118278 0.951620 0.149396
H60   H     H_    0.088160 0.988193 0.054021 0.149959
H61   H     H_    0.401300 0.454099 0.943734 0.171423
H62   H     H_    0.675333 0.417159 0.080063 0.165452
H63   H     H_    0.901300 0.954099 0.943734 0.171423
H64   H     H_    0.175333 0.917159 0.080063 0.165452
O1    O     O_R   0.214300 0.709080 0.827500 -0.527864
O2    O     O_R   0.785700 0.709080 0.172500 -0.518360
O3    O     O_R   0.714300 0.209080 0.827500 -0.527864
O4    O     O_R   0.285700 0.209080 0.172500 -0.518360
O5    O     O_R   0.445900 0.919370 0.676500 -0.511815
O6    O     O_R   0.554100 0.919370 0.323500 -0.503867
O7    O     O_R   0.945900 0.419370 0.676500 -0.511815
O8    O     O_R   0.054100 0.419370 0.323500 -0.503867
O9    O     O_R   0.456660 0.717710 0.669820 -0.491026
O10   O     O_R   0.543340 0.717710 0.330180 -0.511976
O11   O     O_R   0.956660 0.217710 0.669820 -0.491026
O12   O     O_R   0.043340 0.217710 0.330180 -0.511976
O13   O     O_R   0.320590 0.625770 0.672930 -0.511226
O14   O     O_R   0.679410 0.625770 0.327070 -0.512941
O15   O     O_R   0.820590 0.125770 0.672930 -0.511226
O16   O     O_R   0.179410 0.125770 0.327070 -0.512941
O17   O     O_3   0.334270 0.834280 0.749190 -0.277290
O18   O     O_3   0.665730 0.834280 0.250810 -0.310095
O19   O     O_3   0.834270 0.334280 0.749190 -0.277290
O20   O     O_3   0.165730 0.334280 0.250810 -0.310096
O21   O     O_R   0.236190 0.958390 0.823150 -0.500130
O22   O     O_R   0.763810 0.958390 0.176850 -0.508436
O23   O     O_R   0.736190 0.458390 0.823150 -0.500130
O24   O     O_R   0.263810 0.458390 0.176850 -0.508436
O25   O     O_R   0.332090 0.075280 0.831290 -0.506689
O26   O     O_R   0.667910 0.075280 0.168710 -0.494993
O27   O     O_R   0.832090 0.575280 0.831290 -0.506689
O28   O     O_R   0.167910 0.575280 0.168710 -0.494993
O29   O     O_R   0.446280 0.918040 0.826620 -0.491254
O30   O     O_R   0.553720 0.918040 0.173380 -0.496289
O31   O     O_R   0.946280 0.418040 0.826620 -0.491254
O32   O     O_R   0.053720 0.418040 0.173380 -0.496289
O33   O     O_R   0.457080 0.716270 0.831760 -0.518586
O34   O     O_R   0.542920 0.716270 0.168240 -0.518386
O35   O     O_R   0.957080 0.216270 0.831760 -0.518586
O36   O     O_R   0.042920 0.216270 0.168240 -0.518386
O37   O     O_R   0.320980 0.624440 0.823040 -0.510666
O38   O     O_R   0.679020 0.624440 0.176960 -0.503259
O39   O     O_R   0.820980 0.124440 0.823040 -0.510666
O40   O     O_R   0.179020 0.124440 0.176960 -0.503259
O41   O     O_R   0.213880 0.710510 0.665560 -0.512777
O42   O     O_R   0.786120 0.710510 0.334440 -0.480864
O43   O     O_R   0.713880 0.210510 0.665560 -0.512777
O44   O     O_R   0.286120 0.210510 0.334440 -0.480864
O45   O     O_R   0.235800 0.959720 0.673040 -0.490998
O46   O     O_R   0.764200 0.959720 0.326960 -0.488015
O47   O     O_R   0.735800 0.459720 0.673040 -0.490998
O48   O     O_R   0.264200 0.459720 0.326960 -0.488015
O49   O     O_R   0.331670 0.076720 0.669350 -0.520263
O50   O     O_R   0.668330 0.076720 0.330650 -0.524104
O51   O     O_R   0.831670 0.576720 0.669350 -0.520263
O52   O     O_R   0.168330 0.576720 0.330650 -0.524104
C121  C     C_1   0.344645 0.414969 0.440296 0.226721
N1    N     N_1   0.386147 0.347627 0.418345 -0.313030
C122  C     C_1   0.627173 0.563056 0.587543 0.190109
N2    N     N_1   0.579222 0.544077 0.623173 -0.293157
C123  C     C_1   0.844645 0.914969 0.440296 0.226721
N3    N     N_1   0.886147 0.847627 0.418345 -0.313030
C124  C     C_1   0.127173 0.063057 0.587543 0.190109
N4    N     N_1   0.079222 0.044077 0.623173 -0.293157
C125  C     C_1   0.103499 0.635832 0.048264 0.221306
N5    N     N_1   0.053571 0.681749 0.071095 -0.305908
C126  C     C_1   0.872859 0.702784 0.935845 0.229069
N6    N     N_1   0.928342 0.728727 0.916067 -0.317524
C127  C     C_1   0.603499 0.135832 0.048264 0.221306
N7    N     N_1   0.553571 0.181749 0.071095 -0.305908
C128  C     C_1   0.372859 0.202784 0.935845 0.229069
N8    N     N_1   0.428342 0.228727 0.916067 -0.317524

loop_
_geom_bond_atom_site_label_1
_geom_bond_atom_site_label_2
_ccdc_geom_bond_type
C87   H31   S    
C55   C56   A    
Cr4   O24   S    
C28   C128  S    
C67   C83   S    
C127  N7    T    
C80   C124  S    
C57   H13   S    
C5    C114  S    
Cr6   O50   S    
C85   H29   S    
C5    C117  S    
C14   C18   A    
C83   C87   S    
C111  C112  S    
C86   H34   S    
C73   C93   A    
C39   C91   S    
C22   H46   S    
Cr11  O11   S    
Cr8   O28   S    
Cr3   O47   S    
C84   H28   S    
C9    C25   A    
C7    C8    S    
Cr2   O46   S    
C63   C79   A    
C53   C54   A    
Cr6   O6    S    
Cr1   O45   S    
Cr5   O25   S    
Cr1   O17   S    
C46   C118  S    
C121  N1    T    
C55   H7    S    
C17   C33   S    
C12   C28   A    
C53   H5    S    
C104  O8    A    
C32   H50   S    
C16   C20   A    
C70   C94   A    
C103  O11   A    
C98   O50   A    
C63   C98   S    
Cr3   O19   S    
C25   C125  S    
Cr8   O32   S    
C42   C53   A    
C97   O49   A    
C5    C6    S    
Cr4   O44   S    
C72   C96   A    
C65   C69   A    
C67   C71   A    
C83   H23   S    
C76   H20   S    
C115  H3    S    
C45   C117  S    
C27   C127  S    
Cr9   O33   S    
Cr6   O26   S    
C2    O26   A    
C49   C57   S    
C41   C102  S    
C90   O38   A    
C33   H57   S    
C125  N5    T    
Cr8   O8    S    
C89   O37   A    
C19   C35   S    
C9    C13   A    
C43   C104  S    
C1    O25   A    
Cr3   O23   S    
C83   H27   S    
C52   C60   S    
C8    C115  S    
C93   C105  S    
C64   C80   A    
C11   C15   A    
C99   O47   A    
C87   H35   S    
C26   C126  S    
C12   C16   A    
C29   C33   S    
C75   H19   S    
C88   H36   S    
Cr12  O16   S    
C24   H48   S    
Cr5   O17   S    
C76   C80   A    
C111  H39   S    
C123  N3    T    
Cr12  O20   S    
C91   O39   A    
C23   C27   A    
Cr4   O48   S    
Cr6   O18   S    
C110  C114  S    
C23   H47   S    
C100  O48   A    
Cr7   O27   S    
C126  N6    T    
C91   O3    A    
C10   C26   A    
C21   H45   S    
C32   C36   S    
C96   C108  S    
C33   H61   S    
C59   C60   S    
C113  H1    S    
C31   H49   S    
Cr7   O31   S    
C78   C122  S    
C46   O34   A    
Cr7   O7    S    
Cr6   O30   S    
C1    C12   S    
C45   O33   A    
C14   C30   S    
Cr5   O29   S    
C2    C11   S    
Cr12  O36   S    
C110  C117  S    
C41   C49   A    
C108  O16   A    
C44   C103  S    
C109  H37   S    
C109  C118  S    
Cr3   O43   S    
C79   C123  S    
C59   H15   S    
C63   C67   A    
C45   O29   A    
C81   H25   S    
C30   C34   S    
C75   C95   A    
C51   C52   A    
C68   C84   S    
C7    C119  S    
C34   H58   S    
C92   O4    A    
C22   C26   A    
C48   C120  S    
C10   C14   A    
C61   C77   A    
C102  O10   A    
C62   C66   A    
C17   C37   A    
C6    H42   S    
C4    O24   A    
C82   C86   S    
Cr11  O19   S    
C15   C31   S    
C92   O40   A    
C40   C92   S    
C116  C120  S    
Cr9   O37   S    
C5    H41   S    
C20   C36   S    
C7    C116  S    
C60   H10   S    
C15   C19   A    
C36   H64   S    
C6    C113  S    
Cr10  O10   S    
C58   H12   S    
C66   C82   S    
C47   O31   A    
Cr9   O9    S    
C38   C90   S    
C102  O6    A    
C65   C81   S    
C56   H8    S    
C11   C27   A    
C88   H32   S    
C68   C72   A    
Cr5   O5    S    
C7    H43   S    
C8    H44   S    
C114  H2    S    
C50   C58   S    
C21   C37   A    
C82   H26   S    
C108  O44   A    
Cr2   O2    S    
C35   H59   S    
C109  C113  S    
C18   C34   S    
Cr1   O1    S    
C114  C118  S    
Cr7   O51   S    
C95   C107  S    
Cr8   O20   S    
C86   H30   S    
Cr7   O19   S    
C110  H38   S    
C47   O35   A    
C100  O52   A    
C42   C50   A    
C54   H6    S    
C115  C119  S    
Cr11  O15   S    
C71   C87   S    
Cr10  O14   S    
C61   C100  S    
C51   C59   S    
C20   C40   A    
C13   C29   S    
C105  O13   A    
Cr9   O13   S    
C48   O36   A    
C70   C86   S    
C42   C101  S    
C64   C68   A    
C112  C116  S    
C69   C85   S    
C81   H21   S    
C8    C120  S    
Cr4   O20   S    
C113  C117  S    
Cr11  O35   S    
C48   O32   A    
C21   C25   A    
C19   C39   A    
C64   C97   S    
C3    O27   A    
Cr8   O52   S    
Cr2   O22   S    
C73   H17   S    
C36   H60   S    
C77   C121  S    
C30   H52   S    
C62   C78   A    
C74   H18   S    
C24   C28   A    
C106  O14   A    
Cr10  O38   S    
C44   C52   A    
Cr3   O3    S    
C112  C119  S    
C101  O9    A    
C58   H14   S    
C4    O28   A    
Cr12  O12   S    
C116  H4    S    
C35   H63   S    
C122  N2    T    
C16   C32   S    
Cr1   O21   S    
C89   O1    A    
C90   O2    A    
Cr4   O4    S    
C69   C93   A    
C37   C89   S    
C72   C88   S    
Cr11  O39   S    
Cr10  O34   S    
C46   O30   A    
C128  N8    T    
C18   C38   A    
C85   H33   S    
C3    C10   S    
C101  O5    A    
C75   C79   A    
C76   C96   A    
C107  O15   A    
C111  C115  S    
C62   C99   S    
C84   H24   S    
C44   C55   A    
C34   H62   S    
C57   C58   S    
Cr2   O42   S    
C84   C88   S    
C107  O43   A    
C43   C51   A    
Cr1   O41   S    
C32   H56   S    
C47   C119  S    
C24   C40   A    
Cr12  O40   S    
C29   H53   S    
Cr10  O18   S    
C31   C35   S    
C104  O12   A    
C61   C65   A    
Cr9   O17   S    
C103  O7    A    
C41   C54   A    
C98   O46   A    
C94   C106  S    
C29   H51   S    
C97   O45   A    
C13   C17   A    
C82   H22   S    
Cr2   O18   S    
C43   C56   A    
C30   H54   S    
C71   C95   A    
C66   C70   A    
C59   H9    S    
C73   C77   A    
C3    O23   A    
C49   C50   A    
C106  O42   A    
C31   H55   S    
C74   C94   A    
C2    O22   A    
C105  O41   A    
C111  C120  S    
C1    O21   A    
C60   H16   S    
Cr5   O49   S    
C4    C9    S    
C109  C110  S    
C99   O51   A    
C23   C39   A    
C81   C85   S    
C124  N4    T    
C57   H11   S    
C6    C118  S    
C74   C78   A    
C112  H40   S    
C22   C38   A    
