data_mof_unit_6849.cif
_audit_creation_date              2012-10-26T20:03:20-0400
_audit_creation_method            fapswitch 2.2
_symmetry_space_group_name_H-M    P1
_symmetry_Int_Tables_number       1
_space_group_crystal_system       triclinic
_cell_length_a                    10.626543
_cell_length_b                    12.368953
_cell_length_c                    13.21977
_cell_angle_alpha                 116.778981
_cell_angle_beta                  77.05881
_cell_angle_gamma                 101.711988
_cell_volume                      1501.39678417

loop_
_atom_site_label
_atom_site_type_symbol
_atom_type_description
_atom_site_fract_x
_atom_site_fract_y
_atom_site_fract_z
_atom_type_partial_charge
C1    C     C_R   0.511635 0.854854 0.286633 0.520385
C2    C     C_R   0.500712 0.566295 0.009571 0.031385
C3    C     C_R   0.461191 0.650012 0.123841 0.020692
C4    C     C_R   0.740424 0.999872 0.499491 0.548188
C5    C     C_R   0.457853 0.439907 0.976222 0.028387
C6    C     C_R   0.367294 0.400751 0.053349 0.046533
C7    C     C_R   0.318220 0.486249 0.160364 -0.135529
C8    C     C_R   0.362821 0.609081 0.194516 -0.118875
C9    C     C_R   0.502888 0.350820 0.868566 -0.133849
C10   C     C_R   0.366523 0.190360 0.912136 -0.132617
C11   C     C_R   0.520052 0.772839 0.163598 -0.002642
C12   C     C_3   0.011021 0.906607 0.520404 0.261643
C13   C     C_R   0.712425 0.356111 0.336664 -0.062402
C14   C     C_R   0.322681 0.758822 0.644583 0.088461
C15   C     C_R   0.282647 0.662015 0.675713 -0.135500
C16   C     C_R   0.480787 0.145074 0.713381 0.542033
C17   C     C_R   0.348514 0.558864 0.621426 -0.132113
C18   C     C_R   0.455949 0.551512 0.534961 0.006267
C19   C     C_R   0.493207 0.653516 0.505969 0.183656
C20   C     C_R   0.528475 0.447932 0.476591 -0.023331
C21   C     C_R   0.636880 0.451663 0.393240 -0.007017
C22   C     C_R   0.670832 0.550894 0.365976 -0.152503
C23   C     C_3   0.954715 0.893213 0.417253 -0.105052
C24   C     C_R   0.600022 0.649010 0.420415 -0.074019
C25   C     C_R   0.499757 0.340652 0.496682 0.010604
C26   C     C_R   0.681593 0.254280 0.359161 0.386247
C27   C     C_R   0.259478 0.999561 0.499866 0.560804
C28   C     C_3   0.987608 0.092627 0.477781 -0.122502
C29   C     C_3   0.067506 0.985667 0.396225 -0.155181
C30   C     C_3   0.122142 0.998049 0.499512 0.043022
C31   C     C_3   0.044105 0.104781 0.581086 -0.164889
C32   C     C_3   0.931377 0.012488 0.602429 -0.096467
C33   C     C_3   0.877376 0.000139 0.499042 0.011496
C34   C     C_R   0.324175 0.276365 0.021413 -0.127999
C35   C     C_R   0.453701 0.228083 0.834613 -0.001485
C36   C     C_R   0.599601 0.814757 0.085350 -0.133060
C37   C     C_R   0.626616 0.735702 0.970636 -0.135227
C38   C     C_R   0.580264 0.612601 0.932995 -0.119582
Cl1   Cl    Cl    0.022388 0.781020 0.548331 -0.631049
Cu1   Cu    Cu3+1 0.529830 0.098270 0.475420 0.937713
Cu2   Cu    Cu3+1 0.470170 0.901730 0.524580 0.948352
H1    H     H_    0.125920 0.974786 0.312000 0.125079
H2    H     H_    0.270829 0.838332 0.687316 0.154088
H3    H     H_    0.975268 0.169252 0.460165 0.161205
H4    H     H_    0.314039 0.486683 0.648918 0.100539
H5    H     H_    0.200275 0.667037 0.742257 0.117469
H6    H     H_    0.633301 0.719764 0.392620 0.179216
H7    H     H_    0.083445 0.191311 0.647927 0.117381
H8    H     H_    0.872984 0.022842 0.686535 0.134295
H9    H     H_    0.915152 0.806456 0.350783 0.117149
H10   H     H_    0.327071 0.095516 0.886781 0.126911
H11   H     H_    0.244786 0.458103 0.218110 0.127567
H12   H     H_    0.575491 0.374261 0.808160 0.121789
H13   H     H_    0.254806 0.246064 0.079866 0.117174
H14   H     H_    0.724937 0.091217 0.307448 0.374449
H15   H     H_    0.643953 0.908502 0.113299 0.145813
H16   H     H_    0.606195 0.556966 0.842894 0.112101
H17   H     H_    0.687378 0.769353 0.910911 0.137830
H18   H     H_    0.316209 0.671372 0.275944 0.170931
H19   H     H_    0.753534 0.552841 0.301299 0.114085
H20   H     H_    0.796556 0.359922 0.273777 0.129324
H21   H     H_    0.418504 0.330827 0.558610 0.125883
N1    N     N_R   0.575030 0.246270 0.438190 -0.243050
N2    N     N_R   0.425760 0.754330 0.561190 -0.240301
O1    O     O_R   0.537510 0.972500 0.318130 -0.526127
O2    O     O_R   0.487140 0.806530 0.359650 -0.530769
O3    O     O_R   0.708330 0.082950 0.479220 -0.504337
O4    O     O_R   0.657960 0.916980 0.520740 -0.515309
O5    O     O_R   0.512860 0.193470 0.640350 -0.510005
O6    O     O_R   0.462490 0.027500 0.681870 -0.509425
O7    O     O_R   0.342040 0.083020 0.479260 -0.513743
O8    O     O_R   0.291670 0.917050 0.520780 -0.464641
O9    O     O_3   0.764426 0.165972 0.299814 -0.725548

loop_
_geom_bond_atom_site_label_1
_geom_bond_atom_site_label_2
_ccdc_geom_bond_type
Cu1   O7    S    
C29   H1    S    
C1    C11   S    
C7    C8    A    
C12   C23   S    
C37   C38   A    
Cu1   N1    S    
C23   C29   S    
C36   C37   A    
C17   H4    S    
C7    H11   S    
C16   C35   S    
C22   H19   S    
C5    C6    A    
C20   C25   A    
C26   O9    S    
C18   C19   A    
C25   N1    A    
C23   C33   S    
Cu1   O3    S    
C1    O1    A    
C10   C35   A    
C37   H17   S    
C21   C22   A    
C12   C32   S    
C27   C30   S    
C10   H10   S    
C17   C18   A    
Cu2   O4    S    
Cu1   O5    S    
C16   O6    A    
C3    C8    A    
C4    O4    A    
C23   H9    S    
C28   H3    S    
C6    C34   A    
C11   C36   A    
C26   N1    A    
C5    C9    A    
C29   C30   S    
C36   H15   S    
C38   H16   S    
C2    C38   A    
C31   C32   S    
C19   N2    A    
C14   N2    A    
C1    O2    A    
C13   C21   A    
C10   C34   A    
C6    C7    A    
Cu2   O8    S    
Cu1   Cu2   S    
C28   C33   S    
C34   H13   S    
Cu1   O1    S    
C22   C24   A    
C13   C26   A    
C2    C5    A    
C9    H12   S    
C27   O7    A    
C15   C17   A    
C4    C33   S    
C28   C29   S    
C12   C30   S    
C24   H6    S    
C28   C31   S    
C16   O5    A    
C4    O3    A    
Cu2   O2    S    
Cu2   N2    S    
C31   H7    S    
C32   C33   S    
C12   Cl1   S    
C2    C3    A    
C8    H18   S    
C30   C31   S    
C19   C24   A    
C18   C20   A    
C25   H21   S    
C32   H8    S    
C3    C11   A    
H14   O9    S    
C13   H20   S    
C20   C21   A    
C9    C35   A    
C14   C15   A    
Cu2   O6    S    
C15   H5    S    
C27   O8    A    
C14   H2    S    
