data_mof_unit_54281.cif
_audit_creation_date              2012-12-11T18:34:41-0500
_audit_creation_method            fapswitch 2.2
_symmetry_space_group_name_H-M    P1
_symmetry_Int_Tables_number       1
_space_group_crystal_system       triclinic
_cell_length_a                    8.205456
_cell_length_b                    14.292734
_cell_length_c                    22.922921
_cell_angle_alpha                 93.199883
_cell_angle_beta                  90.037605
_cell_angle_gamma                 91.506081
_cell_volume                      2683.23866741

loop_
_atom_site_label
_atom_site_type_symbol
_atom_type_description
_atom_site_fract_x
_atom_site_fract_y
_atom_site_fract_z
_atom_type_partial_charge
Ba1   Ba    Ba6+2 0.846250 0.544220 0.470860 1.646416
Ba2   Ba    Ba6+2 0.343570 0.455860 0.529140 1.669484
C1    C     C_3   0.602389 0.892531 0.313285 -0.370983
C2    C     C_R   0.041788 0.569295 0.940304 -0.155457
C3    C     C_R   0.009261 0.564173 0.879015 0.613042
C4    C     C_3   0.073300 0.754035 0.305825 0.291448
C5    C     C_R   0.055625 0.399158 0.873518 0.594888
C6    C     C_R   0.101758 0.402901 0.933150 0.009970
C7    C     C_R   0.094136 0.488332 0.966867 -0.109037
C8    C     C_R   0.024015 0.653023 0.975798 0.391997
C9    C     C_R   0.076963 0.658527 0.034621 0.388752
C10   C     C_R   0.136336 0.578038 0.060809 -0.150687
C11   C     C_R   0.140154 0.492475 0.027127 -0.113603
C12   C     C_3   0.596508 0.794346 0.335695 0.362153
C13   C     C_R   0.154916 0.322675 0.959820 -0.073595
C14   C     C_R   0.200776 0.326815 0.018648 -0.075067
C15   C     C_R   0.194455 0.411213 0.053088 -0.010238
C16   C     C_3   0.036520 0.785345 0.244777 0.316534
C17   C     C_R   0.239047 0.415709 0.113062 0.598608
C18   C     C_R   0.189472 0.580318 0.120069 0.590743
C19   C     C_2   0.824936 0.419648 0.768723 -0.094265
C20   C     C_3   0.788356 0.399957 0.704314 -0.068690
C21   C     C_1   0.003670 0.516398 0.684199 0.027543
C22   C     C_2   0.050611 0.523734 0.740047 -0.081414
C23   C     C_3   0.507389 0.315131 0.355030 0.290725
C24   C     C_2   0.957032 0.473284 0.785795 0.221157
C25   C     C_R   0.406673 0.550925 0.229444 -0.132615
C26   C     C_R   0.443886 0.561025 0.289032 -0.013180
C27   C     C_R   0.193877 0.476951 0.312773 0.014569
C28   C     C_3   0.174805 0.743467 0.589972 0.316411
C29   C     C_R   0.155546 0.462882 0.251854 0.353212
C30   C     C_R   0.262976 0.503119 0.209464 0.151437
C31   C     C_2   0.876170 0.465186 0.665102 -0.273911
C32   C     C_R   0.693273 0.935368 0.532533 -0.038487
C33   C     C_R   0.510638 0.801827 0.498030 0.043345
C34   C     C_3   0.457754 0.278955 0.293748 -0.371240
C35   C     C_R   0.371322 0.770123 0.467477 -0.301448
C36   C     C_R   0.268168 0.833040 0.443309 0.019380
C37   C     C_R   0.311804 0.927877 0.443881 -0.147087
C38   C     C_R   0.456577 0.960793 0.471661 -0.008264
C39   C     C_R   0.555016 0.898609 0.501182 -0.027696
C40   C     C_3   0.175909 0.849267 0.601874 -0.390163
C41   C     C_R   0.639733 0.091909 0.501731 -0.021981
C42   C     C_R   0.738052 0.030778 0.532030 0.005480
C43   C     C_R   0.683844 0.187906 0.502729 0.029109
C44   C     C_R   0.820181 0.222219 0.533973 -0.277952
C45   C     C_3   0.039601 0.186542 0.692771 0.294602
C46   C     C_R   0.924616 0.161566 0.559562 -0.010497
C47   C     C_R   0.882866 0.065764 0.559696 -0.145187
C48   C     C_R   0.500622 0.055674 0.471451 -0.041624
C49   C     C_3   0.020308 0.257654 0.413020 0.308493
C50   C     C_3   0.015781 0.151637 0.401663 -0.385853
C51   C     C_3   0.674422 0.660288 0.641816 0.351175
C52   C     C_3   0.665493 0.679725 0.707858 0.296119
C53   C     C_3   0.465999 0.781382 0.742076 0.224798
C54   C     C_3   0.930976 0.760526 0.093066 0.327782
C55   C     C_3   0.784754 0.720110 0.952587 0.254108
C56   C     C_3   0.083801 0.154207 0.752638 -0.299358
C57   C     C_3   0.917424 0.435885 0.196584 0.323176
C58   C     C_3   0.749263 0.392179 0.206225 -0.281721
C59   C     C_3   0.174674 0.927937 0.237070 0.201608
C60   C     C_3   0.560972 0.205911 0.675978 0.434130
C61   C     C_3   0.538576 0.115693 0.707579 -0.366581
C62   C     C_R   0.334896 0.527557 0.329928 -0.370217
H1    H     H_    0.664920 0.796060 0.377634 0.078639
H2    H     H_    0.801550 0.646184 0.629438 -0.090857
H3    H     H_    0.596088 0.597556 0.630032 0.068759
H4    H     H_    0.730881 0.917110 0.308432 0.129584
H5    H     H_    0.745578 0.741707 0.721104 0.000598
H6    H     H_    0.716293 0.619255 0.729383 -0.001245
H7    H     H_    0.466929 0.774233 0.343221 -0.049868
H8    H     H_    0.540386 0.941722 0.344598 0.068436
H9    H     H_    0.397564 0.343133 0.377337 0.020237
H10   H     H_    0.600700 0.372357 0.352093 0.045434
H11   H     H_    0.354535 0.227446 0.296054 0.140111
H12   H     H_    0.265790 0.870419 0.636678 0.110181
H13   H     H_    0.419643 0.337765 0.267788 0.081801
H14   H     H_    0.561923 0.244218 0.271469 0.127329
H15   H     H_    0.539862 0.892516 0.270316 0.134315
H16   H     H_    0.006373 0.721734 0.216701 0.058382
H17   H     H_    0.995943 0.259272 0.697820 0.028722
H18   H     H_    0.941358 0.138239 0.674906 -0.025920
H19   H     H_    0.187187 0.197665 0.771426 0.182877
H20   H     H_    0.976917 0.160506 0.782152 0.109486
H21   H     H_    0.119547 0.079701 0.748941 0.081859
H22   H     H_    0.694391 0.218871 0.671552 -0.150154
H23   H     H_    0.208902 0.885315 0.561852 0.071208
H24   H     H_    0.506880 0.195668 0.631555 0.078655
H25   H     H_    0.601373 0.057980 0.682995 0.055982
H26   H     H_    0.407520 0.096167 0.710917 0.140377
H27   H     H_    0.004080 0.687737 0.312062 0.053386
H28   H     H_    0.591852 0.124793 0.752150 0.109133
H29   H     H_    0.241041 0.263251 0.037165 0.120655
H30   H     H_    0.161839 0.256043 0.935116 0.116417
H31   H     H_    0.490541 0.579577 0.198199 0.101227
H32   H     H_    0.158003 0.565908 0.752940 0.128988
H33   H     H_    0.755476 0.381911 0.800616 0.087015
H34   H     H_    0.052975 0.871495 0.616246 0.113139
H35   H     H_    0.364686 0.536689 0.375913 0.096873
H36   H     H_    0.205581 0.740823 0.309816 -0.019305
H37   H     H_    0.846126 0.458314 0.618928 0.076637
H38   H     H_    0.336494 0.696484 0.466248 0.070234
H39   H     H_    0.231416 0.975836 0.423883 0.071882
H40   H     H_    0.964094 0.019008 0.580226 0.064675
H41   H     H_    0.852613 0.296135 0.534204 0.059344
H42   H     H_    0.768380 0.890951 0.557273 0.098059
H43   H     H_    0.423740 0.100497 0.447614 0.097439
H44   H     H_    0.924445 0.827735 0.244478 0.027923
H45   H     H_    0.898715 0.281293 0.426470 -0.005080
H46   H     H_    0.299580 0.721338 0.579398 0.007184
H47   H     H_    0.092125 0.724972 0.552525 0.065212
H48   H     H_    0.494317 0.828938 0.706434 0.033718
H49   H     H_    0.533958 0.804888 0.782496 0.022864
H50   H     H_    0.333800 0.785829 0.751602 0.081267
H51   H     H_    0.879713 0.696898 0.113179 -0.045932
H52   H     H_    0.841891 0.788515 0.062739 0.019191
H53   H     H_    0.949996 0.815684 0.128454 0.078021
H54   H     H_    0.734603 0.685253 0.991269 -0.063100
H55   H     H_    0.742965 0.679648 0.912436 0.078385
H56   H     H_    0.109402 0.276253 0.448352 0.072922
H57   H     H_    0.730634 0.790366 0.952154 0.066602
H58   H     H_    0.949966 0.414547 0.151124 0.029482
H59   H     H_    0.910592 0.513685 0.200646 0.030549
H60   H     H_    0.711709 0.404129 0.252351 0.130168
H61   H     H_    0.658770 0.423270 0.177471 0.062058
H62   H     H_    0.751385 0.315441 0.195646 0.118135
H63   H     H_    0.185261 0.940774 0.285211 0.043102
H64   H     H_    0.064759 0.961692 0.220268 0.025834
H65   H     H_    0.282758 0.961739 0.217206 0.071234
H66   H     H_    0.918641 0.130608 0.369421 0.129495
H67   H     H_    0.991136 0.116219 0.442586 0.070675
H68   H     H_    0.135181 0.128308 0.384208 0.108816
N1    N     N_R   0.009161 0.479153 0.847028 -0.427322
N2    N     N_R   0.228231 0.498853 0.146656 -0.437032
O1    O     O_2   0.901900 0.448470 0.362340 -0.441533
O2    O     O_2   0.259237 0.167295 0.548240 -0.489046
O3    O     O_3   0.178210 0.183656 0.657055 -0.579183
O4    O     O_3   0.142240 0.449440 0.433360 -0.504077
O5    O     O_3   0.549340 0.612930 0.525560 -0.489511
O6    O     O_2   0.396530 0.270940 0.479440 -0.466790
O7    O     O_3   0.572563 0.240950 0.384194 -0.644885
O8    O     O_2   0.460692 0.464018 0.710686 -0.453159
O9    O     O_3   0.483886 0.279988 0.707468 -0.569397
O10   O     O_2   0.982332 0.635405 0.854001 -0.569264
O11   O     O_2   0.058700 0.324593 0.844925 -0.620734
O12   O     O_3   0.623658 0.739290 0.613977 -0.657687
O13   O     O_2   0.285188 0.345488 0.135519 -0.580025
O14   O     O_2   0.202212 0.655122 0.148088 -0.538607
O15   O     O_3   0.645560 0.619080 0.391970 -0.479432
O16   O     O_2   0.786198 0.564598 0.293606 -0.510742
O17   O     O_3   0.064449 0.298545 0.361276 -0.609883
O18   O     O_3   0.668201 0.732010 0.294299 -0.608882
O19   O     O_2   0.793170 0.729090 0.520590 -0.465814
O20   O     O_3   0.052800 0.667320 0.419180 -0.491816
O21   O     O_2   0.934761 0.833832 0.455006 -0.484014
O22   O     O_3   0.500677 0.687586 0.725386 -0.614036
O23   O     O_3   0.023556 0.823785 0.346815 -0.629819
O24   O     O_3   0.081577 0.745271 0.064845 -0.573690
O25   O     O_3   0.956835 0.731652 0.953712 -0.587406
O26   O     O_3   0.029035 0.399605 0.236095 -0.617026
O27   O     O_3   0.173957 0.831230 0.220876 -0.604750
O28   O     O_2   0.287790 0.551560 0.637690 -0.432327
O29   O     O_3   0.047460 0.550640 0.566640 -0.499889
O30   O     O_3   0.544140 0.380990 0.608030 -0.478137
O31   O     O_3   0.121649 0.701279 0.640312 -0.627465
O32   O     O_3   0.640350 0.387150 0.474440 -0.475733
O33   O     O_3   0.136890 0.332750 0.580830 -0.467264
P1    P     P_3+3 0.074990 0.420800 0.372080 1.036852
P2    P     P_3+3 0.618830 0.715330 0.538180 0.970084
P3    P     P_3+3 0.069540 0.789450 0.416552 0.936470
P4    P     P_3+3 0.114710 0.579280 0.627920 1.012910
P5    P     P_3+3 0.122561 0.210484 0.586417 0.957133
P6    P     P_3+3 0.635594 0.617609 0.316101 0.937761
P7    P     P_3+3 0.578187 0.270537 0.459224 0.936310
P8    P     P_3+3 0.567885 0.385110 0.683953 0.985112

loop_
_geom_bond_atom_site_label_1
_geom_bond_atom_site_label_2
_ccdc_geom_bond_type
C42   C47   A    
O31   P4    S    
C19   C24   D    
C53   H48   S    
C54   H53   S    
C25   H31   S    
C1    H4    S    
O9    P8    S    
C60   O9    S    
C1    H15   S    
Ba2   O28   S    
C47   H40   S    
C20   P8    S    
C5    C6    A    
C43   C44   A    
C17   N2    Am   
C3    N1    Am   
C60   H22   S    
C14   H29   S    
C60   C61   S    
C28   H46   S    
C59   O27   S    
Ba2   O5    S    
C27   P1    S    
C58   H61   S    
C33   C35   A    
C22   C24   S    
C5    N1    Am   
C34   H13   S    
C40   H34   S    
C52   O22   S    
C36   C37   A    
C16   O27   S    
C26   P6    S    
C56   H19   S    
C13   C14   A    
C44   H41   S    
O20   P3    S    
O30   P8    S    
O4    P1    S    
C23   H10   S    
C12   H7    S    
C45   H18   S    
C58   H60   S    
C7    C11   A    
O3    P5    S    
C54   O24   S    
C46   P5    S    
C12   H1    S    
C62   H35   S    
O28   P4    D    
O2    P5    D    
C14   C15   A    
C21   C31   D    
C61   H28   S    
O1    P1    D    
C18   O14   D    
Ba1   O15   S    
O29   P4    S    
Ba2   O32   S    
O15   P6    S    
C29   O26   S    
Ba1   O5    S    
C59   H65   S    
Ba2   P4    S    
C55   H55   S    
C57   H58   S    
C55   O25   S    
C27   C62   A    
C49   O17   S    
C57   C58   S    
C49   H45   S    
C19   C20   S    
C10   C18   A    
C32   C39   A    
C13   H30   S    
C51   H3    S    
C36   P3    S    
C50   H68   S    
C57   H59   S    
C53   O22   S    
C4    C16   S    
C44   C46   A    
O32   P7    S    
C49   C50   S    
Ba2   O4    S    
C32   C42   A    
Ba2   O30   S    
C37   C38   A    
C6    C7    A    
C3    O10   D    
C53   H49   S    
Ba1   P1    S    
C51   C52   S    
C60   H24   S    
C17   O13   D    
C35   H38   S    
C32   H42   S    
C41   C42   A    
C35   C36   A    
C34   H11   S    
C56   H20   S    
O23   P3    S    
C19   H33   S    
C57   O26   S    
C29   C30   A    
C52   H6    S    
C21   C22   D    
C45   O3    S    
C22   H32   S    
C49   H56   S    
C54   H52   S    
C59   H63   S    
Ba1   O19   S    
C51   H2    S    
C41   C43   A    
O33   P5    S    
C1    C12   S    
O18   P6    S    
C26   C62   A    
C16   H16   S    
C46   C47   A    
C6    C13   A    
C48   H43   S    
C33   P2    S    
C31   H37   S    
C8    O25   S    
O17   P1    S    
O19   P2    D    
C56   H21   S    
C4    O23   S    
C20   C31   S    
C38   C39   A    
C25   C30   A    
C50   H67   S    
C23   O7    S    
C28   O31   S    
C2    C3    A    
Ba2   O29   S    
C9    C10   A    
C41   C48   A    
C37   H39   S    
O8    P8    D    
C53   H50   S    
C40   H12   S    
C11   C15   A    
C28   H47   S    
C50   H66   S    
C58   H62   S    
C1    H8    S    
Ba2   O6    S    
C27   C29   A    
C24   N1    S    
C34   H14   S    
C43   P7    S    
C45   C56   S    
C30   N2    S    
O21   P3    D    
O7    P7    S    
C52   H5    S    
Ba1   O32   S    
C38   C48   A    
Ba1   Ba2   S    
C61   H26   S    
Ba1   P2    S    
C51   O12   S    
C15   C17   A    
C54   H51   S    
O5    P2    S    
C59   H64   S    
C23   H9    S    
C61   H25   S    
C45   H17   S    
Ba1   O20   S    
C33   C39   A    
C16   H44   S    
C8    C9    A    
C23   C34   S    
C55   H57   S    
O16   P6    D    
C21   P4    S    
C10   C11   A    
Ba1   O29   S    
O6    P7    D    
O12   P2    S    
C12   O18   S    
C25   C26   A    
C28   C40   S    
C40   H23   S    
C18   N2    Am   
C2    C7    A    
Ba1   O1    S    
C2    C8    A    
Ba2   O33   S    
Ba1   O4    S    
C4    H27   S    
C9    O24   S    
C4    H36   S    
C55   H54   S    
C5    O11   D    
