data_mof_unit_56600.cif
_audit_creation_date              2012-12-10T16:53:10-0500
_audit_creation_method            fapswitch 2.2
_symmetry_space_group_name_H-M    P1
_symmetry_Int_Tables_number       1
_space_group_crystal_system       triclinic
_cell_length_a                    10.887492
_cell_length_b                    10.912814
_cell_length_c                    9.733282
_cell_angle_alpha                 89.74974
_cell_angle_beta                  91.971812
_cell_angle_gamma                 87.936256
_cell_volume                      1154.98953493

loop_
_atom_site_label
_atom_site_type_symbol
_atom_type_description
_atom_site_fract_x
_atom_site_fract_y
_atom_site_fract_z
_atom_type_partial_charge
C1    C     C_R   0.498595 0.265542 0.500605 0.715721
C2    C     C_R   0.063938 0.583093 0.590650 0.033241
C3    C     C_R   0.127030 0.514949 0.489648 -0.224994
C4    C     C_R   0.060262 0.445871 0.392130 0.064664
C5    C     C_R   0.934282 0.434119 0.405209 0.440512
C6    C     C_R   0.872467 0.494709 0.511757 -0.227611
C7    C     C_2   0.535009 0.933002 0.604355 -0.165892
C8    C     C_2   0.547726 0.860927 0.494472 0.104299
C9    C     C_2   0.549053 0.065164 0.595918 -0.239944
C10   C     C_2   0.483136 0.134012 0.503347 0.394643
C11   C     C_2   0.578037 0.440348 0.930026 0.259815
C12   C     C_R   0.261988 0.504442 0.497017 0.858581
C13   C     C_2   0.589233 0.460708 0.081634 -0.065013
C14   C     C_R   0.515854 0.732483 0.499607 0.807942
C15   C     C_R   0.737816 0.498988 0.503378 0.830831
C16   C     C_R   0.118341 0.680333 0.663646 0.189546
C17   C     C_R   0.067164 0.725375 0.783260 -0.104257
C18   C     C_R   0.954648 0.684831 0.822699 -0.164564
C19   C     C_R   0.888465 0.608074 0.736270 -0.125428
C20   C     C_R   0.939799 0.559873 0.614197 0.019480
Cu1   Cu    Cu3+1 0.500020 0.500020 0.638630 1.016696
Cu2   Cu    Cu3+1 0.499980 0.499980 0.361370 1.028192
H1    H     H_    0.676592 0.437673 0.133577 0.212571
H2    H     H_    0.411890 0.497084 0.108225 0.278378
H3    H     H_    0.109834 0.798637 0.839941 0.161469
H4    H     H_    0.913997 0.720606 0.914973 0.160026
H5    H     H_    0.799335 0.587810 0.771616 0.178607
H6    H     H_    0.507699 0.896148 0.701654 0.145563
H7    H     H_    0.608728 0.107245 0.672246 0.160705
N1    N     N_2   0.498640 0.498660 0.846910 0.023482
N2    N     N_2   0.498610 0.498630 0.153040 -0.284505
O1    O     O_R   0.500020 0.321960 0.617040 -0.591201
O2    O     O_R   0.499980 0.321920 0.382900 -0.537433
O3    O     O_R   0.319670 0.500020 0.617100 -0.527718
O4    O     O_R   0.319630 0.499980 0.382950 -0.550632
O5    O     O_R   0.500020 0.678080 0.617100 -0.589263
O6    O     O_R   0.499980 0.678040 0.382960 -0.540582
O7    O     O_R   0.680370 0.500020 0.617050 -0.611183
O8    O     O_R   0.680330 0.499980 0.382900 -0.545370
I1    I     I_    0.138495 0.360338 0.215411 -0.274871
O9    O     O_3   0.398096 0.082059 0.413865 -0.530506
C21   C     C_3   0.279005 0.118372 0.454094 -0.203082
H8    H     H_    0.210574 0.075605 0.384062 0.214428
H9    H     H_    0.262540 0.087192 0.560688 0.164927
H10   H     H_    0.263233 0.219295 0.447199 0.137577
I2    I     I_    0.711221 0.312691 0.856958 -0.360525
O10   O     O_3   0.423554 0.586313 0.900017 -0.492434
C22   C     C_3   0.487540 0.696508 0.912440 -0.120281
H11   H     H_    0.577639 0.695331 0.861284 0.130838
H12   H     H_    0.504526 0.716988 0.022852 0.164027
H13   H     H_    0.427910 0.772369 0.868669 0.169189
I3    I     I_    0.226943 0.805351 0.562899 -0.391570
O11   O     O_3   0.870556 0.364822 0.309565 -0.557268
C23   C     C_3   0.855008 0.247170 0.365844 -0.218144
H14   H     H_    0.807057 0.190825 0.287606 0.216434
H15   H     H_    0.796962 0.251406 0.457692 0.134806
H16   H     H_    0.945177 0.200050 0.392392 0.158493
I4    I     I_    0.630352 0.921175 0.310186 -0.331414

loop_
_geom_bond_atom_site_label_1
_geom_bond_atom_site_label_2
_ccdc_geom_bond_type
C15   O7    A    
Cu1   O3    S    
C2    C16   A    
C19   H5    S    
O9    C21   S    
Cu1   N1    S    
C19   C20   A    
C18   H4    S    
C9    H7    S    
C17   H3    S    
C7    H6    S    
C22   H12   S    
C2    C3    A    
H2    N2    S    
C1    O2    A    
C7    C8    D    
Cu1   O5    S    
Cu1   Cu2   S    
C23   H16   S    
C12   O4    A    
C14   O6    A    
Cu2   O4    S    
C11   C13   S    
C15   O8    A    
C21   H9    S    
C11   N1    D    
Cu2   O8    S    
C5    O11   S    
C22   H11   S    
C17   C18   A    
C22   H13   S    
C14   O5    A    
C5    C6    A    
Cu1   O1    S    
C23   H15   S    
Cu2   N2    S    
Cu1   O7    S    
C12   O3    A    
C3    C4    A    
C4    I1    S    
N1    O10   S    
C6    C20   A    
C13   H1    S    
C16   I3    S    
C18   C19   A    
C9    C10   D    
C7    C9    S    
Cu2   O2    S    
C23   H14   S    
C16   C17   A    
C11   I2    S    
C8    C14   S    
C3    C12   S    
C8    I4    S    
C6    C15   S    
O11   C23   S    
Cu2   O6    S    
C2    C20   A    
C13   N2    D    
C1    O1    A    
C1    C10   S    
O10   C22   S    
C21   H8    S    
C4    C5    A    
C10   O9    S    
C21   H10   S    
