data_mof_unit_40367.cif
_audit_creation_date              2013-03-05T16:53:21-0500
_audit_creation_method            fapswitch 2.2
_symmetry_space_group_name_H-M    P1
_symmetry_Int_Tables_number       1
_space_group_crystal_system       triclinic
_cell_length_a                    8.592472
_cell_length_b                    17.534129
_cell_length_c                    16.896821
_cell_angle_alpha                 91.98186
_cell_angle_beta                  99.522061
_cell_angle_gamma                 91.431356
_cell_volume                      2507.90664802

loop_
_atom_site_label
_atom_site_type_symbol
_atom_site_description
_atom_site_fract_x
_atom_site_fract_y
_atom_site_fract_z
_atom_type_partial_charge
O1    O     O_R   0.500000 0.389130 0.566570 -0.608506
O2    O     O_R   0.500000 0.610870 0.433430 -0.616978
O3    O     O_R   0.499990 0.389100 0.433480 -0.617635
O4    O     O_R   0.500010 0.610900 0.566520 -0.613981
C1    C     C_R   0.501622 0.353691 0.498968 0.972314
C2    C     C_R   0.497752 0.646401 0.500932 0.962903
O5    O     O_R   0.271750 0.500010 0.550980 -0.601569
O6    O     O_R   0.728250 0.499990 0.449020 -0.602320
O7    O     O_R   0.271740 0.499980 0.417890 -0.650657
O8    O     O_R   0.728260 0.500020 0.582110 -0.649827
C3    C     C_R   0.200595 0.499305 0.478760 0.997514
C4    C     C_R   0.799395 0.500417 0.521228 0.998305
Zn1   Zn    Zn3+2 0.500010 0.500020 0.588860 0.985538
Zn2   Zn    Zn3+2 0.499990 0.499980 0.411140 0.977370
C5    C     C_2   0.035021 0.499205 0.467513 -0.288944
C6    C     C_2   0.964942 0.500151 0.532474 -0.276936
H1    H     H_    0.971388 0.498595 0.406214 0.178124
H2    H     H_    0.028572 0.500735 0.593777 0.178654
C7    C     C_R   0.379876 0.847692 0.535554 -0.197271
C8    C     C_R   0.581316 0.149768 0.452437 -0.199053
H3    H     H_    0.296222 0.879408 0.564206 0.221306
H4    H     H_    0.664619 0.115707 0.426027 0.233256
C9    C     C_R   0.383053 0.768654 0.540366 0.300887
C10   C     C_R   0.601710 0.228836 0.458410 0.293614
C11   C     C_R   0.491813 0.728741 0.501768 -0.217456
C12   C     C_R   0.495103 0.271384 0.495756 -0.217172
C13   C     C_R   0.593635 0.767679 0.459256 -0.273135
C14   C     C_R   0.372702 0.235222 0.526915 -0.279653
H5    H     H_    0.675971 0.736022 0.429668 0.205078
H6    H     H_    0.290412 0.269263 0.554054 0.207146
C15   C     C_R   0.588010 0.846534 0.452892 0.350758
C16   C     C_R   0.352354 0.156033 0.520984 0.350731
C17   C     C_R   0.478837 0.885922 0.491368 -0.072626
C18   C     C_R   0.459884 0.113839 0.484136 -0.076271
C19   C     C_1   0.467696 0.965966 0.488091 0.129824
C20   C     C_1   0.460739 0.033422 0.485750 0.138858
C21   C     C_R   0.384878 0.453640 0.819293 0.219771
C22   C     C_R   0.578265 0.561732 0.178139 0.215739
C23   C     C_R   0.396117 0.452998 0.736390 -0.094711
C24   C     C_R   0.580590 0.556627 0.261972 -0.096146
H7    H     H_    0.316337 0.416530 0.694254 0.186269
H8    H     H_    0.643450 0.600132 0.302853 0.189438
N1    N     N_R   0.500040 0.500030 0.707230 -0.135861
N2    N     N_R   0.499960 0.499970 0.292770 -0.138343
C25   C     C_R   0.599708 0.549118 0.760067 0.257206
C26   C     C_R   0.416589 0.444163 0.241044 0.239825
C27   C     C_R   0.603986 0.546335 0.845097 0.056724
C28   C     C_R   0.419079 0.443976 0.156257 0.045190
C29   C     C_R   0.490955 0.500506 0.875013 -0.045977
C30   C     C_R   0.497489 0.504489 0.124138 -0.052799
C31   C     C_1   0.489190 0.502104 0.962815 0.078484
C32   C     C_1   0.494551 0.505361 0.035993 0.078729
N3    N     N_R   0.269928 0.730218 0.580252 0.206442
O9    O     O_R   0.223820 0.763003 0.642302 -0.377042
O10   O     O_R   0.193742 0.669050 0.547367 -0.399511
N4    N     N_R   0.733917 0.264164 0.429812 0.210554
O11   O     O_R   0.792668 0.231543 0.371465 -0.373154
O12   O     O_R   0.808934 0.323215 0.468317 -0.401300
N5    N     N_R   0.692832 0.884857 0.407609 0.228017
O13   O     O_R   0.825887 0.854642 0.398491 -0.319954
O14   O     O_R   0.650471 0.945926 0.369041 -0.355228
N6    N     N_R   0.224132 0.120070 0.552674 0.221707
O15   O     O_R   0.159446 0.155755 0.607146 -0.326848
O16   O     O_R   0.161257 0.055004 0.522324 -0.351699
N7    N     N_R   0.264959 0.406627 0.845165 0.212599
O17   O     O_R   0.187573 0.432381 0.899857 -0.434761
O18   O     O_R   0.216673 0.342836 0.806122 -0.347366
N8    N     N_R   0.656475 0.625970 0.149363 0.217386
O19   O     O_R   0.590785 0.659471 0.085363 -0.375270
O20   O     O_R   0.781143 0.658111 0.193280 -0.349683
C33   C     C_3   0.700536 0.609751 0.728896 -0.397160
C34   C     C_3   0.630140 0.688817 0.734074 -0.773735
H9    H     H_    0.627041 0.708038 0.796926 0.258711
H10   H     H_    0.701667 0.731155 0.706911 0.260103
H11   H     H_    0.507453 0.687760 0.700913 0.294891
H12   H     H_    0.824329 0.609977 0.760629 0.199754
H13   H     H_    0.712810 0.598802 0.666789 0.262667
C35   C     C_3   0.315452 0.384056 0.273093 -0.374660
C36   C     C_3   0.390766 0.305704 0.278519 -0.754807
H14   H     H_    0.367244 0.273214 0.220297 0.254855
H15   H     H_    0.520320 0.311818 0.298369 0.288475
H16   H     H_    0.339314 0.271328 0.322354 0.250113
H17   H     H_    0.290502 0.400930 0.332025 0.256780
H18   H     H_    0.195018 0.379790 0.237209 0.177715
C37   C     C_3   0.733093 0.588781 0.905065 -0.416579
C38   C     C_3   0.865078 0.535249 0.935788 -0.732428
H19   H     H_    0.819056 0.486797 0.966677 0.254192
H20   H     H_    0.919032 0.512616 0.884788 0.287130
H21   H     H_    0.957682 0.566912 0.979056 0.268778
H22   H     H_    0.787086 0.638683 0.880843 0.227529
H23   H     H_    0.683591 0.613533 0.956328 0.266590
C39   C     C_3   0.337431 0.380470 0.098466 -0.384152
C40   C     C_3   0.456676 0.325468 0.072414 -0.744718
H24   H     H_    0.534509 0.354189 0.035667 0.254067
H25   H     H_    0.531651 0.302411 0.125563 0.259605
H26   H     H_    0.392757 0.277151 0.035638 0.272526
H27   H     H_    0.247368 0.346617 0.122489 0.212740
H28   H     H_    0.268934 0.405758 0.044991 0.260398

loop_
_geom_bond_atom_site_label_1
_geom_bond_atom_site_label_2
_geom_bond_distance
_ccdc_geom_bond_type
C40   H24   1.108413 S    
C13   H5    1.084440 S    
C19   C20   1.187468 T    
Zn1   N1    2.000028 S    
C37   H23   1.106647 S    
C39   H28   1.106448 S    
C23   H7    1.082039 S    
N3    O9    1.301449 A    
O5    C3    1.270746 A    
O1    C1    1.283622 A    
C27   C37   1.531651 S    
C7    H3    1.084804 S    
C10   C12   1.409497 A    
C33   H12   1.109001 S    
C38   H20   1.110287 S    
C2    C11   1.445608 S    
C25   C33   1.517209 S    
C5    C6    1.336245 D    
N4    O11   1.301549 A    
C25   C27   1.433680 A    
C15   N5    1.442751 S    
O4    Zn1   1.993264 S    
N6    O16   1.301355 A    
C3    C5    1.403765 S    
C35   H17   1.085575 S    
C4    C6    1.403739 S    
N8    O19   1.300615 A    
C29   C31   1.485449 S    
C21   N7    1.436615 S    
C30   C32   1.486011 S    
C15   C17   1.408075 A    
C8    C18   1.395658 A    
C28   C30   1.413983 A    
N5    O13   1.301684 A    
C40   H25   1.109802 S    
O2    C2    1.283802 A    
C34   H11   1.108367 S    
C27   C29   1.412808 A    
N2    C26   1.390412 A    
C39   H27   1.101645 S    
C9    N3    1.438288 S    
N3    O10   1.300371 A    
C26   C28   1.436218 A    
N5    O14   1.301170 A    
C13   C15   1.391952 A    
C31   C32   1.228991 T    
C8    C10   1.391153 A    
C14   C16   1.393195 A    
C34   H10   1.110658 S    
C7    C17   1.394973 A    
C36   H15   1.109594 S    
C38   H19   1.110271 S    
C23   N1    1.362761 A    
N7    O18   1.301406 A    
C37   C38   1.526030 S    
C26   C35   1.519416 S    
C38   H21   1.110515 S    
C1    C12   1.441651 S    
C16   C18   1.407593 A    
C7    C9    1.391733 A    
O7    Zn2   1.983292 S    
N6    O15   1.301669 A    
C21   C29   1.420420 A    
C24   N2    1.363210 A    
O6    C4    1.270731 A    
N1    C25   1.388660 A    
O3    Zn2   1.993265 S    
O8    C4    1.280700 A    
O4    C2    1.287333 A    
C8    H4    1.084784 S    
C40   H26   1.110385 S    
O7    C3    1.280696 A    
C11   C13   1.399849 A    
C33   H13   1.083028 S    
Zn2   N2    2.000028 S    
C5    H1    1.087864 S    
O6    Zn2   1.959865 S    
C35   C36   1.532353 S    
C22   N8    1.436968 S    
C34   H9    1.107785 S    
O3    C1    1.285666 A    
O8    Zn1   1.983291 S    
C36   H16   1.110524 S    
C37   H22   1.102571 S    
C22   C30   1.419173 A    
C10   N4    1.440430 S    
C12   C14   1.399412 A    
C14   H6    1.084405 S    
C16   N6    1.442920 S    
C33   C34   1.531838 S    
C21   C23   1.419646 A    
C22   C24   1.419296 A    
C24   H8    1.081818 S    
C39   C40   1.530668 S    
C17   C19   1.411528 S    
N4    O12   1.300818 A    
C18   C20   1.411433 S    
C9    C11   1.411088 A    
O2    Zn2   1.967666 S    
C36   H14   1.105834 S    
C35   H18   1.108822 S    
O5    Zn1   1.959865 S    
O1    Zn1   1.967666 S    
C6    H2    1.087932 S    
N7    O17   1.299811 A    
C28   C39   1.531251 S    
N8    O20   1.301406 A    
