data_mof_unit_6509.cif
_audit_creation_date              2013-03-05T16:44:36-0500
_audit_creation_method            fapswitch 2.2
_symmetry_space_group_name_H-M    P1
_symmetry_Int_Tables_number       1
_space_group_crystal_system       triclinic
_cell_length_a                    27.75502
_cell_length_b                    10.663787
_cell_length_c                    9.88961
_cell_angle_alpha                 90.327278
_cell_angle_beta                  90.987847
_cell_angle_gamma                 90.941746
_cell_volume                      2926.18070706

loop_
_atom_site_label
_atom_site_type_symbol
_atom_site_description
_atom_site_fract_x
_atom_site_fract_y
_atom_site_fract_z
_atom_type_partial_charge
O1    O     O_R   0.500010 0.316790 0.614690 -0.609730
O2    O     O_R   0.500000 0.316760 0.385350 -0.620845
C1    C     C_R   0.501498 0.260132 0.499893 0.881845
O3    O     O_R   0.428760 0.500040 0.614660 -0.619819
O4    O     O_R   0.428750 0.500000 0.385310 -0.628955
C2    C     C_R   0.406095 0.500618 0.499011 0.865916
Zn1   Zn    Zn3+2 0.500000 0.500020 0.653130 0.937510
Zn2   Zn    Zn3+2 0.500000 0.499980 0.346870 0.939735
O5    O     O_R   0.500000 0.683240 0.614650 -0.642809
O6    O     O_R   0.499990 0.683210 0.385310 -0.621746
O7    O     O_R   0.571250 0.500000 0.614690 -0.632302
O8    O     O_R   0.571240 0.499960 0.385340 -0.621155
C3    C     C_R   0.501488 0.739997 0.500340 0.882321
C4    C     C_R   0.593922 0.499671 0.500870 0.866758
C5    C     C_R   0.177525 0.407919 0.519975 0.499952
O9    O     O_2   0.201862 0.301301 0.543347 -0.563586
N1    N     N_R   0.202051 0.516052 0.493845 -0.350355
C6    C     C_R   0.179432 0.626447 0.469489 0.494130
C7    C     C_R   0.277308 0.482482 0.376206 -0.104012
C8    C     C_R   0.327314 0.478046 0.377471 -0.228379
C9    C     C_R   0.329027 0.536267 0.615374 -0.219045
C10   C     C_R   0.279052 0.540811 0.613795 -0.106484
C11   C     C_R   0.253308 0.513782 0.494352 0.342243
C12   C     C_R   0.102322 0.519193 0.497866 -0.067502
C13   C     C_R   0.127439 0.407303 0.523193 -0.004576
C14   C     C_R   0.102336 0.296356 0.550815 -0.153606
C15   C     C_R   0.128328 0.631969 0.469728 -0.091648
C16   C     C_R   0.353505 0.504531 0.497210 -0.036427
H1    H     H_    0.348406 0.558824 0.708438 0.150287
H2    H     H_    0.260248 0.565076 0.705100 0.132511
H3    H     H_    0.121081 0.209624 0.569254 0.192790
C17   C     C_R   0.646576 0.499505 0.502095 -0.035205
C18   C     C_R   0.975165 0.404293 0.543433 0.043972
C19   C     C_R   0.974579 0.623109 0.464182 0.055911
C20   C     C_R   0.949637 0.512709 0.504526 0.076331
C21   C     C_R   0.948723 0.299270 0.590920 -0.220090
C22   C     C_R   0.898800 0.298552 0.592618 -0.135517
C23   C     C_R   0.873354 0.402785 0.548597 -0.020610
C24   C     C_R   0.898580 0.510479 0.505331 -0.054468
C25   C     C_R   0.872640 0.615747 0.462375 -0.020549
C26   C     C_R   0.822264 0.611828 0.464566 0.503469
N2    N     N_R   0.798577 0.505696 0.505698 -0.355693
C27   C     C_R   0.822949 0.401963 0.546977 0.504380
C28   C     C_R   0.721633 0.515316 0.382067 -0.097832
C29   C     C_R   0.671589 0.514267 0.380814 -0.217539
C30   C     C_R   0.672298 0.484619 0.624068 -0.222543
C31   C     C_R   0.722349 0.487419 0.625413 -0.098748
C32   C     C_R   0.747113 0.502842 0.504440 0.310463
O10   O     O_2   0.798411 0.297949 0.584816 -0.556466
C33   C     C_R   0.026039 0.404324 0.533996 0.059223
C34   C     C_R   0.051235 0.517066 0.500723 0.070791
C35   C     C_R   0.025729 0.627283 0.470855 -0.009745
C36   C     C_R   0.052666 0.294464 0.555523 -0.217572
H4    H     H_    0.652595 0.525424 0.285139 0.162989
H5    H     H_    0.740693 0.526238 0.288114 0.147060
H6    H     H_    0.880215 0.215528 0.628969 0.192268
H7    H     H_    0.965439 0.216410 0.630306 0.142992
H8    H     H_    0.036247 0.204097 0.573503 0.137784
O11   O     O_2   0.206926 0.729069 0.446125 -0.588230
C37   C     C_R   0.102448 0.744475 0.445331 0.157232
H9    H     H_    0.345299 0.453022 0.285427 0.142988
H10   H     H_    0.257149 0.461223 0.283954 0.131546
C38   C     C_R   0.947273 0.725152 0.415955 -0.224258
C39   C     C_R   0.897335 0.721772 0.416567 -0.134684
O12   O     O_2   0.797081 0.713474 0.426880 -0.557336
C40   C     C_R   0.051955 0.739477 0.450250 -0.199241
H11   H     H_    0.963238 0.808255 0.372961 0.142065
H12   H     H_    0.653816 0.470031 0.717998 0.167392
H13   H     H_    0.878129 0.802660 0.379550 0.192364
H14   H     H_    0.741948 0.477437 0.720278 0.148495
H15   H     H_    0.033085 0.825825 0.442311 0.160834
C41   C     C_R   0.506465 0.064929 0.623185 0.155008
C42   C     C_R   0.509126 0.129043 0.501309 -0.103395
C43   C     C_R   0.520984 0.065074 0.382606 -0.217449
H16   H     H_    0.527217 0.114069 0.288766 0.171622
C44   C     C_R   0.520864 0.935337 0.382823 -0.218544
H17   H     H_    0.526857 0.885786 0.288808 0.166589
C45   C     C_R   0.509008 0.871771 0.501939 -0.102580
C46   C     C_R   0.506334 0.937122 0.623619 0.123025
C47   C     C_3   0.469311 0.929834 0.731611 -0.480218
C48   C     C_3   0.469774 0.071951 0.731576 -0.498323
H18   H     H_    0.434550 0.887514 0.694990 0.210397
H19   H     H_    0.483796 0.889939 0.827216 0.199596
H20   H     H_    0.435204 0.112540 0.695750 0.203104
H21   H     H_    0.485225 0.114094 0.826107 0.209599
C49   C     C_R   0.474731 0.410135 0.069306 0.199176
N3    N     N_R   0.499670 0.499140 0.142800 -0.144132
C50   C     C_R   0.528054 0.581394 0.075935 -0.139646
H22   H     H_    0.549522 0.648501 0.134413 0.159604
C51   C     C_R   0.529498 0.580444 0.932520 0.182304
N4    N     N_R   0.499670 0.499180 0.857150 -0.132626
C52   C     C_R   0.474468 0.410588 0.926774 0.142450
C53   C     C_3   0.421385 0.387119 0.917544 -0.488053
C54   C     C_3   0.421474 0.387560 0.071651 -0.095775
H23   H     H_    0.401955 0.467979 0.873883 0.187863
H24   H     H_    0.412146 0.295910 0.868443 0.209491
H25   H     H_    0.402523 0.470105 0.112846 0.147209
C55   C     C_3   0.128202 0.868982 0.413601 -0.297145
C56   C     C_3   0.096695 0.982197 0.382350 -0.949050
H26   H     H_    0.072282 0.962058 0.294424 0.267784
H27   H     H_    0.075567 0.008552 0.472188 0.253257
H28   H     H_    0.120123 0.063625 0.356181 0.276780
H29   H     H_    0.151806 0.896016 0.501239 0.249947
H30   H     H_    0.150547 0.854997 0.322768 0.248908
C57   C     C_3   0.564299 0.672924 0.869879 -0.371542
C58   C     C_3   0.616253 0.651860 0.917980 -0.902081
H31   H     H_    0.624587 0.550434 0.916787 0.261038
H32   H     H_    0.622076 0.688557 0.022368 0.253154
H33   H     H_    0.641614 0.702208 0.850701 0.263772
H34   H     H_    0.563985 0.667918 0.759925 0.272787
H35   H     H_    0.553928 0.769751 0.897620 0.178804
C59   C     C_3   0.405845 0.264078 0.140678 -0.332856
C60   C     C_3   0.432034 0.146054 0.095157 -0.848076
H36   H     H_    0.419918 0.117199 0.992088 0.253611
H37   H     H_    0.471683 0.160899 0.097438 0.248871
H38   H     H_    0.423264 0.067852 0.164689 0.251118
H39   H     H_    0.411752 0.275557 0.251448 0.223385
H40   H     H_    0.366506 0.249338 0.123180 0.204000

loop_
_geom_bond_atom_site_label_1
_geom_bond_atom_site_label_2
_geom_bond_distance
_ccdc_geom_bond_type
N3    C50   1.352461 A    
C53   C54   1.523999 S    
C26   N2    1.366978 A    
C20   C24   1.417032 A    
C7    C8    1.389338 A    
C12   C15   1.423703 A    
C57   H34   1.088282 S    
Zn1   O7    2.020183 S    
N1    C11   1.423168 S    
C43   C44   1.383450 A    
C21   C22   1.385909 A    
C44   C45   1.403793 A    
C41   C46   1.362874 A    
C37   C55   1.534121 S    
C15   C37   1.428014 A    
C47   H19   1.110725 S    
O4    C2    1.297797 A    
O7    C4    1.299023 A    
C5    C13   1.390984 A    
C58   H31   1.109790 S    
C7    H10   1.082906 S    
C55   H29   1.111233 S    
C18   C21   1.415736 A    
C5    N1    1.357744 A    
C19   C20   1.418637 A    
C42   C43   1.401186 A    
C8    H9    1.079934 S    
O5    C3    1.286317 A    
C52   C53   1.491508 S    
C49   C54   1.494300 S    
C3    C45   1.417187 S    
C22   H6    1.083597 S    
C2    C16   1.460701 S    
C31   C32   1.399159 A    
C41   C48   1.493626 S    
C41   C42   1.391575 A    
C60   H38   1.110483 S    
C12   C34   1.418508 A    
C57   H35   1.110643 S    
C37   C40   1.403251 A    
C14   H3    1.083435 S    
C53   H23   1.110093 S    
C9    C10   1.388499 A    
O3    Zn1   2.007090 S    
C59   C60   1.532939 S    
N1    C6    1.363935 A    
C23   C24   1.407723 A    
C38   H11   1.077199 S    
C33   C36   1.410619 A    
C43   H16   1.082713 S    
C34   C35   1.412064 A    
C12   C13   1.413180 A    
O3    C2    1.295869 A    
C21   H7    1.076517 S    
C4    C17   1.461285 S    
N4    C52   1.363160 A    
C45   C46   1.390856 A    
C27   O10   1.350132 S    
C26   O12   1.350158 S    
C8    C16   1.403646 A    
C54   H25   1.111743 S    
C18   C33   1.416678 A    
C9    H1    1.081845 S    
C38   C39   1.386036 A    
O1    C1    1.284621 A    
C7    C11   1.396429 A    
C31   H14   1.082984 S    
C30   H12   1.079683 S    
C22   C23   1.394457 A    
C40   H15   1.069398 S    
Zn2   O8    2.007090 S    
Zn1   N4    2.017927 S    
C33   C34   1.423929 A    
C17   C29   1.404508 A    
N2    C32   1.428038 S    
C39   H13   1.083598 S    
C44   H17   1.083499 S    
C47   H18   1.112376 S    
C25   C26   1.398659 A    
C56   H27   1.110288 S    
C9    C16   1.404336 A    
C50   C51   1.419561 A    
C29   H4    1.083277 S    
C53   H24   1.108913 S    
N2    C27   1.366790 A    
C14   C36   1.380003 A    
C24   C25   1.407283 A    
C48   H20   1.112302 S    
C35   C40   1.407865 A    
C28   C29   1.388669 A    
C49   N3    1.364341 A    
C60   H36   1.108137 S    
Zn1   O5    1.992666 S    
C30   C31   1.388843 A    
C10   H2    1.082939 S    
O1    Zn1   1.988438 S    
C17   C30   1.402208 A    
O2    Zn2   1.992667 S    
C6    C15   1.420631 A    
C51   C57   1.511806 S    
O8    C4    1.295008 A    
C47   C48   1.515346 S    
O6    C3    1.285399 A    
O4    Zn2   2.020186 S    
C36   H8    1.076206 S    
C57   C58   1.531125 S    
C19   C35   1.420014 A    
C25   C39   1.394418 A    
C56   H26   1.110909 S    
Zn2   N3    2.018004 S    
O2    C1    1.287091 A    
C13   C14   1.393897 A    
C23   C27   1.398712 A    
C49   C52   1.409514 A    
C59   H40   1.110991 S    
C28   H5    1.083018 S    
C51   N4    1.392734 A    
C59   H39   1.110657 S    
C58   H32   1.110207 S    
C55   H30   1.111101 S    
C54   C59   1.545902 S    
C19   C38   1.416515 A    
C18   C20   1.417508 A    
C1    C42   1.417397 S    
C46   C47   1.496242 S    
C28   C32   1.399248 A    
C6    O11   1.347133 S    
C56   H28   1.110672 S    
C50   H22   1.082121 S    
Zn2   O6    1.988437 S    
C55   C56   1.532133 S    
C10   C11   1.396144 A    
C48   H21   1.111263 S    
C5    O9    1.350997 S    
C60   H37   1.109031 S    
C58   H33   1.110970 S    
