data_mof_unit_6536.cif
_audit_creation_date              2012-12-11T15:08:38-0500
_audit_creation_method            fapswitch 2.2
_symmetry_space_group_name_H-M    P1
_symmetry_Int_Tables_number       1
_space_group_crystal_system       triclinic
_cell_length_a                    26.90816
_cell_length_b                    7.09768
_cell_length_c                    12.139753
_cell_angle_alpha                 89.828487
_cell_angle_beta                  104.134011
_cell_angle_gamma                 88.399867
_cell_volume                      2247.33710508

loop_
_atom_site_label
_atom_site_type_symbol
_atom_type_description
_atom_site_fract_x
_atom_site_fract_y
_atom_site_fract_z
_atom_type_partial_charge
O1    O     O_R   0.437360 0.505910 0.042120 -0.535891
O2    O     O_R   0.562640 0.005910 0.957880 -0.536699
O3    O     O_R   0.542480 0.176660 0.157100 -0.550336
O4    O     O_R   0.457520 0.676660 0.842900 -0.535136
C1    C     C_R   0.557228 0.342394 0.197224 0.772488
C2    C     C_R   0.443207 0.846661 0.802583 0.787776
O5    O     O_R   0.436520 0.176250 0.054800 -0.517003
O6    O     O_R   0.563480 0.676250 0.945200 -0.524384
O7    O     O_R   0.455920 0.005040 0.854840 -0.532624
O8    O     O_R   0.544080 0.505040 0.145160 -0.513142
C3    C     C_R   0.418148 0.347183 0.064673 0.762833
C4    C     C_R   0.582286 0.842154 0.936220 0.768890
O9    O     O_3   0.506490 0.338900 0.934520 -0.373690
O10   O     O_3   0.493510 0.838900 0.065480 -0.364554
V1    V     V_3+5 0.498800 0.064400 0.012150 1.644037
V2    V     V_3+5 0.501200 0.564400 0.987850 1.658560
C5    C     C_R   0.673178 0.782092 0.744928 0.445177
C6    C     C_R   0.328173 0.415420 0.256775 0.449060
C7    C     C_R   0.629193 0.840021 0.894374 -0.130582
C8    C     C_R   0.371335 0.363954 0.105715 -0.133541
C9    C     C_R   0.862350 0.897419 0.192406 0.190267
C10   C     C_R   0.137111 0.292509 0.811688 0.191775
C11   C     C_R   0.815948 0.881254 0.222103 0.271929
C12   C     C_R   0.183539 0.288766 0.781153 0.271487
C13   C     C_R   0.771212 0.858286 0.138932 -0.225434
C14   C     C_R   0.228192 0.329440 0.860553 -0.198335
C15   C     C_R   0.770354 0.858884 0.021917 0.039712
C16   C     C_R   0.229632 0.353513 0.977359 0.051708
C17   C     C_R   0.817966 0.858753 0.989698 -0.071508
C18   C     C_R   0.182122 0.363829 0.010080 -0.071123
C19   C     C_R   0.722832 0.852421 0.938067 0.042201
C20   C     C_R   0.277411 0.365501 0.060695 0.050635
C21   C     C_R   0.721977 0.818330 0.821797 -0.094872
C22   C     C_R   0.278751 0.394248 0.178108 -0.085823
C23   C     C_R   0.769438 0.823380 0.789162 0.280786
C24   C     C_R   0.231196 0.396253 0.210751 0.283786
C25   C     C_R   0.816363 0.848231 0.871094 0.132647
C26   C     C_R   0.183889 0.382587 0.128438 0.135126
C27   C     C_R   0.675544 0.882966 0.968092 -0.151659
C28   C     C_R   0.324555 0.341564 0.029411 -0.150080
C29   C     C_R   0.628592 0.775422 0.785625 0.292087
C30   C     C_R   0.373390 0.408313 0.218061 0.290018
C31   C     C_R   0.864622 0.873498 0.078490 -0.179597
C32   C     C_R   0.135215 0.346101 0.922298 -0.179657
H1    H     H_    0.673533 0.936578 0.050016 0.141350
H2    H     H_    0.327134 0.304355 0.945389 0.154627
H3    H     H_    0.737420 0.836983 0.169413 0.194242
H4    H     H_    0.261218 0.338077 0.826171 0.174064
C33   C     C_R   0.091566 0.843221 0.310572 -0.098153
C34   C     C_R   0.907090 0.373108 0.690280 -0.095219
C35   C     C_R   0.407764 0.862145 0.689621 -0.135727
C36   C     C_R   0.591146 0.340742 0.312373 -0.130316
C37   C     C_R   0.112089 0.699987 0.497995 -0.069731
C38   C     C_R   0.888430 0.444804 0.489259 -0.066673
C39   C     C_R   0.077948 0.728964 0.392692 0.329123
C40   C     C_R   0.921806 0.449507 0.596745 0.325251
C41   C     C_R   0.141886 0.906025 0.329649 -0.165727
C42   C     C_R   0.856044 0.323435 0.678778 -0.160463
C43   C     C_R   0.179229 0.854185 0.429881 0.150500
C44   C     C_R   0.819544 0.343284 0.573102 0.153583
C45   C     C_R   0.162437 0.761389 0.517199 0.098680
C46   C     C_R   0.837854 0.388757 0.476542 0.100451
C47   C     C_R   0.232913 0.881577 0.444130 0.080952
C48   C     C_R   0.765555 0.325081 0.559957 0.083086
C49   C     C_R   0.267524 0.841433 0.550807 0.130686
C50   C     C_R   0.731847 0.341259 0.449857 0.129814
C51   C     C_R   0.248761 0.748122 0.634403 -0.035767
C52   C     C_R   0.753629 0.346577 0.355435 -0.060968
C53   C     C_R   0.197117 0.714433 0.619244 -0.072340
C54   C     C_R   0.805218 0.380902 0.368402 -0.078406
C55   C     C_R   0.253534 0.923242 0.351530 -0.153087
C56   C     C_R   0.744077 0.301914 0.653459 -0.161501
C57   C     C_R   0.306231 0.922524 0.361346 0.439567
C58   C     C_R   0.691668 0.281056 0.640606 0.446578
C59   C     C_R   0.341307 0.902873 0.469732 -0.006502
C60   C     C_R   0.657601 0.287769 0.530887 -0.003607
C61   C     C_R   0.320870 0.875244 0.567052 -0.008806
C62   C     C_R   0.677584 0.340588 0.436470 -0.013866
C63   C     C_R   0.395757 0.905901 0.486575 0.422448
C64   C     C_R   0.604367 0.248988 0.510039 0.423133
C65   C     C_R   0.427600 0.875784 0.594699 -0.169528
C66   C     C_R   0.573483 0.261924 0.400039 -0.166450
C67   C     C_R   0.354740 0.879176 0.677493 0.188090
C68   C     C_R   0.642153 0.395931 0.332744 0.217512
H5    H     H_    0.184561 0.643548 0.686254 0.134170
H6    H     H_    0.819715 0.399775 0.293368 0.135301
H7    H     H_    0.468718 0.874783 0.605851 0.205510
H8    H     H_    0.534279 0.216538 0.383375 0.206705
H9    H     H_    0.100493 0.616365 0.561814 0.192092
H10   H     H_    0.901196 0.493943 0.416395 0.187189
H11   H     H_    0.151547 0.986277 0.262681 0.149745
H12   H     H_    0.845731 0.276386 0.754478 0.132797
H13   H     H_    0.274157 0.685836 0.709116 0.159498
H14   H     H_    0.731173 0.322965 0.270275 0.156851
H15   H     H_    0.229279 0.938415 0.266798 0.149269
H16   H     H_    0.767298 0.302932 0.739375 0.146765
O11   O     O_R   0.955980 0.206520 0.854760 -0.521562
O12   O     O_R   0.044020 0.706520 0.145240 -0.518921
O13   O     O_R   0.063490 0.536770 0.945200 -0.533528
O14   O     O_R   0.936510 0.036770 0.054800 -0.536250
C69   C     C_R   0.083698 0.365782 0.942835 0.831894
C70   C     C_R   0.916225 0.871471 0.057299 0.828409
O15   O     O_R   0.957530 0.536190 0.842880 -0.516583
O16   O     O_R   0.042470 0.036190 0.157120 -0.517850
O17   O     O_R   0.937350 0.707210 0.042130 -0.533225
O18   O     O_R   0.062650 0.207210 0.957870 -0.532361
C71   C     C_R   0.942370 0.370539 0.803573 0.766860
C72   C     C_R   0.057109 0.865052 0.196903 0.768651
O19   O     O_3   0.993540 0.373870 0.065440 -0.360552
O20   O     O_3   0.006460 0.873870 0.934560 -0.360519
V3    V     V_3+5 0.001200 0.648440 0.987860 1.660173
V4    V     V_3+5 0.998800 0.148440 0.012140 1.655233
Br1   Br    Br    0.565880 0.678489 0.691459 -0.379771
Br2   Br    Br    0.439451 0.456067 0.319004 -0.389065
Br3   Br    Br    0.331871 0.954524 0.811176 -0.566763
Br4   Br    Br    0.657809 0.583320 0.230573 -0.555243
Cl1   Cl    Cl    0.323068 0.929332 0.229836 -0.615387
Cl2   Cl    Cl    0.672603 0.275168 0.769581 -0.628069
Br5   Br    Br    0.015936 0.590131 0.359625 -0.371942
Br6   Br    Br    0.985101 0.576481 0.614476 -0.369401
Br7   Br    Br    0.433149 0.955991 0.373819 -0.354667
Br8   Br    Br    0.568473 0.163441 0.618691 -0.368263
Br9   Br    Br    0.774065 0.807293 0.632488 -0.402729
Br10  Br    Br    0.226775 0.402346 0.368323 -0.435221
Cl3   Cl    Cl    0.662304 0.747793 0.596764 -0.534026
Cl4   Cl    Cl    0.338989 0.447774 0.405075 -0.559045
Br11  Br    Br    0.922476 0.957433 0.309152 -0.418462
Br12  Br    Br    0.076616 0.214540 0.701845 -0.411419
Br13  Br    Br    0.811743 0.886523 0.377213 -0.439459
Br14  Br    Br    0.188090 0.230128 0.629654 -0.458528
Br15  Br    Br    0.876592 0.872986 0.811136 -0.478519
Br16  Br    Br    0.123178 0.377152 0.188197 -0.487997

loop_
_geom_bond_atom_site_label_1
_geom_bond_atom_site_label_2
_ccdc_geom_bond_type
C50   C52   A    
C47   C49   A    
C15   C17   A    
C57   C59   A    
O1    C3    A    
O2    C4    A    
C2    O7    A    
C53   H5    S    
C64   Br8   S    
O5    C3    A    
C63   Br7   S    
C11   Br13  S    
C58   C60   A    
O15   V3    S    
C23   C25   A    
C60   C62   A    
C38   H10   S    
C6    C30   A    
C8    C28   A    
C56   H16   S    
C41   C43   A    
C55   H15   S    
C61   C67   A    
C42   C44   A    
O12   C72   A    
C46   C54   A    
C70   O17   A    
C44   C46   A    
C36   C68   A    
O20   V3    S    
O19   V3    S    
C20   C22   A    
C9    C31   A    
C37   C45   A    
C30   Br2   S    
C10   C32   A    
C49   C51   A    
C19   C21   A    
C1    C36   S    
C2    C35   S    
C9    Br11  S    
C35   C65   A    
C14   H4    S    
C27   H1    S    
O5    V1    S    
O17   V3    S    
C68   Br4   S    
C17   C31   A    
C40   Br6   S    
C18   C32   A    
C5    C21   A    
C50   C62   A    
C33   C72   S    
C5    C29   A    
C37   C39   A    
C58   Cl2   S    
C38   C40   A    
C3    C8    S    
C43   C45   A    
C49   C61   A    
C15   C19   A    
C34   C42   A    
C67   Br3   S    
C16   C20   A    
C57   Cl1   S    
C56   C58   A    
O19   V4    S    
C63   C65   A    
O11   V4    S    
O18   V4    S    
C38   C46   A    
C33   C39   A    
C34   C40   A    
C25   Br15  S    
O16   V4    S    
C51   C53   A    
C48   C50   A    
O4    V2    S    
C28   H2    S    
C12   Br14  S    
C6    C22   A    
C10   Br12  S    
O6    C4    A    
O13   V3    S    
O14   C70   A    
O1    V2    S    
C36   C66   A    
O2    V1    S    
C59   C61   A    
C65   H7    S    
C7    C27   A    
C64   C66   A    
O13   C69   A    
C47   C55   A    
O14   V4    S    
C9    C11   A    
C37   H9    S    
C34   C71   S    
C10   C12   A    
O4    C2    A    
C24   C26   A    
C54   H6    S    
C35   C67   A    
O16   C72   A    
C20   C28   A    
O3    V1    S    
C55   C57   A    
C45   C53   A    
C69   O18   A    
C13   H3    S    
O12   V3    S    
C41   H11   S    
C24   Br10  S    
C43   C47   A    
C60   C64   A    
C29   Br1   S    
O3    C1    A    
C33   C41   A    
C8    C30   A    
C32   C69   S    
C13   C15   A    
C52   H14   S    
C14   C16   A    
C44   C48   A    
C23   Br9   S    
O7    V1    S    
C31   C70   S    
C1    O8    A    
O8    V2    S    
C6    Cl4   S    
C12   C14   A    
C5    Cl3   S    
C59   C63   A    
C66   H8    S    
C4    C7    S    
C16   C18   A    
C21   C23   A    
C19   C27   A    
C22   C24   A    
C48   C56   A    
O20   V4    S    
O11   C71   A    
C62   C68   A    
C39   Br5   S    
C11   C13   A    
O6    V2    S    
O9    V2    S    
C17   C25   A    
C51   H13   S    
C52   C54   A    
O10   V1    S    
O15   C71   A    
C18   C26   A    
C42   H12   S    
C7    C29   A    
C26   Br16  S    
