data_mof_unit_28245.cif
_audit_creation_date              2012-10-26T21:15:26-0400
_audit_creation_method            fapswitch 2.2
_symmetry_space_group_name_H-M    P1
_symmetry_Int_Tables_number       1
_space_group_crystal_system       triclinic
_cell_length_a                    10.702889
_cell_length_b                    10.965896
_cell_length_c                    9.739011
_cell_angle_alpha                 86.16719
_cell_angle_beta                  89.23238
_cell_angle_gamma                 89.982237
_cell_volume                      1140.37712447

loop_
_atom_site_label
_atom_site_type_symbol
_atom_type_description
_atom_site_fract_x
_atom_site_fract_y
_atom_site_fract_z
_atom_type_partial_charge
C1    C     C_R   0.506343 0.265791 0.504969 0.541771
C2    C     C_2   0.507906 0.404669 0.081643 0.031294
C3    C     C_R   0.259487 0.494832 0.500920 0.619806
C4    C     C_R   0.501380 0.733908 0.494826 0.608781
C5    C     C_R   0.740170 0.502586 0.499555 0.567742
C6    C     C_3   0.034924 0.391738 0.564078 0.213249
C7    C     C_3   0.954318 0.405029 0.433146 -0.188964
C8    C     C_3   0.876359 0.503211 0.500550 -0.050495
C9    C     C_3   0.956451 0.489824 0.630329 0.205552
C10   C     C_3   0.044430 0.591460 0.568100 -0.081778
C11   C     C_3   0.963513 0.602939 0.438112 0.229591
C12   C     C_3   0.043021 0.506206 0.369866 -0.126750
C13   C     C_3   0.122431 0.492316 0.501348 -0.043985
C14   C     C_2   0.410760 0.938343 0.477896 0.197500
C15   C     C_2   0.510195 0.864705 0.476847 -0.013729
C16   C     C_2   0.429362 0.070134 0.453770 -0.113074
C17   C     C_2   0.512921 0.133779 0.522116 0.192031
C18   C     C_2   0.466377 0.409372 0.935877 0.313214
Cu1   Cu    Cu3+1 0.500030 0.500020 0.638630 1.199098
Cu2   Cu    Cu3+1 0.499970 0.499980 0.361370 1.076900
H1    H     H_    0.080854 0.667594 0.625266 0.232573
H2    H     H_    0.468727 0.578300 0.101509 0.231929
H3    H     H_    0.979423 0.065092 0.622184 0.430723
H4    H     H_    0.994839 0.495988 0.003333 0.374386
H5    H     H_    0.996116 0.874547 0.201665 0.385628
H6    H     H_    0.169785 0.997845 0.336653 0.355333
H7    H     H_    0.079313 0.513149 0.262307 0.193379
H8    H     H_    0.599838 0.900824 0.440951 0.149766
H9    H     H_    0.363824 0.119029 0.385788 0.138296
H10   H     H_    0.915196 0.329443 0.376608 0.195637
H11   H     H_    0.729105 0.221574 0.697135 0.370146
H12   H     H_    0.343843 0.178378 0.086622 0.338977
H13   H     H_    0.563428 0.558245 0.882156 0.234251
H14   H     H_    0.527101 0.316074 0.132835 0.159085
N1    N     N_2   0.498620 0.498660 0.846910 -0.338108
N2    N     N_2   0.498590 0.498630 0.153040 -0.351503
O1    O     O_R   0.500020 0.321960 0.617040 -0.432088
O2    O     O_2   0.722515 0.008496 0.595084 -0.261905
O3    O     O_3   0.664054 0.177827 0.754540 -0.425421
O4    O     O_2   0.243262 0.372804 0.831296 -0.151054
O5    O     O_2   0.391022 0.202383 0.825016 -0.178775
O6    O     O_3   0.287167 0.246502 0.057696 -0.499619
O7    O     O_2   0.202044 0.209358 0.603146 -0.217573
O8    O     O_2   0.046043 0.231236 0.787427 -0.140639
O9    O     O_3   0.973601 0.141657 0.562603 -0.472452
O10   O     O_2   0.829713 0.607152 0.822018 -0.243906
O11   O     O_2   0.827063 0.383059 0.846816 -0.248460
O12   O     O_R   0.499980 0.321920 0.382900 -0.550922
O13   O     O_3   0.030133 0.495941 0.908789 -0.433542
O14   O     O_2   0.797182 0.725808 0.276071 -0.260171
O15   O     O_2   0.892902 0.835861 0.459197 -0.198839
O16   O     O_3   0.027876 0.795547 0.242429 -0.452604
O17   O     O_2   0.240372 0.770110 0.420423 -0.289567
O18   O     O_2   0.229680 0.852832 0.647791 -0.198895
O19   O     O_3   0.154366 0.989664 0.437352 -0.422247
O20   O     O_R   0.316870 0.499990 0.617050 -0.442453
O21   O     O_R   0.316830 0.499950 0.382910 -0.481009
O22   O     O_R   0.500020 0.678080 0.617100 -0.461115
O23   O     O_R   0.499980 0.678040 0.382960 -0.479548
O24   O     O_R   0.683170 0.500050 0.617090 -0.469913
O25   O     O_R   0.683130 0.500010 0.382950 -0.475027
O26   O     O_2   0.539501 0.976424 0.746324 -0.183412
S1    S     S_3+6 0.610987 0.069340 0.656031 0.078865
S2    S     S_3+6 0.345823 0.305522 0.906265 0.133648
S3    S     S_3+6 0.068585 0.240711 0.634508 0.128309
S4    S     S_3+6 0.905485 0.493432 0.806048 0.089509
S5    S     S_3+6 0.915357 0.744210 0.353621 0.085655
S6    S     S_3+6 0.256137 0.883023 0.497507 0.076920

loop_
_geom_bond_atom_site_label_1
_geom_bond_atom_site_label_2
_ccdc_geom_bond_type
Cu1   O20   S    
C5    C8    S    
C11   C12   S    
C1    O12   A    
C6    C7    S    
H3    O9    S    
Cu1   O24   S    
C2    C18   S    
O3    S1    S    
C3    O20   A    
O11   S4    D    
C1    C17   S    
Cu1   Cu2   S    
O4    S2    D    
C1    O1    A    
O7    S3    D    
H6    O19   S    
C2    H14   S    
C4    C15   S    
O19   S6    S    
C15   H8    S    
H5    O16   S    
C5    O25   A    
C7    C8    S    
Cu1   O22   S    
C7    H10   S    
O15   S5    D    
C17   S1    S    
C6    C13   S    
C18   S2    S    
O8    S3    D    
Cu2   O12   S    
O16   S5    S    
O5    S2    D    
C6    C9    S    
C8    C11   S    
C3    O21   A    
C4    O23   A    
H13   N1    S    
H11   O3    S    
O10   S4    D    
C10   H1    S    
O9    S3    S    
C7    C12   S    
C14   C16   S    
O18   S6    D    
C10   C11   S    
C12   H7    S    
C4    O22   A    
Cu2   N2    S    
C9    C10   S    
O6    S2    S    
H4    O13   S    
H2    N2    S    
C12   C13   S    
O2    S1    D    
C18   N1    D    
C2    N2    D    
Cu2   O25   S    
Cu2   O21   S    
O17   S6    D    
H12   O6    S    
C14   C15   D    
C8    C9    S    
Cu1   N1    S    
O13   S4    S    
Cu1   O1    S    
C5    O24   A    
C16   H9    S    
C9    S4    S    
C6    S3    S    
O26   S1    D    
C14   S6    S    
O14   S5    D    
C11   S5    S    
C16   C17   D    
Cu2   O23   S    
C10   C13   S    
C3    C13   S    
