data_mof_unit_35900.cif
_audit_creation_date              2013-03-05T15:55:27-0500
_audit_creation_method            fapswitch 2.2
_symmetry_space_group_name_H-M    P1
_symmetry_Int_Tables_number       1
_space_group_crystal_system       triclinic
_cell_length_a                    10.820336
_cell_length_b                    12.439088
_cell_length_c                    13.21712
_cell_angle_alpha                 116.931183
_cell_angle_beta                  76.344844
_cell_angle_gamma                 100.860959
_cell_volume                      1534.36802905

loop_
_atom_site_label
_atom_site_type_symbol
_atom_site_description
_atom_site_fract_x
_atom_site_fract_y
_atom_site_fract_z
_atom_type_partial_charge
O1    O     O_R   0.537340 0.972510 0.318130 -0.562735
O2    O     O_R   0.487200 0.806530 0.359650 -0.603359
C1    C     C_R   0.514071 0.854495 0.286357 0.871457
O3    O     O_R   0.707380 0.082980 0.479220 -0.543601
O4    O     O_R   0.657240 0.917000 0.520740 -0.544480
C2    C     C_R   0.740254 0.998755 0.498244 0.905222
Cu1   Cu    Cu3+1 0.529690 0.098270 0.475420 1.079151
Cu2   Cu    Cu3+1 0.470310 0.901730 0.524580 1.072093
O5    O     O_R   0.512800 0.193470 0.640350 -0.597431
O6    O     O_R   0.462660 0.027490 0.681870 -0.547923
O7    O     O_R   0.342760 0.083000 0.479260 -0.573437
O8    O     O_R   0.292620 0.917020 0.520780 -0.572471
C3    C     C_R   0.484378 0.144798 0.713654 0.859334
C4    C     C_R   0.260493 0.004568 0.505496 0.847173
C5    C     C_3   0.952356 0.126498 0.514023 -0.327124
H1    H     H_    0.905715 0.200928 0.591286 0.253227
H2    H     H_    0.947806 0.143856 0.440256 0.255385
C6    C     C_3   0.094700 0.131521 0.517688 0.173847
H3    H     H_    0.150038 0.146901 0.442773 0.199821
H4    H     H_    0.061165 0.038596 0.688324 0.279101
C7    C     C_3   0.893895 0.973057 0.599520 0.109913
C8    C     C_3   0.946770 0.898277 0.383718 0.075217
C9    C     C_3   0.879673 0.000068 0.498229 -0.221347
H5    H     H_    0.907614 0.810952 0.384581 0.186855
C10   C     C_3   0.124145 0.006609 0.504092 -0.214087
C11   C     C_3   0.036783 0.976871 0.602293 -0.392453
C12   C     C_3   0.091550 0.905330 0.386215 0.009798
H6    H     H_    0.108234 0.817541 0.382499 0.144877
H7    H     H_    0.853066 0.878488 0.580725 0.191899
H8    H     H_    0.053799 0.885511 0.587656 0.225894
C13   C     C_R   0.374472 0.270167 0.035414 0.335964
H9    H     H_    0.389959 0.091338 0.898542 0.229026
C14   C     C_R   0.470917 0.227048 0.837034 -0.106849
C15   C     C_R   0.626606 0.803477 0.087076 -0.153515
C16   C     C_R   0.686379 0.717406 0.985185 -0.075825
C17   C     C_R   0.654818 0.593921 0.956304 0.354753
C18   C     C_R   0.544836 0.555990 0.021074 0.002330
C19   C     C_R   0.486582 0.644573 0.126466 0.020650
C20   C     C_R   0.491957 0.433320 0.985951 0.026374
C21   C     C_R   0.403090 0.396281 0.065136 -0.096722
C22   C     C_R   0.340886 0.486318 0.166256 0.303408
C23   C     C_R   0.380308 0.608027 0.192829 -0.185066
C24   C     C_R   0.514744 0.348884 0.870523 -0.060837
C25   C     C_R   0.411104 0.187005 0.921349 -0.154067
C26   C     C_R   0.535378 0.768308 0.163235 -0.030095
H10   H     H_    0.661941 0.897052 0.111839 0.237576
H11   H     H_    0.766682 0.747477 0.934531 0.220349
H12   H     H_    0.323900 0.674237 0.265456 0.201033
C27   C     C_R   0.629155 0.310647 0.287088 -0.208631
H13   H     H_    0.616926 0.476549 0.224858 0.183522
H14   H     H_    0.680985 0.297379 0.201922 0.200666
N1    N     N_R   0.574690 0.246280 0.438200 -0.267808
C28   C     C_R   0.336697 0.766694 0.657795 0.480526
C29   C     C_R   0.330394 0.691606 0.711714 -0.245557
C30   C     C_R   0.402244 0.592827 0.660465 0.342226
C31   C     C_R   0.461631 0.555693 0.543778 -0.085174
C32   C     C_R   0.479062 0.644045 0.497911 0.093102
C33   C     C_R   0.510741 0.439216 0.471864 0.033032
C34   C     C_R   0.564148 0.413072 0.355790 0.069952
C35   C     C_R   0.567248 0.496154 0.312067 -0.212187
C36   C     C_R   0.554443 0.616201 0.388415 0.376819
C37   C     C_R   0.506095 0.344505 0.505741 0.095730
C38   C     C_R   0.642999 0.233997 0.333148 0.509432
N2    N     N_R   0.426100 0.754320 0.561190 -0.268459
N3    N     N_R   0.227089 0.457881 0.234885 0.170124
O9    O     O_R   0.208687 0.518647 0.346464 -0.315144
O10   O     O_R   0.132371 0.388162 0.185720 -0.228463
N4    N     N_R   0.313437 0.224379 0.119112 0.167509
O11   O     O_R   0.346806 0.272219 0.220033 -0.328761
O12   O     O_R   0.238253 0.124228 0.089223 -0.211509
H15   H     H_    0.561680 0.378330 0.804610 0.215846
N5    N     N_R   0.745062 0.511508 0.872548 0.118006
O13   O     O_R   0.780108 0.431093 0.894841 -0.267282
O14   O     O_R   0.808127 0.529667 0.783886 -0.261395
N6    N     N_R   0.745153 0.158837 0.278365 0.155827
O15   O     O_R   0.763559 0.098850 0.166814 -0.317724
O16   O     O_R   0.844174 0.193221 0.328923 -0.272522
H16   H     H_    0.445657 0.344887 0.582989 0.206267
N7    N     N_R   0.233946 0.840212 0.694100 0.134644
O17   O     O_R   0.120204 0.784760 0.681417 -0.319997
O18   O     O_R   0.243176 0.950480 0.773117 -0.348452
N8    N     N_R   0.424875 0.542305 0.731871 0.103598
O19   O     O_R   0.333638 0.529263 0.810714 -0.277440
O20   O     O_R   0.542091 0.535524 0.735541 -0.379420
H17   H     H_    0.270064 0.711914 0.795069 0.231988
N9    N     N_R   0.669293 0.690263 0.381616 0.128251
O21   O     O_R   0.747776 0.697757 0.445896 -0.390869
O22   O     O_R   0.715616 0.700903 0.286011 -0.369456
N10   N     N_R   0.134250 0.236969 0.619151 0.151623
O23   O     O_R   0.097103 0.244337 0.722805 -0.250404
O24   O     O_R   0.198260 0.330894 0.606359 -0.319785
N11   N     N_R   0.822643 0.049809 0.711965 0.148450
O25   O     O_R   0.852029 0.165951 0.762501 -0.252325
O26   O     O_R   0.729200 0.000297 0.763918 -0.313044
N12   N     N_R   0.923924 0.888482 0.274259 0.204727
O27   O     O_R   0.958149 0.794364 0.179349 -0.214213
O28   O     O_R   0.856879 0.962196 0.270516 -0.283737
N13   N     N_R   0.175871 0.917127 0.285403 0.163925
O29   O     O_R   0.248958 0.831852 0.215093 -0.348167
O30   O     O_R   0.166533 0.001398 0.255719 -0.236169

loop_
_geom_bond_atom_site_label_1
_geom_bond_atom_site_label_2
_geom_bond_distance
_ccdc_geom_bond_type
C33   C37   1.426841 A    
C5    C6    1.541015 S    
C30   C31   1.415436 A    
C12   N13   1.477187 S    
C27   C38   1.387379 A    
C8    N12   1.472006 S    
C16   C17   1.398040 A    
C7    C11   1.546466 S    
C16   H11   1.082979 S    
Cu1   Cu2   2.731630 S    
C28   C29   1.393172 A    
C31   C32   1.443035 A    
Cu1   O7    1.986259 S    
C38   N6    1.420733 S    
C17   C18   1.430014 A    
C28   N7    1.427037 S    
Cu1   N1    2.058710 S    
C19   C23   1.409357 A    
O4    C2    1.316430 A    
C28   N2    1.372854 A    
N9    O22   1.301128 A    
C5    H1    1.109512 S    
C13   C21   1.423836 A    
C5    H2    1.103181 S    
C15   C16   1.386293 A    
C22   C23   1.393937 A    
O5    C3    1.311619 A    
C19   C26   1.421713 A    
N12   O27   1.301958 A    
N4    O11   1.300439 A    
N3    O10   1.301446 A    
O6    C3    1.312666 A    
C15   H10   1.074449 S    
N10   O24   1.300768 A    
C5    C9    1.565062 S    
C34   C35   1.386329 A    
C14   C25   1.396309 A    
C6    C10   1.566734 S    
O3    Cu1   1.981766 S    
C13   N4    1.438192 S    
C13   C25   1.399912 A    
C14   C24   1.392208 A    
O3    C2    1.307168 A    
C20   C21   1.423703 A    
N7    O18   1.296951 A    
N9    O21   1.300286 A    
C6    H3    1.106359 S    
C20   C24   1.399988 A    
C27   H14   1.085059 S    
C33   C34   1.411960 A    
C7    H7    1.109932 S    
N8    O19   1.301491 A    
C35   C36   1.383596 A    
O1    C1    1.321723 A    
N6    O15   1.300404 A    
C3    C14   1.469670 S    
C18   C19   1.417269 A    
O4    Cu2   1.986261 S    
Cu2   O8    1.981764 S    
N11   O26   1.301437 A    
H9    C25   1.079045 S    
C15   C26   1.395006 A    
C23   H12   1.081186 S    
C30   N8    1.431805 S    
N6    O16   1.297651 A    
Cu2   N2    2.046727 S    
N5    O14   1.301557 A    
C21   C22   1.413173 A    
O8    C4    1.312524 A    
C11   H8    1.107097 S    
N8    O20   1.300433 A    
C8    C12   1.559778 S    
C7    C9    1.566245 S    
C8    H5    1.093188 S    
C32   N2    1.392923 A    
Cu1   O5    1.934626 S    
C29   C30   1.389393 A    
C24   H15   1.077534 S    
O1    Cu1   1.948731 S    
C6    N10   1.472441 S    
C37   H16   1.073151 S    
Cu2   O6    1.948731 S    
O2    Cu2   1.934627 S    
N5    O13   1.301502 A    
N1    C38   1.365052 A    
C29   H17   1.083598 S    
C22   N3    1.436393 S    
N12   O28   1.295465 A    
C32   C36   1.405260 A    
C10   C12   1.566175 S    
N13   O30   1.301586 A    
C27   C34   1.389513 A    
H13   C35   1.085935 S    
O2    C1    1.305432 A    
C10   C11   1.561697 S    
C1    C26   1.478631 S    
C18   C20   1.423371 A    
N1    C37   1.371698 A    
H4    C11   1.107491 S    
C2    C9    1.505531 S    
N11   O25   1.299023 A    
O7    C4    1.303028 A    
C31   C33   1.445419 A    
N3    O9    1.301609 A    
C4    C10   1.484942 S    
C36   N9    1.411373 S    
N7    O17   1.300510 A    
N4    O12   1.301487 A    
N13   O29   1.300144 A    
C12   H6    1.117593 S    
C8    C9    1.585150 S    
N10   O23   1.298863 A    
C17   N5    1.438312 S    
C7    N11   1.471648 S    
