data_mof_unit_32581.cif
_audit_creation_date              2012-12-11T14:24:51-0500
_audit_creation_method            fapswitch 2.2
_symmetry_space_group_name_H-M    P1
_symmetry_Int_Tables_number       1
_space_group_crystal_system       triclinic
_cell_length_a                    19.146845
_cell_length_b                    11.196495
_cell_length_c                    18.728667
_cell_angle_alpha                 89.830554
_cell_angle_beta                  91.883564
_cell_angle_gamma                 89.952679
_cell_volume                      4012.81720218

loop_
_atom_site_label
_atom_site_type_symbol
_atom_type_description
_atom_site_fract_x
_atom_site_fract_y
_atom_site_fract_z
_atom_type_partial_charge
C1    C     C_R   0.729201 0.373949 0.145587 0.544986
C2    C     C_R   0.243659 0.902580 0.070800 -0.004338
C3    C     C_R   0.610521 0.455475 0.444593 -0.103215
C4    C     C_R   0.911772 0.073032 0.567992 0.265182
C5    C     C_R   0.088494 0.073411 0.430975 0.265578
C6    C     C_R   0.411772 0.573032 0.567992 0.265182
C7    C     C_R   0.588494 0.573410 0.430975 0.265578
C8    C     C_R   0.880921 0.159363 0.523710 -0.102430
C9    C     C_R   0.119464 0.159638 0.474965 -0.102666
C10   C     C_R   0.380921 0.659363 0.523710 -0.102430
C11   C     C_R   0.619464 0.659637 0.474965 -0.102666
C12   C     C_R   0.836035 0.126219 0.467230 -0.152003
C13   C     C_R   0.250371 0.412252 0.925632 -0.012234
C14   C     C_R   0.163963 0.126167 0.531900 -0.153179
C15   C     C_R   0.336035 0.626219 0.467229 -0.152002
C16   C     C_R   0.663963 0.626166 0.531900 -0.153178
C17   C     C_R   0.736441 0.001089 0.437205 0.011128
C18   C     C_R   0.263202 0.000278 0.562765 0.012547
C19   C     C_R   0.236441 0.501089 0.437205 0.011128
C20   C     C_R   0.763202 0.500277 0.562765 0.012547
C21   C     C_R   0.716814 0.344075 0.362892 0.520951
C22   C     C_R   0.283211 0.344211 0.637190 0.520941
C23   C     C_R   0.216814 0.844076 0.362892 0.520946
C24   C     C_R   0.743659 0.402580 0.070800 -0.004340
C25   C     C_R   0.783211 0.844211 0.637190 0.520941
C26   C     C_R   0.530803 0.154630 0.352237 0.555200
C27   C     C_R   0.469064 0.154705 0.647602 0.554945
C28   C     C_R   0.030803 0.654630 0.352237 0.555191
C29   C     C_R   0.969064 0.654705 0.647602 0.554945
C30   C     C_R   0.728297 0.025840 0.362316 0.527099
C31   C     C_R   0.271546 0.025618 0.637505 0.525959
C32   C     C_R   0.228297 0.525840 0.362316 0.527102
C33   C     C_R   0.771546 0.525618 0.637505 0.525959
C34   C     C_3   0.549993 0.223992 0.967277 -0.138217
C35   C     C_R   0.697218 0.853351 0.964132 0.018696
C36   C     C_3   0.500680 0.276472 0.023254 -0.119802
C37   C     C_3   0.049993 0.723992 0.967277 -0.138217
C38   C     C_3   0.000680 0.776472 0.023254 -0.119801
C39   C     C_3   0.561633 0.111875 0.014519 -0.106363
C40   C     C_3   0.437594 0.213466 0.985946 -0.116587
C41   C     C_3   0.061633 0.611875 0.014519 -0.106361
C42   C     C_3   0.937594 0.713466 0.985946 -0.116587
C43   C     C_3   0.511599 0.163827 0.069204 0.050358
C44   C     C_3   0.487576 0.160940 0.931431 0.045764
C45   C     C_3   0.011599 0.663826 0.069204 0.050359
C46   C     C_R   0.303423 0.859546 0.035746 0.014326
C47   C     C_3   0.987576 0.660940 0.931431 0.045764
C48   C     C_3   0.997352 0.041653 0.659788 0.029402
C49   C     C_3   0.004920 0.058174 0.740686 -0.230088
C50   C     C_3   0.057321 0.969806 0.773751 -0.459474
C51   C     C_3   0.002937 0.042112 0.339242 0.028968
C52   C     C_3   0.993431 0.062061 0.258607 -0.232570
C53   C     C_3   0.941204 0.973809 0.225459 -0.459606
C54   C     C_3   0.497352 0.541653 0.659788 0.029402
C55   C     C_3   0.504920 0.558173 0.740686 -0.230088
C56   C     C_3   0.557321 0.469806 0.773751 -0.459474
C57   C     C_R   0.197218 0.353351 0.964132 0.018696
C58   C     C_3   0.502938 0.542112 0.339241 0.028967
C59   C     C_3   0.493432 0.562063 0.258607 -0.232568
C60   C     C_3   0.441204 0.473816 0.225457 -0.459602
C61   C     C_R   0.803423 0.359546 0.035746 0.014326
C62   C     C_R   0.701758 0.852331 0.040027 0.012864
C63   C     C_R   0.301754 0.854825 0.959929 0.028279
C64   C     C_R   0.201758 0.352331 0.040026 0.012864
C65   C     C_R   0.269551 0.375886 0.853298 0.545448
C66   C     C_R   0.801754 0.354825 0.959929 0.028280
C67   C     C_R   0.800623 0.987944 0.035937 -0.155504
C68   C     C_R   0.188668 0.952195 0.956569 -0.157214
C69   C     C_R   0.300623 0.487945 0.035937 -0.155504
C70   C     C_R   0.688668 0.452195 0.956569 -0.157213
C71   C     C_R   0.799790 0.981701 0.962861 -0.162540
C72   C     C_R   0.186539 0.945346 0.029514 -0.143331
C73   C     C_R   0.299790 0.481702 0.962860 -0.162540
C74   C     C_R   0.686539 0.445346 0.029514 -0.143332
C75   C     C_R   0.640552 0.793215 0.929969 -0.082629
C76   C     C_R   0.229202 0.873949 0.145587 0.544976
C77   C     C_R   0.364200 0.818807 0.073247 -0.100412
C78   C     C_R   0.140552 0.293215 0.929969 -0.082629
C79   C     C_R   0.864200 0.318807 0.073247 -0.100413
C80   C     C_R   0.097293 0.219180 0.968512 -0.134741
C81   C     C_R   0.916152 0.258184 0.037804 -0.137109
C82   C     C_R   0.597292 0.719180 0.968511 -0.134740
C83   C     C_R   0.416152 0.758185 0.037804 -0.137109
C84   C     C_R   0.606258 0.709172 0.042133 -0.127633
C85   C     C_R   0.409238 0.739192 0.964602 -0.146618
C86   C     C_R   0.106259 0.209172 0.042133 -0.127633
C87   C     C_R   0.769551 0.875886 0.853298 0.545449
C88   C     C_R   0.909238 0.239192 0.964601 -0.146617
C89   C     C_R   0.657632 0.775523 0.077907 -0.079101
C90   C     C_R   0.353472 0.788789 0.925599 -0.086934
C91   C     C_R   0.157632 0.275523 0.077907 -0.079100
C92   C     C_R   0.853472 0.288789 0.925599 -0.086933
C93   C     C_R   0.533277 0.155521 0.144315 0.547287
C94   C     C_R   0.466145 0.154780 0.856084 0.549552
C95   C     C_R   0.033277 0.655521 0.144315 0.547277
C96   C     C_R   0.966145 0.654780 0.856084 0.549553
C97   C     C_R   0.750951 0.927127 0.075614 -0.009527
C98   C     C_3   0.449242 0.101209 0.033106 -0.121192
C99   C     C_R   0.247409 0.914139 0.920960 -0.005631
C100  C     C_R   0.250951 0.427128 0.075613 -0.009527
C101  C     C_R   0.747409 0.414139 0.920960 -0.005631
C102  C     C_R   0.501618 0.148451 0.575918 0.038948
C103  C     C_R   0.497830 0.148452 0.423640 0.040003
C104  C     C_R   0.001619 0.648451 0.575918 0.038949
C105  C     C_R   0.997831 0.648452 0.423640 0.040003
C106  C     C_R   0.506170 0.035963 0.538602 -0.036241
C107  C     C_R   0.493297 0.036066 0.461256 -0.036424
C108  C     C_R   0.006170 0.535963 0.538602 -0.036241
C109  C     C_3   0.498796 0.048842 0.977799 -0.095866
C110  C     C_R   0.993298 0.536066 0.461256 -0.036424
C111  C     C_R   0.494652 0.253084 0.462802 -0.173779
C112  C     C_R   0.504625 0.253054 0.536294 -0.174962
C113  C     C_R   0.994652 0.753084 0.462802 -0.173778
C114  C     C_R   0.004625 0.753054 0.536295 -0.174961
C115  C     C_R   0.520241 0.922062 0.574143 0.257362
C116  C     C_R   0.479606 0.922407 0.425827 0.257122
C117  C     C_R   0.020241 0.422062 0.574144 0.257362
C118  C     C_R   0.979606 0.422407 0.425828 0.257122
C119  C     C_R   0.011228 0.319123 0.535217 -0.206071
C120  C     C_3   0.949242 0.601208 0.033106 -0.121194
C121  C     C_R   0.989469 0.319280 0.464674 -0.206757
C122  C     C_R   0.511228 0.819123 0.535216 -0.206071
C123  C     C_R   0.489470 0.819280 0.464673 -0.206757
C124  C     C_R   0.767532 0.887454 0.565038 0.003431
C125  C     C_R   0.232345 0.887096 0.435053 0.003580
C126  C     C_R   0.267532 0.387454 0.565038 0.003431
C127  C     C_R   0.732345 0.387096 0.435053 0.003580
C128  C     C_R   0.821328 0.941174 0.526331 0.002261
C129  C     C_R   0.178441 0.940772 0.473627 0.002443
C130  C     C_R   0.321328 0.441174 0.526332 0.002261
C131  C     C_3   0.998796 0.548842 0.977799 -0.095865
C132  C     C_R   0.678441 0.440771 0.473627 0.002442
C133  C     C_R   0.801179 0.017947 0.471938 0.036199
C134  C     C_R   0.198497 0.017392 0.527909 0.036332
C135  C     C_R   0.301179 0.517947 0.471938 0.036198
C136  C     C_R   0.698496 0.517391 0.527909 0.036333
C137  C     C_R   0.682666 0.952182 0.474655 -0.163257
C138  C     C_R   0.317020 0.951401 0.525459 -0.162330
C139  C     C_R   0.182666 0.452183 0.474655 -0.163256
C140  C     C_R   0.817020 0.451401 0.525459 -0.162332
C141  C     C_R   0.741759 0.970123 0.148712 0.534969
C142  C     C_R   0.750372 0.912252 0.925632 -0.012234
C143  C     C_R   0.257929 0.967556 0.850342 0.540771
C144  C     C_R   0.241759 0.470123 0.148712 0.534970
C145  C     C_R   0.757929 0.467556 0.850342 0.540771
C146  C     C_R   0.698086 0.903712 0.540970 -0.144566
C147  C     C_R   0.301718 0.903287 0.459205 -0.144704
C148  C     C_R   0.198085 0.403713 0.540970 -0.144567
C149  C     C_R   0.801717 0.403287 0.459205 -0.144699
C150  C     C_R   0.889334 0.955336 0.555118 -0.102710
C151  C     C_R   0.110522 0.955476 0.444593 -0.103215
C152  C     C_R   0.389334 0.455336 0.555118 -0.102709
Cr1   Cr    Cr6+3 0.772820 0.169820 0.252640 1.038198
Cr2   Cr    Cr6+3 0.383280 0.011130 0.749340 1.098370
Cr3   Cr    Cr6+3 0.116720 0.511130 0.250660 1.099581
Cr4   Cr    Cr6+3 0.883280 0.511130 0.749340 1.098370
Cr5   Cr    Cr6+3 0.227180 0.169820 0.747360 1.039116
Cr6   Cr    Cr6+3 0.272820 0.669820 0.252640 1.038191
Cr7   Cr    Cr6+3 0.727180 0.669820 0.747360 1.039116
Cr8   Cr    Cr6+3 0.615040 0.323610 0.249150 0.985687
Cr9   Cr    Cr6+3 0.384960 0.323610 0.750850 0.986677
Cr10  Cr    Cr6+3 0.115040 0.823610 0.249150 0.985685
Cr11  Cr    Cr6+3 0.884960 0.823610 0.750850 0.986677
Cr12  Cr    Cr6+3 0.616720 0.011130 0.250660 1.099587
H1    H     H_    0.613051 0.070121 0.027841 0.131567
H2    H     H_    0.980369 0.234051 0.439791 0.193355
H3    H     H_    0.520805 0.733765 0.560061 0.193146
H4    H     H_    0.480370 0.734051 0.439790 0.193354
H5    H     H_    0.629728 0.952624 0.452928 0.134822
H6    H     H_    0.369959 0.951794 0.547194 0.135212
H7    H     H_    0.129728 0.452624 0.452928 0.134823
H8    H     H_    0.869959 0.451795 0.547194 0.135211
H9    H     H_    0.908868 0.883541 0.586267 0.142223
H10   H     H_    0.090923 0.883693 0.413745 0.141267
H11   H     H_    0.408868 0.383542 0.586267 0.142223
H12   H     H_    0.386229 0.255279 0.972426 0.131646
H13   H     H_    0.590922 0.383692 0.413745 0.141267
H14   H     H_    0.655922 0.876872 0.571856 0.204317
H15   H     H_    0.343962 0.876806 0.428423 0.204246
H16   H     H_    0.155922 0.376872 0.571856 0.204317
H17   H     H_    0.843962 0.376807 0.428423 0.204250
H18   H     H_    0.886872 0.251482 0.536753 0.151725
H19   H     H_    0.113717 0.251833 0.461540 0.152196
H20   H     H_    0.386873 0.751482 0.536752 0.151725
H21   H     H_    0.613718 0.751832 0.461540 0.152196
H22   H     H_    0.817248 0.190137 0.429571 0.168084
H23   H     H_    0.113051 0.570121 0.027841 0.131567
H24   H     H_    0.182799 0.190034 0.569383 0.166322
H25   H     H_    0.317248 0.690137 0.429570 0.168087
H26   H     H_    0.682798 0.690033 0.569383 0.166321
H27   H     H_    0.590846 0.271880 0.937992 0.114442
H28   H     H_    0.500833 0.369565 0.043546 0.106998
H29   H     H_    0.090846 0.771880 0.937992 0.114442
H30   H     H_    0.000833 0.869565 0.043546 0.106998
H31   H     H_    0.407771 0.053877 0.061802 0.122257
H32   H     H_    0.499251 0.955342 0.958300 0.150292
H33   H     H_    0.907771 0.553877 0.061802 0.122252
H34   H     H_    0.886229 0.755279 0.972426 0.131645
H35   H     H_    0.999251 0.455343 0.958300 0.150292
H36   H     H_    0.839950 0.044579 0.061094 0.157007
H37   H     H_    0.144328 0.991678 0.928195 0.136067
H38   H     H_    0.339949 0.544581 0.061093 0.157007
H39   H     H_    0.644328 0.491678 0.928195 0.136067
H40   H     H_    0.627929 0.803171 0.873688 0.152890
H41   H     H_    0.373043 0.834285 0.129700 0.149675
H42   H     H_    0.127929 0.303171 0.873688 0.152891
H43   H     H_    0.873043 0.334284 0.129700 0.149670
H44   H     H_    0.840959 0.027436 0.935643 0.149268
H45   H     H_    0.486977 0.337239 0.436320 0.098298
H46   H     H_    0.138099 0.971084 0.053185 0.143630
H47   H     H_    0.340958 0.527438 0.935642 0.149268
H48   H     H_    0.638099 0.471084 0.053185 0.143630
H49   H     H_    0.058478 0.166024 0.940467 0.092931
H50   H     H_    0.960569 0.222772 0.067853 0.115394
H51   H     H_    0.558478 0.666024 0.940467 0.092931
H52   H     H_    0.460569 0.722772 0.067853 0.115394
H53   H     H_    0.073798 0.148890 0.071706 0.093752
H54   H     H_    0.946301 0.184806 0.937479 0.100348
H55   H     H_    0.573798 0.648890 0.071705 0.093751
H56   H     H_    0.512558 0.337150 0.562302 0.098225
H57   H     H_    0.446301 0.684807 0.937479 0.100348
H58   H     H_    0.664208 0.761968 0.134900 0.145166
H59   H     H_    0.349465 0.769446 0.869084 0.143218
H60   H     H_    0.164208 0.261968 0.134900 0.145165
H61   H     H_    0.849465 0.269446 0.869084 0.143218
H62   H     H_    0.621172 0.982085 0.742267 0.360304
H63   H     H_    0.377735 0.983453 0.258154 0.358585
H64   H     H_    0.121174 0.482085 0.742267 0.360305
H65   H     H_    0.877766 0.483474 0.258137 0.358572
H66   H     H_    0.046277 0.068742 0.633996 0.160156
H67   H     H_    0.986977 0.837239 0.436320 0.098297
H68   H     H_    0.990198 0.946229 0.651560 0.132277
H69   H     H_    0.022590 0.150108 0.753303 0.214711
H70   H     H_    0.953429 0.043880 0.765128 0.185191
H71   H     H_    0.039573 0.876654 0.764775 0.177046
H72   H     H_    0.062579 0.985533 0.832086 0.125277
H73   H     H_    0.108759 0.981023 0.749266 0.205220
H74   H     H_    0.954403 0.066896 0.366517 0.157427
H75   H     H_    0.011262 0.946521 0.346014 0.136067
H76   H     H_    0.974554 0.153931 0.247517 0.219205
H77   H     H_    0.044467 0.050452 0.232792 0.180801
H78   H     H_    0.012558 0.837150 0.562303 0.098225
H79   H     H_    0.960938 0.881067 0.231329 0.175014
H80   H     H_    0.932864 0.993904 0.167703 0.133317
H81   H     H_    0.890793 0.980154 0.252525 0.207237
H82   H     H_    0.546277 0.568742 0.633996 0.160157
H83   H     H_    0.490199 0.446229 0.651560 0.132276
H84   H     H_    0.522589 0.650108 0.753304 0.214711
H85   H     H_    0.453429 0.543879 0.765128 0.185191
H86   H     H_    0.539574 0.376654 0.764775 0.177046
H87   H     H_    0.562580 0.485533 0.832086 0.125277
H88   H     H_    0.608759 0.481024 0.749266 0.205220
H89   H     H_    0.020805 0.233766 0.560062 0.193147
H90   H     H_    0.454404 0.566899 0.366517 0.157428
H91   H     H_    0.511261 0.446520 0.346013 0.136068
H92   H     H_    0.474559 0.653936 0.247516 0.219209
H93   H     H_    0.544468 0.550447 0.232791 0.180798
H94   H     H_    0.460941 0.381072 0.231317 0.175013
H95   H     H_    0.432858 0.493922 0.167704 0.133322
H96   H     H_    0.390795 0.480151 0.252530 0.207236
O1    O     O_R   0.788190 0.043000 0.172520 -0.536617
O2    O     O_R   0.454170 0.051610 0.669840 -0.434173
O3    O     O_R   0.045830 0.551610 0.330160 -0.435066
O4    O     O_R   0.954170 0.551610 0.669840 -0.434173
O5    O     O_R   0.681920 0.959720 0.327070 -0.475769
O6    O     O_R   0.318080 0.959720 0.672930 -0.476792
O7    O     O_R   0.181920 0.459720 0.327070 -0.475767
O8    O     O_R   0.818080 0.459720 0.672930 -0.476792
O9    O     O_3   0.668190 0.168190 0.250820 -0.308157
O10   O     O_3   0.331810 0.168190 0.749180 -0.307339
O11   O     O_3   0.168190 0.668190 0.250820 -0.308152
O12   O     O_R   0.211810 0.043000 0.827480 -0.533558
O13   O     O_3   0.831810 0.668190 0.749180 -0.307339
O14   O     O_R   0.766240 0.292300 0.176860 -0.497059
O15   O     O_R   0.233760 0.292300 0.823140 -0.497948
O16   O     O_R   0.266240 0.792300 0.176860 -0.497067
O17   O     O_R   0.733760 0.792300 0.823140 -0.497948
O18   O     O_R   0.670310 0.409160 0.168720 -0.523173
O19   O     O_R   0.329690 0.409160 0.831280 -0.523487
O20   O     O_R   0.170310 0.909160 0.168720 -0.523172
O21   O     O_R   0.829690 0.909160 0.831280 -0.523487
O22   O     O_R   0.556160 0.251900 0.173380 -0.521576
O23   O     O_R   0.288190 0.543000 0.172520 -0.536613
O24   O     O_R   0.443840 0.251900 0.826620 -0.518092
O25   O     O_R   0.056160 0.751900 0.173380 -0.521571
O26   O     O_R   0.943840 0.751900 0.826620 -0.518092
O27   O     O_R   0.545410 0.050140 0.168240 -0.482543
O28   O     O_R   0.454590 0.050140 0.831760 -0.487881
O29   O     O_R   0.045410 0.550140 0.168240 -0.482554
O30   O     O_R   0.954590 0.550140 0.831760 -0.487880
O31   O     O_R   0.681530 0.958350 0.176970 -0.500429
O32   O     O_R   0.318470 0.958350 0.823030 -0.499301
O33   O     O_R   0.181530 0.458350 0.176970 -0.500427
O34   O     O_R   0.711810 0.543000 0.827480 -0.533558
O35   O     O_R   0.818470 0.458350 0.823030 -0.499301
O36   O     O_R   0.788610 0.044480 0.334450 -0.527835
O37   O     O_R   0.211390 0.044480 0.665550 -0.528236
O38   O     O_R   0.288610 0.544480 0.334450 -0.527834
O39   O     O_R   0.711390 0.544480 0.665550 -0.528236
O40   O     O_R   0.766630 0.293670 0.326970 -0.463079
O41   O     O_R   0.233370 0.293670 0.673030 -0.463208
O42   O     O_R   0.266630 0.793670 0.326970 -0.463095
O43   O     O_R   0.733370 0.793670 0.673030 -0.463208
O44   O     O_R   0.670730 0.410640 0.330640 -0.486079
O45   O     O_R   0.556550 0.253260 0.323480 -0.570646
O46   O     O_R   0.329270 0.410640 0.669360 -0.487054
O47   O     O_R   0.170730 0.910640 0.330640 -0.486083
O48   O     O_R   0.829270 0.910640 0.669360 -0.487053
O49   O     O_2   0.498117 0.862301 0.713769 -0.259733
O50   O     O_2   0.600598 0.781830 0.663555 -0.353878
O51   O     O_3   0.602460 0.008092 0.694780 -0.526360
O52   O     O_2   0.501140 0.863977 0.285966 -0.258898
O53   O     O_2   0.399298 0.782534 0.336935 -0.354534
O54   O     O_3   0.396581 0.009095 0.305557 -0.526776
O55   O     O_2   0.998118 0.362302 0.713770 -0.259733
O56   O     O_R   0.443450 0.253260 0.676520 -0.570124
O57   O     O_2   0.100598 0.281830 0.663556 -0.353879
O58   O     O_3   0.102461 0.508093 0.694780 -0.526360
O59   O     O_2   0.001142 0.363973 0.285968 -0.258913
O60   O     O_2   0.899297 0.282534 0.336935 -0.354517
O61   O     O_3   0.896583 0.509095 0.305556 -0.526765
O62   O     O_3   0.940777 0.111708 0.633236 -0.538502
O63   O     O_3   0.059526 0.112065 0.365501 -0.537459
O64   O     O_3   0.440777 0.611708 0.633235 -0.538501
O65   O     O_3   0.559528 0.612064 0.365501 -0.537461
O66   O     O_R   0.056550 0.753260 0.323480 -0.570645
O67   O     O_R   0.943450 0.753260 0.676520 -0.570124
O68   O     O_R   0.545830 0.051610 0.330160 -0.435061
S1    S     S_3+6 0.555535 0.891316 0.663595 -0.010674
S2    S     S_3+6 0.443994 0.892296 0.336528 -0.011731
S3    S     S_3+6 0.055536 0.391317 0.663596 -0.010675
S4    S     S_3+6 0.943995 0.392295 0.336529 -0.011729

loop_
_geom_bond_atom_site_label_1
_geom_bond_atom_site_label_2
_ccdc_geom_bond_type
C105  C110  A    
C24   C61   A    
C21   O40   A    
C10   H20   S    
C53   H80   S    
C110  C118  A    
C121  H2    S    
Cr8   O22   S    
C99   C143  S    
C96   O30   A    
C117  C119  A    
C40   C98   S    
C106  C107  A    
C41   H23   S    
C109  H32   S    
C60   H94   S    
C38   C45   S    
C80   C86   A    
C31   O37   A    
C102  C112  A    
Cr11  O21   S    
C70   C74   A    
C55   H85   S    
C58   O65   S    
C139  H7    S    
Cr3   O3    S    
C68   H37   S    
C59   C60   S    
C98   C109  S    
Cr3   O29   S    
C31   O6    A    
C17   C30   S    
C19   C32   S    
C141  O31   A    
Cr10  O11   S    
C76   O20   A    
C51   C52   S    
Cr7   O13   S    
C137  C146  A    
C42   H34   S    
Cr8   O18   S    
C67   H36   S    
C100  C144  S    
C41   C131  S    
C48   O62   S    
Cr5   O12   S    
C71   H44   S    
Cr6   O11   S    
C47   C131  S    
C37   H29   S    
O53   S2    D    
C39   H1    S    
C6    C10   A    
C37   C38   S    
C77   H41   S    
Cr3   O11   S    
C68   C72   A    
C120  H33   S    
O60   S4    D    
C54   H83   S    
C20   C33   S    
C45   C120  S    
C128  C150  A    
C13   C73   A    
C92   H61   S    
C82   C84   A    
C130  C152  A    
C122  H3    S    
Cr12  O27   S    
Cr9   O46   S    
C141  O1    A    
C57   C78   A    
C46   C77   A    
C85   C90   A    
Cr9   O10   S    
C4    C150  A    
C5    C151  A    
C22   O46   A    
C106  C115  A    
C86   C91   A    
C60   H96   S    
C90   H59   S    
C52   H77   S    
C79   H43   S    
C58   H90   S    
C81   C88   A    
C44   C94   S    
C82   H51   S    
C33   O39   A    
C69   C100  A    
C125  C129  A    
C39   C109  S    
C19   C139  A    
C41   C45   S    
C17   C137  A    
C18   C31   S    
C64   C91   A    
Cr5   O37   S    
C91   H60   S    
Cr2   O10   S    
Cr6   O42   S    
Cr12  O9    S    
C116  C123  A    
C111  C112  A    
C111  H45   S    
C83   H52   S    
C70   C101  A    
O57   S3    D    
C101  C145  S    
C105  C113  A    
C78   C80   A    
C13   C57   A    
O59   S4    D    
C56   H87   S    
C146  H14   S    
C63   C99   A    
Cr4   O4    S    
Cr12  O68   S    
Cr2   O28   S    
C37   C47   S    
Cr1   O1    S    
C8    C12   A    
C15   H25   S    
Cr11  O26   S    
C69   H38   S    
C151  H10   S    
C145  O35   A    
C66   C101  A    
Cr10  O47   S    
Cr7   O39   S    
C93   O22   A    
C119  C121  A    
C139  C148  A    
C33   O8    A    
Cr11  O67   S    
C34   C39   S    
C40   H12   S    
C32   O38   A    
C66   C92   A    
C27   O2    A    
C124  C146  A    
C29   C104  S    
C116  S2    S    
C5    C9    A    
C49   H70   S    
C147  H15   S    
C62   C97   A    
Cr4   O8    S    
C132  C136  A    
C144  O23   A    
C112  H56   S    
Cr4   O30   S    
C30   O5    A    
C20   C136  A    
C50   H72   S    
C1    O14   A    
C123  H4    S    
C114  H78   S    
C55   H84   S    
Cr7   O17   S    
O58   S3    S    
C16   C136  A    
O55   S3    D    
C52   C53   S    
C54   C55   S    
Cr4   O35   S    
C36   H28   S    
C108  C117  A    
C73   H47   S    
C50   H73   S    
H64   O58   S    
C53   H79   S    
C103  C107  A    
C75   C82   A    
C80   H49   S    
C28   O3    A    
C27   C102  S    
C46   C63   A    
C27   O56   A    
C6    O64   S    
C127  C149  A    
C42   C120  S    
C61   C79   A    
C108  C110  A    
C18   C134  A    
C51   H74   S    
C34   C36   S    
C95   O29   A    
C37   C41   S    
C107  C116  A    
C52   H76   S    
C35   C142  A    
C143  O32   A    
C40   C44   S    
C150  H9    S    
C1    C24   S    
C49   C50   S    
C85   H57   S    
C140  C149  A    
C45   C95   S    
C55   C56   S    
C65   O15   A    
C120  C131  S    
C23   O47   A    
C130  C135  A    
C30   O36   A    
Cr8   O9    S    
C129  C151  A    
C3    C7    A    
C145  O34   A    
Cr8   O45   S    
C126  C130  A    
C19   C135  A    
C62   C89   A    
C29   O4    A    
C32   O7    A    
C103  C111  A    
Cr11  O48   S    
C18   C138  A    
Cr6   O38   S    
C117  S3    S    
C152  H11   S    
C56   H86   S    
C7    O65   S    
C96   O26   A    
C47   C96   S    
Cr7   O34   S    
C69   C73   A    
C124  C128  A    
C6    C152  A    
C44   C109  S    
C148  H16   S    
C149  H17   S    
C2    C72   A    
C113  H67   S    
Cr1   O36   S    
O49   S1    D    
Cr9   O24   S    
C3    C132  A    
Cr9   O19   S    
C93   O27   A    
C126  C148  A    
C51   O63   S    
C58   C59   S    
C95   O25   A    
H63   O54   S    
C38   H30   S    
C74   H48   S    
C9    C14   A    
C78   H42   S    
C9    H19   S    
C26   C103  S    
C14   H24   S    
C11   C16   A    
Cr10  O66   S    
C28   C105  S    
C5    O63   S    
C12   H22   S    
C58   H91   S    
Cr7   O43   S    
Cr8   O44   S    
C97   C141  S    
Cr4   O13   S    
C16   H26   S    
C115  S1    S    
Cr6   O23   S    
C83   C85   A    
C125  C147  A    
C104  C108  A    
C2    C76   S    
C113  C114  A    
Cr11  O13   S    
C8    H18   S    
C70   H39   S    
Cr10  O20   S    
C59   H92   S    
Cr5   O15   S    
C94   O28   A    
Cr6   O16   S    
C21   O44   A    
C20   C140  A    
C1    O18   A    
C23   O42   A    
C56   H88   S    
Cr2   O32   S    
C43   C93   S    
Cr9   O56   S    
C67   C71   A    
C54   H82   S    
C87   C142  S    
C67   C97   A    
C129  C134  A    
O51   S1    S    
Cr10  O25   S    
C64   C100  A    
C59   H93   S    
C36   C43   S    
C51   H75   S    
C118  S4    S    
C138  H6    S    
C43   C98   S    
C4    C8    A    
C13   C65   S    
C2    C46   A    
C7    C11   A    
C35   C75   A    
O61   S4    S    
Cr3   O33   S    
Cr2   O2    S    
C60   H95   S    
C34   H27   S    
C38   C42   S    
C10   C15   A    
C22   C126  S    
C15   C135  A    
C77   C83   A    
C76   O16   A    
C87   O17   A    
C127  C132  A    
C49   H69   S    
C61   C66   A    
C72   H46   S    
C88   C92   A    
C88   H54   S    
C65   O19   A    
Cr1   O14   S    
C21   C127  S    
C144  O33   A    
C137  H5    S    
C23   C125  S    
C48   H66   S    
C25   O48   A    
C140  H8    S    
C115  C122  A    
C4    O62   S    
C119  H89   S    
H65   O61   S    
C28   O66   A    
O52   S2    D    
C143  O12   A    
C36   C40   S    
C22   O41   A    
C34   C44   S    
C89   H58   S    
C79   C81   A    
C39   C43   S    
C14   C134  A    
C29   O67   A    
C118  C121  A    
C131  H35   S    
C87   O21   A    
C84   H55   S    
O50   S1    D    
C26   O68   A    
C81   H50   S    
C138  C147  A    
C86   H53   S    
C71   C142  A    
C104  C114  A    
Cr1   O40   S    
C12   C133  A    
C54   O64   S    
C84   C89   A    
O54   S2    S    
C57   C64   A    
C94   O24   A    
H62   O51   S    
C48   C49   S    
C11   H21   S    
Cr1   O9    S    
Cr5   O41   S    
Cr2   O6    S    
Cr12  O31   S    
C75   H40   S    
Cr12  O5    S    
C25   O43   A    
C3    H13   S    
C68   C99   A    
C128  C133  A    
C17   C133  A    
C24   C74   A    
Cr5   O10   S    
C63   C90   A    
C98   H31   S    
C102  C106  A    
C35   C62   A    
C42   C47   S    
C50   H71   S    
C25   C124  S    
C53   H81   S    
C48   H68   S    
C26   O45   A    
C122  C123  A    
Cr3   O7    S    
