data_mof_unit_6084.cif
_audit_creation_date              2012-10-26T19:45:30-0400
_audit_creation_method            fapswitch 2.2
_symmetry_space_group_name_H-M    P1
_symmetry_Int_Tables_number       1
_space_group_crystal_system       triclinic
_cell_length_a                    10.939033
_cell_length_b                    9.553825
_cell_length_c                    10.857192
_cell_angle_alpha                 90.025227
_cell_angle_beta                  93.682983
_cell_angle_gamma                 90.337954
_cell_volume                      1132.31737893

loop_
_atom_site_label
_atom_site_type_symbol
_atom_type_description
_atom_site_fract_x
_atom_site_fract_y
_atom_site_fract_z
_atom_type_partial_charge
C1    C     C_R   0.262213 0.499465 0.505795 0.532691
C2    C     C_R   0.420054 0.925321 0.423102 0.013267
C3    C     C_R   0.581997 0.925922 0.577736 0.135614
C4    C     C_R   0.583422 0.075107 0.576301 0.132927
C5    C     C_R   0.490397 0.499488 0.260131 0.589899
C6    C     C_R   0.736988 0.500530 0.492930 0.604379
C7    C     C_R   0.488079 0.499627 0.738902 0.532390
C8    C     C_3   0.415654 0.633804 0.069396 0.429860
C9    C     C_3   0.409873 0.363407 0.069539 0.448798
C10   C     C_3   0.394357 0.621961 0.924170 0.244097
C11   C     C_3   0.423397 0.350696 0.925157 0.265217
C12   C     C_3   0.617492 0.516132 0.935994 0.427071
C13   C     C_3   0.619236 0.493598 0.080322 0.424111
C14   C     C_3   0.483453 0.497581 0.121721 0.077005
C15   C     C_3   0.481284 0.497667 0.877480 -0.024625
C16   C     C_3   0.673309 0.854355 0.668242 -0.290767
C17   C     C_3   0.683972 0.148304 0.656390 -0.319871
C18   C     C_3   0.405495 0.771123 0.865978 -0.313860
C19   C     C_3   0.495314 0.213549 0.897598 -0.293786
C20   C     C_3   0.118380 0.227995 0.517034 -0.362417
C21   C     C_3   0.125581 0.761248 0.565265 -0.363324
C22   C     C_R   0.059906 0.370530 0.496016 -0.023353
C23   C     C_R   0.063248 0.627175 0.518587 -0.027368
C24   C     C_R   0.932451 0.375069 0.473067 0.192988
C25   C     C_R   0.935726 0.628626 0.496224 0.206723
C26   C     C_R   0.870398 0.501678 0.486397 0.077601
C27   C     C_R   0.127301 0.498519 0.509652 -0.014568
C28   C     C_R   0.419831 0.073573 0.423370 0.019597
Cu1   Cu    Cu3+1 0.500020 0.640660 0.500000 0.970289
Cu2   Cu    Cu3+1 0.500020 0.359340 0.500000 0.948190
H1    H     H_    0.356140 0.128727 0.360866 0.110758
H2    H     H_    0.773679 0.132355 0.616629 0.174181
H3    H     H_    0.310771 0.684855 0.204846 0.319925
H4    H     H_    0.276783 0.370336 0.182555 0.320734
H5    H     H_    0.256222 0.576099 0.805944 0.315967
H6    H     H_    0.310457 0.317543 0.778330 0.318311
H7    H     H_    0.497982 0.816518 0.873281 0.140248
H8    H     H_    0.370053 0.775083 0.768380 0.133613
H9    H     H_    0.345277 0.844747 0.912722 0.144292
H10   H     H_    0.589349 0.210191 0.940609 0.232350
H11   H     H_    0.446453 0.121208 0.932940 0.131044
H12   H     H_    0.355818 0.869365 0.361044 0.096533
H13   H     H_    0.495279 0.187838 0.799162 0.127992
H14   H     H_    0.777369 0.583445 0.123402 0.367899
H15   H     H_    0.697103 0.361104 0.199776 0.372457
H16   H     H_    0.652262 0.719659 0.967050 0.376075
H17   H     H_    0.723093 0.449422 0.807663 0.347968
H18   H     H_    0.182241 0.229600 0.600611 0.156124
H19   H     H_    0.050677 0.145251 0.536636 0.135618
H20   H     H_    0.165725 0.196049 0.434384 0.130064
H21   H     H_    0.193834 0.738306 0.642091 0.142657
H22   H     H_    0.169006 0.815778 0.488965 0.132787
H23   H     H_    0.435718 0.835264 0.109274 0.327755
H24   H     H_    0.060719 0.834436 0.605906 0.143358
H25   H     H_    0.918174 0.200405 0.381253 0.334810
H26   H     H_    0.926293 0.822536 0.441966 0.330054
H27   H     H_    0.388605 0.168915 0.125346 0.327194
H28   H     H_    0.672987 0.741380 0.671078 0.239251
H29   H     H_    0.768052 0.885597 0.649402 0.153690
H30   H     H_    0.656164 0.885569 0.763636 0.097356
H31   H     H_    0.672238 0.258928 0.671966 0.208973
H32   H     H_    0.690204 0.107537 0.751838 0.079406
N1    N     N_R   0.500030 0.852070 0.500030 -0.224125
N2    N     N_R   0.500030 0.147930 0.500030 -0.220325
O1    O     O_R   0.319660 0.618740 0.499990 -0.533470
O2    O     O_3   0.454682 0.240893 0.130176 -0.684522
O3    O     O_3   0.299675 0.647287 0.119813 -0.617173
O4    O     O_3   0.284459 0.377555 0.092126 -0.562767
O5    O     O_3   0.270404 0.584536 0.896945 -0.559042
O6    O     O_3   0.304763 0.328466 0.868492 -0.617189
O7    O     O_3   0.691102 0.597608 0.143935 -0.653408
O8    O     O_3   0.671299 0.361735 0.110424 -0.628016
O9    O     O_3   0.665265 0.648470 0.903616 -0.724742
O10   O     O_3   0.694340 0.414621 0.887069 -0.651932
O11   O     O_3   0.866724 0.257473 0.433688 -0.691702
O12   O     O_R   0.319660 0.381260 0.499990 -0.532281
O13   O     O_3   0.873279 0.753463 0.481392 -0.684585
O14   O     O_R   0.499990 0.618790 0.317690 -0.447721
O15   O     O_R   0.499990 0.381210 0.317690 -0.465429
O16   O     O_R   0.680370 0.618830 0.500010 -0.453009
O17   O     O_R   0.680370 0.381170 0.500010 -0.475863
O18   O     O_R   0.500030 0.618780 0.682310 -0.528720
O19   O     O_R   0.500030 0.381220 0.682310 -0.554915
O20   O     O_3   0.489146 0.752257 0.102953 -0.697287

loop_
_geom_bond_atom_site_label_1
_geom_bond_atom_site_label_2
_ccdc_geom_bond_type
C7    O19   A    
Cu1   N1    S    
Cu2   N2    S    
H27   O2    S    
C18   H9    S    
C11   O6    S    
C11   C19   S    
Cu1   Cu2   S    
H23   O20   S    
C25   O13   S    
C18   H7    S    
C10   C18   S    
C12   O10   S    
C10   C15   S    
C21   H24   S    
H14   O7    S    
C16   H30   S    
Cu2   O19   S    
C9    O2    S    
C20   H20   S    
C17   H31   S    
C11   C15   S    
Cu1   O14   S    
H6    O6    S    
C1    O1    A    
C23   C27   A    
C5    O15   A    
H25   O11   S    
C7    C15   S    
C6    O17   A    
C12   O9    S    
H15   O8    S    
C19   H13   S    
H4    O4    S    
C13   O7    S    
C25   C26   A    
H26   O13   S    
C16   H29   S    
C9    C14   S    
C20   H19   S    
C17   H32   S    
Cu2   O12   S    
C6    O16   A    
C12   C15   S    
C16   H28   S    
C9    C11   S    
C5    C14   S    
C20   H18   S    
Cu1   O1    S    
Cu2   O15   S    
C28   N2    A    
C20   C22   S    
C22   C27   A    
C21   C23   S    
C22   C24   A    
C4    C17   S    
C3    C4    A    
C21   H21   S    
C2    N1    A    
H3    O3    S    
C8    C14   S    
C8    O20   S    
C1    O12   A    
C28   H1    S    
H17   O10   S    
C24   C26   A    
C24   O11   S    
C13   O8    S    
C3    N1    A    
C4    N2    A    
Cu2   O17   S    
C18   H8    S    
C9    O4    S    
Cu1   O18   S    
C6    C26   S    
Cu1   O16   S    
C2    H12   S    
H16   O9    S    
C23   C25   A    
C19   H10   S    
C10   O5    S    
C7    O18   A    
C12   C13   S    
H5    O5    S    
C8    O3    S    
C8    C10   S    
C1    C27   S    
C17   H2    S    
C2    C28   A    
C5    O14   A    
C13   C14   S    
C21   H22   S    
C3    C16   S    
C19   H11   S    
