data_mof_unit_20946.cif
_audit_creation_date              2012-12-11T16:51:28-0500
_audit_creation_method            fapswitch 2.2
_symmetry_space_group_name_H-M    P1
_symmetry_Int_Tables_number       1
_space_group_crystal_system       triclinic
_cell_length_a                    24.455876
_cell_length_b                    17.26142
_cell_length_c                    15.537387
_cell_angle_alpha                 90.241699
_cell_angle_beta                  128.91583
_cell_angle_gamma                 89.747666
_cell_volume                      5103.30139662

loop_
_atom_site_label
_atom_site_type_symbol
_atom_type_description
_atom_site_fract_x
_atom_site_fract_y
_atom_site_fract_z
_atom_type_partial_charge
C1    C     C_R   0.846414 0.863634 0.230125 -0.123647
C2    C     C_R   0.184477 0.117487 0.502899 0.061352
C3    C     C_R   0.959693 0.546380 0.999550 -0.063178
C4    C     C_R   0.909328 0.593152 0.989735 -0.120032
C5    C     C_R   0.865699 0.640660 0.897175 -0.198922
C6    C     C_R   0.182634 0.679145 0.285169 0.205550
C7    C     C_R   0.176593 0.656693 0.366005 -0.135079
C8    C     C_R   0.153748 0.582360 0.364391 -0.117688
C9    C     C_R   0.137953 0.529067 0.283780 -0.094818
C10   C     C_R   0.143514 0.550700 0.203019 -0.109662
C11   C     C_R   0.164745 0.625657 0.202636 -0.168774
C12   C     C_R   0.365127 0.149098 0.815386 0.200977
C13   C     C_R   0.358694 0.685868 0.499216 0.054014
C14   C     C_R   0.372933 0.068447 0.811853 -0.175794
C15   C     C_R   0.406162 0.023988 0.907814 -0.141792
C16   C     C_R   0.433188 0.059472 0.008395 -0.042707
C17   C     C_R   0.427472 0.139569 0.013434 -0.120545
C18   C     C_R   0.393093 0.184096 0.917351 -0.181142
C19   C     C_R   0.633018 0.143422 0.184023 0.196311
C20   C     C_R   0.625082 0.063098 0.188519 -0.171724
C21   C     C_R   0.592067 0.017662 0.093145 -0.141704
C22   C     C_R   0.565762 0.051856 0.992376 -0.047816
C23   C     C_R   0.571864 0.131670 0.986486 -0.114416
C24   C     C_R   0.684375 0.615236 0.502114 0.066824
C25   C     C_R   0.605750 0.177153 0.081875 -0.180036
C26   C     C_R   0.825119 0.837825 0.693390 0.205296
C27   C     C_R   0.863272 0.895226 0.775047 -0.175066
C28   C     C_R   0.830697 0.964375 0.768023 -0.127936
C29   C     C_R   0.759710 0.976784 0.679541 -0.076482
C30   C     C_R   0.721528 0.920941 0.596604 -0.122805
C31   C     C_R   0.753785 0.851695 0.603326 -0.141400
C32   C     C_R   0.139327 0.886120 0.196797 0.202627
C33   C     C_R   0.067673 0.905843 0.122182 -0.182039
C34   C     C_R   0.044812 0.966609 0.047348 -0.134645
C35   C     C_R   0.855876 0.133780 0.143058 0.149210
C36   C     C_R   0.092887 0.007340 0.044644 -0.094301
C37   C     C_R   0.163981 0.987351 0.116530 -0.123915
C38   C     C_R   0.187298 0.927236 0.192460 -0.145357
C39   C     C_R   0.333655 0.340883 0.689246 0.202115
C40   C     C_R   0.376062 0.400483 0.764502 -0.189261
C41   C     C_R   0.349223 0.475490 0.747680 -0.102058
C42   C     C_R   0.279569 0.491488 0.656573 -0.073677
C43   C     C_R   0.236634 0.432453 0.582208 -0.123150
C44   C     C_R   0.263397 0.357699 0.597865 -0.132588
C45   C     C_R   0.665997 0.336148 0.304359 0.200424
C46   C     C_R   0.143658 0.134765 0.856488 0.152437
C47   C     C_R   0.626729 0.390682 0.218771 -0.181929
C48   C     C_R   0.657053 0.460743 0.223730 -0.125171
C49   C     C_R   0.726807 0.476941 0.314012 -0.085041
C50   C     C_R   0.765725 0.424357 0.401187 -0.116010
C51   C     C_R   0.735756 0.354179 0.396572 -0.136148
C52   C     C_R   0.354571 0.626999 0.137419 0.153639
C53   C     C_R   0.645899 0.630113 0.860728 0.152117
C54   C     C_R   0.841519 0.723676 0.604828 0.052348
C55   C     C_R   0.227874 0.846656 0.396228 0.074589
C56   C     C_R   0.346606 0.219123 0.607525 0.071259
C57   C     C_R   0.153978 0.862999 0.765700 -0.127370
C58   C     C_R   0.653328 0.217892 0.392291 0.069785
C59   C     C_R   0.820554 0.753470 0.504763 0.060228
C60   C     C_R   0.240680 0.865522 0.495281 0.041550
C61   C     C_R   0.328598 0.245091 0.507221 0.046670
C62   C     C_R   0.672017 0.245609 0.492448 0.052225
C63   C     C_R   0.771003 0.711972 0.407190 -0.209318
C64   C     C_R   0.308414 0.849833 0.594712 -0.200199
C65   C     C_R   0.278339 0.202833 0.410632 -0.198150
C66   C     C_R   0.722429 0.204213 0.589593 -0.211315
C67   C     C_R   0.235678 0.149557 0.411182 -0.186183
C68   C     C_R   0.340151 0.373280 0.216898 -0.131113
C69   C     C_R   0.765120 0.150494 0.589546 -0.202087
C70   C     C_R   0.731237 0.654932 0.407833 -0.211529
C71   C     C_R   0.352451 0.797537 0.594907 -0.194937
C72   C     C_R   0.244248 0.138527 0.508725 0.033340
C73   C     C_R   0.755406 0.136728 0.491543 0.048933
C74   C     C_R   0.742911 0.638292 0.506688 0.058177
C75   C     C_R   0.328309 0.759863 0.496162 0.052191
C76   C     C_R   0.306949 0.163796 0.609237 0.061246
C77   C     C_R   0.692155 0.160794 0.390778 0.051279
C78   C     C_R   0.805746 0.663547 0.606954 0.052126
C79   C     C_R   0.660161 0.373644 0.783589 -0.131745
C80   C     C_R   0.268694 0.790955 0.396819 0.050189
C81   C     C_3   0.822998 0.693392 0.713344 -0.257002
C82   C     C_3   0.207810 0.759574 0.285001 -0.269263
C83   C     C_3   0.321721 0.198408 0.711587 -0.263470
C84   C     C_3   0.676591 0.193467 0.287168 -0.257902
C85   C     C_R   0.114617 0.900325 0.407388 -0.154883
C86   C     C_R   0.903829 0.864879 0.592970 -0.109733
C87   C     C_R   0.591230 0.359704 0.406807 -0.103132
C88   C     C_R   0.410238 0.358373 0.592495 -0.094364
C89   C     C_3   0.860571 0.760714 0.708259 -0.264622
C90   C     C_R   0.884072 0.102517 0.590638 -0.114097
C91   C     C_3   0.163466 0.823454 0.282458 -0.260730
C92   C     C_3   0.364533 0.260100 0.708314 -0.270006
C93   C     C_3   0.634416 0.256753 0.289987 -0.270714
C94   C     C_2   0.152053 0.754686 0.872756 -0.218723
C95   C     C_2   0.854087 0.750784 0.133770 -0.218998
C96   C     C_2   0.661193 0.270647 0.897951 -0.219243
C97   C     C_2   0.339256 0.269296 0.103120 -0.220455
C98   C     C_2   0.197991 0.710178 0.875552 -0.116907
C99   C     C_2   0.805082 0.709104 0.125734 -0.115230
C100  C     C_2   0.699637 0.221389 0.888916 -0.115284
C101  C     C_R   0.115703 0.103127 0.409419 -0.121496
C102  C     C_2   0.300467 0.220845 0.111805 -0.111451
C103  C     C_2   0.810176 0.164083 0.030915 -0.220622
C104  C     C_2   0.189312 0.165220 0.968742 -0.233985
C105  C     C_2   0.309000 0.654510 0.023365 -0.221167
C106  C     C_2   0.692403 0.657766 0.974953 -0.222786
C107  C     C_2   0.740669 0.163602 0.973363 -0.117335
C108  C     C_2   0.258886 0.163387 0.026814 -0.125353
C109  C     C_2   0.239291 0.654780 0.964552 -0.112122
C110  C     C_2   0.762118 0.656253 0.033251 -0.113704
C111  C     C_R   0.188311 0.897936 0.590268 -0.133639
C112  C     C_R   0.409586 0.642482 0.592217 -0.123718
C113  C     C_R   0.827347 0.866253 0.408926 -0.136975
C114  C     C_R   0.668179 0.360960 0.590641 -0.128563
C115  C     C_R   0.332337 0.360471 0.409056 -0.123030
C116  C     C_R   0.066054 0.866438 0.775008 -0.145053
C117  C     C_R   0.940549 0.861818 0.235980 -0.147121
C118  C     C_R   0.570129 0.375420 0.786815 -0.157627
C119  C     C_R   0.430378 0.374188 0.214139 -0.155561
C120  C     C_R   0.879803 0.822363 0.197983 0.152480
C121  C     C_R   0.125068 0.825278 0.807083 0.152629
C122  C     C_R   0.367719 0.338155 0.171856 0.152127
C123  C     C_R   0.615418 0.602352 0.408966 -0.116775
C124  C     C_R   0.632914 0.339364 0.829326 0.154110
C125  C     C_R   0.183200 0.884479 0.497556 0.065599
C126  C     C_R   0.847975 0.826226 0.501850 0.067039
C127  C     C_R   0.645178 0.318949 0.497238 0.059460
C128  C     C_R   0.356018 0.317813 0.502058 0.056535
C129  C     C_R   0.811135 0.099279 0.407215 -0.160818
C130  C     C_R   0.188514 0.100761 0.592920 -0.155649
C131  C     C_R   0.338653 0.643701 0.407866 -0.098916
C132  C     C_R   0.689044 0.598175 0.592472 -0.158070
C133  C     C_R   0.925363 0.111520 0.201918 -0.152155
C134  C     C_R   0.815118 0.115918 0.497209 0.064607
C135  C     C_R   0.074182 0.112669 0.797366 -0.150439
C136  C     C_R   0.424942 0.608327 0.199831 -0.149734
C137  C     C_R   0.576211 0.608747 0.801088 -0.162475
C138  C     C_R   0.164789 0.113256 0.795467 -0.121453
C139  C     C_R   0.834986 0.112933 0.204395 -0.120559
C140  C     C_R   0.665806 0.610738 0.797544 -0.118286
C141  C     C_R   0.333668 0.606973 0.198874 -0.140421
C142  C     C_R   0.871811 0.641595 0.813097 0.201720
C143  C     C_R   0.923834 0.595337 0.824968 -0.142706
C144  C     C_R   0.967287 0.547856 0.917670 -0.137888
H1    H     H_    0.794410 0.853583 0.203320 0.084097
H2    H     H_    0.283362 0.132369 0.998030 0.138854
H3    H     H_    0.767650 0.313148 0.463351 0.120568
H4    H     H_    0.918426 0.760443 0.776466 0.131953
H5    H     H_    0.120498 0.800313 0.280971 0.134171
H6    H     H_    0.421922 0.256491 0.778802 0.129822
H7    H     H_    0.576892 0.253219 0.220288 0.129596
H8    H     H_    0.214389 0.626836 0.994321 0.124295
H9    H     H_    0.786052 0.627723 0.001963 0.124752
H10   H     H_    0.213525 0.723082 0.825271 0.128523
H11   H     H_    0.788144 0.723764 0.173836 0.125008
H12   H     H_    0.709767 0.231290 0.830989 0.126861
H13   H     H_    0.290490 0.231281 0.169919 0.126731
H14   H     H_    0.833808 0.195187 0.000906 0.128933
H15   H     H_    0.165753 0.197181 0.998618 0.130996
H16   H     H_    0.333071 0.683514 0.992645 0.126986
H17   H     H_    0.202143 0.849700 0.779528 0.089485
H18   H     H_    0.669092 0.686844 0.007210 0.125089
H19   H     H_    0.137394 0.741559 0.924275 0.131153
H20   H     H_    0.870747 0.736014 0.085275 0.133504
H21   H     H_    0.651466 0.260691 0.956318 0.131555
H22   H     H_    0.348617 0.258959 0.044321 0.132882
H23   H     H_    0.094951 0.911510 0.324347 0.104015
H24   H     H_    0.929634 0.852764 0.677809 0.093150
H25   H     H_    0.562897 0.344482 0.322078 0.095447
H26   H     H_    0.439674 0.341728 0.676836 0.094596
H27   H     H_    0.236107 0.902772 0.674656 0.083326
H28   H     H_    0.287621 0.366551 0.189773 0.084660
H29   H     H_    0.780909 0.856497 0.325063 0.084391
H30   H     H_    0.712817 0.348153 0.674681 0.086864
H31   H     H_    0.287383 0.347787 0.325132 0.084102
H32   H     H_    0.037415 0.856978 0.805449 0.092969
H33   H     H_    0.977872 0.846553 0.223153 0.094898
H34   H     H_    0.541424 0.369782 0.817957 0.083730
H35   H     H_    0.459182 0.367663 0.183247 0.084054
H36   H     H_    0.764834 0.088804 0.323679 0.111430
H37   H     H_    0.234857 0.091795 0.676767 0.109692
H38   H     H_    0.304051 0.661926 0.323170 0.101569
H39   H     H_    0.712656 0.366569 0.810529 0.087454
H40   H     H_    0.736016 0.586747 0.675533 0.111148
H41   H     H_    0.955290 0.110929 0.172302 0.094985
H42   H     H_    0.043607 0.113665 0.825718 0.086363
H43   H     H_    0.455566 0.607076 0.171455 0.090899
H44   H     H_    0.547411 0.606058 0.832538 0.090056
H45   H     H_    0.216946 0.114776 0.819617 0.093751
H46   H     H_    0.782853 0.114569 0.180365 0.093378
H47   H     H_    0.717957 0.610837 0.821859 0.085632
H48   H     H_    0.280671 0.603765 0.170887 0.082266
H49   H     H_    0.904039 0.099581 0.675409 0.085917
H50   H     H_    0.775923 0.712196 0.703986 0.142004
H51   H     H_    0.095897 0.100177 0.324707 0.090049
H52   H     H_    0.437540 0.657587 0.677932 0.090258
H53   H     H_    0.594897 0.600021 0.323869 0.087496
H54   H     H_    0.757181 0.728887 0.328723 0.118514
H55   H     H_    0.324303 0.869381 0.673662 0.116179
H56   H     H_    0.266367 0.216918 0.332582 0.119013
H57   H     H_    0.734954 0.219620 0.667771 0.120162
H58   H     H_    0.191244 0.125398 0.333087 0.128858
H59   H     H_    0.810508 0.128301 0.668221 0.123289
H60   H     H_    0.686115 0.632424 0.329151 0.122673
H61   H     H_    0.215947 0.767059 0.222611 0.131978
H62   H     H_    0.400872 0.780239 0.673730 0.119691
H63   H     H_    0.930798 0.595726 0.762722 0.111594
H64   H     H_    0.006811 0.512084 0.925941 0.104389
H65   H     H_    0.992920 0.509126 0.070763 0.101251
H66   H     H_    0.904120 0.592541 0.053932 0.108640
H67   H     H_    0.827243 0.676984 0.891194 0.104512
H68   H     H_    0.189291 0.696662 0.430087 0.116373
H69   H     H_    0.148190 0.566370 0.425715 0.102017
H70   H     H_    0.120858 0.471235 0.283343 0.095286
H71   H     H_    0.130849 0.509533 0.140137 0.097155
H72   H     H_    0.273858 0.221667 0.696491 0.142983
H73   H     H_    0.168132 0.641659 0.138800 0.091463
H74   H     H_    0.351535 0.039293 0.734771 0.114788
H75   H     H_    0.411052 0.961935 0.904211 0.100347
H76   H     H_    0.459194 0.024960 0.082660 0.097873
H77   H     H_    0.448994 0.167045 0.091617 0.106801
H78   H     H_    0.387412 0.245900 0.922006 0.112005
H79   H     H_    0.646172 0.034968 0.265902 0.114160
H80   H     H_    0.586917 0.955834 0.097372 0.103382
H81   H     H_    0.540042 0.016574 0.918633 0.099464
H82   H     H_    0.551070 0.158187 0.908246 0.107846
H83   H     H_    0.724268 0.215699 0.301173 0.144945
H84   H     H_    0.611792 0.238665 0.076609 0.112204
H85   H     H_    0.917963 0.885764 0.845113 0.106487
H86   H     H_    0.860227 0.008011 0.831847 0.098741
H87   H     H_    0.734147 0.029568 0.675414 0.114615
H88   H     H_    0.666607 0.930844 0.527829 0.112532
H89   H     H_    0.722701 0.808467 0.539421 0.121102
H90   H     H_    0.029545 0.875105 0.123100 0.101069
H91   H     H_    0.989866 0.982680 0.992139 0.103946
H92   H     H_    0.075092 0.054713 0.987376 0.095752
H93   H     H_    0.201161 0.019004 0.114227 0.124780
H94   H     H_    0.716094 0.133658 0.002368 0.136813
H95   H     H_    0.242814 0.913488 0.248541 0.113877
H96   H     H_    0.430151 0.389070 0.835659 0.093810
H97   H     H_    0.382422 0.521197 0.805459 0.098430
H98   H     H_    0.258805 0.549520 0.643887 0.097617
H99   H     H_    0.182438 0.444272 0.512372 0.103067
H100  H     H_    0.229247 0.313045 0.538716 0.117209
H101  H     H_    0.573203 0.378096 0.146737 0.095517
H102  H     H_    0.626871 0.501872 0.156576 0.101860
H103  H     H_    0.750979 0.529960 0.316046 0.114300
H104  H     H_    0.819643 0.437282 0.471353 0.113267
N1    N     N_R   0.888400 0.921830 0.294620 -0.043919
N2    N     N_R   0.874350 0.922400 0.443380 -0.037825
N3    N     N_R   0.625650 0.422400 0.556620 -0.039436
N4    N     N_R   0.374350 0.422400 0.443380 -0.039833
N5    N     N_R   0.054230 0.922730 0.705400 -0.042175
N6    N     N_R   0.945770 0.922730 0.294600 -0.042266
N7    N     N_R   0.554230 0.422730 0.705400 -0.039999
N8    N     N_R   0.445770 0.422730 0.294600 -0.039933
N9    N     N_R   0.873790 0.077030 0.443380 -0.039128
N10   N     N_R   0.126210 0.077030 0.556620 -0.037642
N11   N     N_R   0.373790 0.577030 0.443380 -0.042547
N12   N     N_R   0.111600 0.921830 0.705380 -0.044857
N13   N     N_R   0.626210 0.577030 0.556620 -0.040191
N14   N     N_R   0.945200 0.076700 0.294600 -0.042046
N15   N     N_R   0.054800 0.076700 0.705400 -0.041708
N16   N     N_R   0.445200 0.576700 0.294600 -0.041449
N17   N     N_R   0.554800 0.576700 0.705400 -0.040676
N18   N     N_R   0.111030 0.077600 0.705380 -0.045969
N19   N     N_R   0.888970 0.077600 0.294620 -0.045558
N20   N     N_R   0.611030 0.577600 0.705380 -0.044626
N21   N     N_R   0.388970 0.577600 0.294620 -0.045673
N22   N     N_R   0.919490 0.077280 0.556590 -0.040383
N23   N     N_R   0.388400 0.421830 0.294620 -0.042027
N24   N     N_R   0.080510 0.077280 0.443410 -0.038005
N25   N     N_R   0.419490 0.577280 0.556590 -0.040572
N26   N     N_R   0.580510 0.577280 0.443410 -0.041014
N27   N     N_R   0.611600 0.421830 0.705380 -0.042310
N28   N     N_R   0.079940 0.922160 0.443410 -0.036514
N29   N     N_R   0.920060 0.922160 0.556590 -0.040880
N30   N     N_R   0.579940 0.422160 0.443410 -0.041289
N31   N     N_R   0.420060 0.422160 0.556590 -0.042145
N32   N     N_R   0.125650 0.922400 0.556620 -0.036771
Ni1   Ni    Ni4+2 0.882160 0.999430 0.370180 0.211005
Ni2   Ni    Ni4+2 0.117840 0.999430 0.629820 0.207513
Ni3   Ni    Ni4+2 0.382160 0.499430 0.370180 0.216712
Ni4   Ni    Ni4+2 0.617840 0.499430 0.629820 0.210829
Ni5   Ni    Ni4+2 0.012460 0.999430 0.370180 0.209451
Ni6   Ni    Ni4+2 0.987540 0.999430 0.629820 0.213496
Ni7   Ni    Ni4+2 0.512460 0.499430 0.370180 0.212533
Ni8   Ni    Ni4+2 0.487540 0.499430 0.629820 0.216310

loop_
_geom_bond_atom_site_label_1
_geom_bond_atom_site_label_2
_ccdc_geom_bond_type
C58   C62   A    
C89   H4    S    
C71   C75   A    
C98   H10   S    
C3    H65   S    
N16   N21   A    
C6    C82   S    
C21   H80   S    
C136  N16   A    
C53   C140  A    
C41   C42   A    
C1    H1    S    
C19   C20   A    
C78   C81   S    
N3    Ni4   S    
C104  C108  D    
C72   C76   A    
C139  H46   S    
C45   C93   S    
C119  N8    A    
C35   C133  A    
C87   C127  A    
C83   H72   S    
C7    C8    A    
C22   H81   S    
C3    C4    A    
C26   C89   S    
C135  N15   A    
C83   C92   S    
C31   H89   S    
C28   C29   A    
C26   C27   A    
C97   C122  S    
N15   N18   A    
N1    Ni1   S    
N20   Ni4   S    
C56   C76   A    
C60   C125  S    
N4    N31   A    
N32   Ni2   S    
C13   C112  A    
C129  N9    A    
C106  C110  D    
C62   C127  S    
C90   C134  A    
C131  H38   S    
C95   C99   D    
C10   H71   S    
C64   C71   A    
C105  H16   S    
C86   C126  A    
C94   C98   D    
C143  C144  A    
N13   Ni4   S    
N8    N23   A    
C95   C120  S    
C4    H66   S    
C102  H13   S    
C67   C72   A    
C22   C23   A    
C86   N29   A    
C30   H88   S    
C73   C77   A    
C112  H52   S    
C55   C91   S    
N6    Ni5   S    
C58   C77   A    
C35   C139  A    
C38   H95   S    
C66   H57   S    
C85   C125  A    
C53   C106  S    
C27   H85   S    
C71   H62   S    
C143  H63   S    
N28   N32   A    
C79   H39   S    
C16   C17   A    
C65   C67   A    
C99   H11   S    
C111  C125  A    
C48   H102  S    
N11   N25   A    
C140  N20   A    
C69   C73   A    
C141  N21   A    
N10   N24   A    
C9    C10   A    
C11   H73   S    
C135  H42   S    
C34   C36   A    
C97   C102  D    
N17   Ni8   S    
C123  N26   A    
C133  H41   S    
N23   Ni3   S    
N28   Ni5   S    
C137  H44   S    
C81   C89   S    
C100  H12   S    
C106  H18   S    
C46   C135  A    
C116  N5    A    
N1    N6    A    
C118  N7    A    
C98   C109  S    
C55   C60   A    
N9    Ni1   S    
C90   N22   A    
C141  H48   S    
C119  H35   S    
C66   C69   A    
N22   Ni6   S    
C50   H104  S    
C34   H91   S    
C76   C83   S    
C55   C80   A    
C130  N10   A    
C117  H33   S    
N18   Ni2   S    
C50   C51   A    
C16   H76   S    
C108  H2    S    
C54   C59   A    
C45   C47   A    
C70   H60   S    
C133  N14   A    
C5    H67   S    
C101  N24   A    
C59   C63   A    
C88   H26   S    
C15   C16   A    
C62   C66   A    
C39   C40   A    
C85   H23   S    
N2    N29   A    
C13   C75   S    
C109  H8    S    
C86   H24   S    
C112  N25   A    
C29   H87   S    
C54   C89   S    
C80   C82   S    
C8    H69   S    
C116  C121  A    
C117  C120  A    
C68   C122  A    
C6    C11   A    
C91   H5    S    
C96   C124  S    
N5    Ni6   S    
C8    C9    A    
C1    N1    A    
C115  N4    A    
C138  N18   A    
C77   C84   S    
C43   H99   S    
N24   Ni5   S    
C99   C110  S    
C46   C104  S    
N7    Ni8   S    
C42   H98   S    
C24   C123  A    
C113  N2    A    
C12   C83   S    
C41   H97   S    
C59   C126  S    
C1    C120  A    
C12   C18   A    
C37   C38   A    
C43   C44   A    
C70   C74   A    
C29   C30   A    
C65   H56   S    
C114  H30   S    
C117  N6    A    
C24   C132  A    
C37   H93   S    
C47   C48   A    
N14   N19   A    
C63   C70   A    
C51   H3    S    
C81   H50   S    
C129  H36   S    
C14   C15   A    
C17   C18   A    
C13   C131  A    
C115  H31   S    
N10   Ni2   S    
C118  C124  A    
C20   C21   A    
C110  H9    S    
C102  C108  S    
N27   Ni4   S    
C82   C91   S    
N30   Ni7   S    
C6    C7    A    
N26   Ni7   S    
C79   C124  A    
C68   N23   A    
C131  N11   A    
C118  H34   S    
C116  H32   S    
C40   C41   A    
C12   C14   A    
C52   C105  S    
C69   H59   S    
C32   C38   A    
C136  H43   S    
C137  N17   A    
C52   C136  A    
N2    Ni1   S    
C53   C137  A    
C2    C72   S    
C93   H7    S    
C138  H45   S    
C42   C43   A    
C104  H15   S    
C15   H75   S    
C19   C84   S    
N13   N26   A    
C28   H86   S    
C39   C92   S    
C47   H101  S    
C23   H82   S    
C44   H100  S    
C113  H29   S    
C75   C80   A    
C119  C122  A    
N25   Ni8   S    
C139  N19   A    
C36   C37   A    
C100  C107  S    
C79   N27   A    
C7    H68   S    
C57   N12   A    
N17   N20   A    
C96   H21   S    
N16   Ni7   S    
C26   C31   A    
C123  H53   S    
N19   Ni1   S    
N21   Ni3   S    
C3    C144  A    
C4    C5    A    
C130  H37   S    
N12   Ni2   S    
N4    Ni3   S    
C63   H54   S    
C103  H14   S    
C39   C44   A    
C113  C126  A    
C9    H70   S    
C36   H92   S    
N29   Ni6   S    
C25   H84   S    
C35   C103  S    
C52   C141  A    
C2    C101  A    
C85   N28   A    
C46   C138  A    
C60   C64   A    
C103  C107  D    
C111  N32   A    
N11   Ni3   S    
N3    N30   A    
C101  H51   S    
C88   C128  A    
C67   H58   S    
C81   C142  S    
C95   H20   S    
N31   Ni8   S    
C92   H6    S    
C114  C127  A    
C68   H28   S    
N5    N12   A    
C24   C74   S    
C5    C142  A    
C30   C31   A    
C90   H49   S    
C105  C109  D    
C48   C49   A    
C114  N3    A    
C96   C100  D    
C49   H103  S    
C2    C130  A    
C20   H79   S    
C33   C34   A    
C107  H94   S    
C61   C128  S    
C111  H27   S    
C84   C93   S    
C23   C25   A    
C32   C33   A    
C18   H78   S    
C88   N31   A    
C58   C93   S    
C17   H77   S    
C10   C11   A    
C115  C128  A    
C19   C25   A    
C57   C121  A    
C129  C134  A    
C32   C91   S    
C94   C121  S    
C61   C65   A    
C56   C92   S    
N14   Ni5   S    
C57   H17   S    
C73   C134  S    
N8    Ni7   S    
C40   H96   S    
C49   C50   A    
C74   C78   A    
C64   H55   S    
N7    N27   A    
C27   C28   A    
N15   Ni6   S    
C140  H47   S    
C45   C51   A    
C56   C61   A    
C14   H74   S    
C142  C143  A    
N9    N22   A    
C144  H64   S    
C21   C22   A    
C84   H83   S    
C94   H19   S    
C87   N30   A    
C82   H61   S    
C132  H40   S    
C33   H90   S    
C97   H22   S    
C132  N13   A    
C54   C78   A    
C87   H25   S    
