data_mof_unit_42038.cif
_audit_creation_date              2012-12-10T19:31:21-0500
_audit_creation_method            fapswitch 2.2
_symmetry_space_group_name_H-M    P1
_symmetry_Int_Tables_number       1
_space_group_crystal_system       triclinic
_cell_length_a                    19.27735
_cell_length_b                    15.73543
_cell_length_c                    14.945289
_cell_angle_alpha                 89.640953
_cell_angle_beta                  89.747276
_cell_angle_gamma                 89.922431
_cell_volume                      4533.32788023

loop_
_atom_site_label
_atom_site_type_symbol
_atom_type_description
_atom_site_fract_x
_atom_site_fract_y
_atom_site_fract_z
_atom_type_partial_charge
C1    C     C_R   0.500010 0.337518 0.500265 0.905059
C2    C     C_R   0.499990 0.662482 0.499735 0.905054
C3    C     C_3   0.556336 0.972618 0.453446 -0.320873
C4    C     C_3   0.443665 0.027382 0.546555 -0.320878
C5    C     C_3   0.497266 0.028980 0.417248 0.647016
C6    C     C_3   0.502736 0.971020 0.582753 0.647016
C7    C     C_1   0.500021 0.248698 0.500976 -0.168638
C8    C     C_1   0.499979 0.751302 0.499024 -0.168636
C9    C     C_3   0.559168 0.027256 0.539556 -0.318750
C10   C     C_3   0.440833 0.972744 0.460443 -0.318755
C11   C     C_3   0.500044 0.082736 0.501739 0.049279
C12   C     C_3   0.499957 0.917264 0.498262 0.049279
C13   C     C_1   0.500034 0.173485 0.501539 0.018426
C14   C     C_1   0.499967 0.826515 0.498461 0.018425
C15   C     C_3   0.549522 0.446595 0.970776 0.328814
C16   C     C_3   0.450478 0.553404 0.029224 0.328804
C17   C     C_3   0.562380 0.525823 0.029031 0.262350
C18   C     C_3   0.437621 0.474177 0.970969 0.262346
C19   C     C_3   0.487056 0.420864 0.030141 0.280981
C20   C     C_3   0.512944 0.579136 0.969859 0.280973
C21   C     C_3   0.499898 0.500094 0.090011 -0.246277
C22   C     C_3   0.500102 0.499906 0.909989 -0.246285
C23   C     C_R   0.365296 0.499842 0.500284 0.892075
C24   C     C_R   0.634704 0.500163 0.499716 0.892074
C25   C     C_1   0.499949 0.500063 0.189923 0.269980
C26   C     C_1   0.500051 0.499937 0.810076 0.269977
C27   C     C_R   0.254287 0.498460 0.583246 -0.288799
C28   C     C_R   0.745717 0.501627 0.416760 -0.288797
C29   C     C_R   0.181958 0.495902 0.585424 0.551637
C30   C     C_R   0.818044 0.504245 0.414588 0.551640
C31   C     C_R   0.145395 0.497820 0.503930 -0.022859
C32   C     C_R   0.854603 0.502347 0.496085 -0.022866
C33   C     C_R   0.181443 0.498289 0.422226 -0.241085
C34   C     C_R   0.818551 0.501843 0.577786 -0.241087
C35   C     C_R   0.253211 0.498187 0.420905 -0.186860
C36   C     C_R   0.746784 0.501885 0.579101 -0.186856
C37   C     C_R   0.289917 0.498737 0.501354 -0.105052
C38   C     C_R   0.710083 0.501311 0.498649 -0.105050
C39   C     C_R   0.930136 0.500885 0.497644 0.319774
C40   C     C_R   0.069864 0.499312 0.502381 0.319785
H1    H     H_    0.282412 0.501287 0.645722 0.180958
H2    H     H_    0.717596 0.498786 0.354281 0.180957
H3    H     H_    0.154090 0.498265 0.359058 0.175174
H4    H     H_    0.845901 0.501881 0.640957 0.175172
H5    H     H_    0.279840 0.498302 0.356925 0.176084
H6    H     H_    0.720152 0.501744 0.643079 0.176086
H7    H     H_    0.601395 0.948167 0.414877 0.161167
H8    H     H_    0.398607 0.051833 0.585125 0.161169
H9    H     H_    0.393427 0.948393 0.427461 0.163273
H10   H     H_    0.606575 0.051607 0.572538 0.163273
N1    N     N_R   0.036210 0.533229 0.431194 -0.182292
N2    N     N_R   0.963789 0.466970 0.568831 -0.182299
N3    N     N_R   0.967468 0.534166 0.428974 -0.121748
N4    N     N_R   0.032531 0.466034 0.571051 -0.121766
N5    N     N_1   0.500020 0.500000 0.268010 -0.103751
N6    N     N_1   0.499980 0.500000 0.731990 -0.103751
O1    O     O_R   0.500000 0.376780 0.574460 -0.616919
O2    O     O_R   0.500000 0.623220 0.425540 -0.616923
O3    O     O_R   0.500010 0.376780 0.425520 -0.595561
O4    O     O_R   0.499990 0.623220 0.574480 -0.595563
O5    O     O_R   0.398130 0.499990 0.574490 -0.619593
O6    O     O_R   0.601870 0.500010 0.425510 -0.619591
O7    O     O_R   0.398140 0.499990 0.425550 -0.619147
O8    O     O_R   0.601860 0.500010 0.574450 -0.619149
Zn1   Zn    Zn3+2 0.499990 0.500000 0.599450 0.997825
Zn2   Zn    Zn3+2 0.500010 0.500000 0.400550 0.997826
O9    O     O_3   0.525406 0.660342 0.932269 -0.602316
C41   C     C_3   0.540539 0.719372 0.000308 0.127409
H11   H     H_    0.593246 0.708372 0.027383 0.176602
H12   H     H_    0.502652 0.716266 0.056591 0.172395
C42   C     C_3   0.538568 0.808721 0.960929 -0.855214
H13   H     H_    0.486208 0.822633 0.933784 0.257678
H14   H     H_    0.550702 0.855783 0.013650 0.202009
H15   H     H_    0.577451 0.814739 0.906192 0.272415
O10   O     O_3   0.474591 0.339659 0.067733 -0.602324
C43   C     C_3   0.459457 0.280629 0.999695 0.127395
H16   H     H_    0.497346 0.283729 0.943415 0.172400
H17   H     H_    0.406751 0.291634 0.972617 0.176621
C44   C     C_3   0.461418 0.191281 0.039077 -0.855211
H18   H     H_    0.422534 0.185270 0.093813 0.272420
H19   H     H_    0.449280 0.144219 0.986357 0.202011
H20   H     H_    0.513776 0.177362 0.066223 0.257676
O11   O     O_3   0.146980 0.500979 0.666378 -0.597783
C45   C     C_3   0.156991 0.424809 0.715031 -0.301327
H21   H     H_    0.143109 0.368040 0.674715 0.160736
H22   H     H_    0.122316 0.425523 0.774452 0.200743
H23   H     H_    0.211099 0.419357 0.739767 0.161260
O12   O     O_3   0.853028 0.499204 0.333636 -0.597780
C46   C     C_3   0.842986 0.575376 0.284998 -0.301349
H24   H     H_    0.877661 0.574693 0.225576 0.200749
H25   H     H_    0.856846 0.632147 0.325325 0.160732
H26   H     H_    0.788876 0.580800 0.260264 0.161271
O13   O     O_3   0.494420 0.067123 0.331656 -0.592112
C47   C     C_3   0.492375 0.003272 0.266128 -0.314717
H27   H     H_    0.445269 0.963079 0.273560 0.159539
H28   H     H_    0.539985 0.963310 0.267741 0.156090
H29   H     H_    0.490055 0.034158 0.199271 0.196812
O14   O     O_3   0.505586 0.932878 0.668344 -0.592112
C48   C     C_3   0.507622 0.996729 0.733872 -0.314716
H30   H     H_    0.459988 0.036648 0.732290 0.156115
H31   H     H_    0.554703 0.036963 0.726413 0.159515
H32   H     H_    0.509986 0.965844 0.800727 0.196814
O15   O     O_3   0.626074 0.552885 0.065513 -0.617103
C49   C     C_3   0.675506 0.565688 0.996662 0.127551
H33   H     H_    0.654552 0.604476 0.940422 0.170724
H34   H     H_    0.693868 0.504031 0.969876 0.186691
C50   C     C_3   0.737895 0.611861 0.034786 -0.872537
H35   H     H_    0.761640 0.573161 0.089005 0.260765
H36   H     H_    0.777146 0.622519 0.981293 0.218643
H37   H     H_    0.721724 0.674286 0.062221 0.252755
O16   O     O_3   0.373926 0.447114 0.934486 -0.617107
C51   C     C_3   0.324492 0.434322 0.003337 0.127577
H38   H     H_    0.306123 0.495984 0.030101 0.186691
H39   H     H_    0.345447 0.395551 0.059590 0.170725
C52   C     C_3   0.262110 0.388130 0.965221 -0.872537
H40   H     H_    0.278286 0.325696 0.937816 0.252753
H41   H     H_    0.222853 0.377491 0.018711 0.218642
H42   H     H_    0.238369 0.426809 0.910982 0.260746
O17   O     O_3   0.600817 0.392446 0.934566 -0.621966
C53   C     C_3   0.634544 0.347335 0.003823 -0.273434
H43   H     H_    0.602827 0.292674 0.026687 0.197307
H44   H     H_    0.647784 0.387803 0.062030 0.192753
H45   H     H_    0.683900 0.321419 0.976994 0.175995
O18   O     O_3   0.399182 0.607551 0.065433 -0.621975
C54   C     C_3   0.365456 0.652665 0.996176 -0.273376
H46   H     H_    0.352258 0.612214 0.937940 0.192744
H47   H     H_    0.397155 0.707359 0.973360 0.197277
H48   H     H_    0.316078 0.678532 0.022987 0.175979

loop_
_geom_bond_atom_site_label_1
_geom_bond_atom_site_label_2
_ccdc_geom_bond_type
C16   C21   S    
C27   C29   A    
C20   O9    S    
O16   C51   S    
C43   C44   S    
C6    C9    S    
C49   H34   S    
C15   C19   S    
O13   C47   S    
C6    O14   S    
C35   C37   A    
C43   H17   S    
C5    C11   S    
C1    O3    A    
O3    Zn2   S    
C6    C12   S    
C2    O4    A    
C52   H40   S    
C17   C20   S    
C31   C40   S    
C18   C19   S    
C32   C39   S    
C28   H2    S    
C51   H38   S    
C3    C12   S    
O2    Zn2   S    
C15   C22   S    
O11   C45   S    
C53   H44   S    
C41   H11   S    
C52   H41   S    
C54   H48   S    
C24   C38   S    
C50   H35   S    
C31   C33   A    
C36   H6    S    
C46   H25   S    
C53   H45   S    
C23   O7    A    
C39   N2    A    
O7    Zn2   S    
C24   O8    A    
C1    C7    S    
C24   O6    A    
C50   H36   S    
C15   O17   S    
C51   H39   S    
C49   H33   S    
N2    N4    A    
O6    Zn2   S    
O9    C41   S    
C33   H3    S    
C34   H4    S    
C45   H21   S    
C4    C6    S    
O1    Zn1   S    
C42   H14   S    
C47   H29   S    
C23   C37   S    
C17   C21   S    
C46   H26   S    
C32   C34   A    
O10   C43   S    
C3    C9    S    
C1    O1    A    
C44   H20   S    
C27   H1    S    
C48   H30   S    
C28   C38   A    
C16   C20   S    
C52   H42   S    
C43   H16   S    
C4    C11   S    
C47   H28   S    
C9    C11   S    
C10   C12   S    
C16   C18   S    
C48   H31   S    
C20   C22   S    
O4    Zn1   S    
C40   N4    A    
C54   H46   S    
C50   H37   S    
C30   O12   S    
C18   O16   S    
C35   H5    S    
N5    Zn2   S    
C53   H43   S    
C44   H19   S    
C4    H8    S    
C23   O5    A    
C15   C17   S    
C21   C25   S    
C8    C14   T    
C19   C21   S    
C18   C22   S    
C2    C8    S    
C9    H10   S    
C25   N5    T    
C12   C14   S    
C3    C5    S    
C26   N6    T    
C42   H15   S    
C5    O13   S    
O17   C53   S    
C2    O2    A    
C29   O11   S    
C45   H23   S    
C40   N1    A    
O8    Zn1   S    
C19   O10   S    
C17   O15   S    
C5    C10   S    
C29   C31   A    
C36   C38   A    
C30   C32   A    
C11   C13   S    
C39   N3    A    
C27   C37   A    
C41   C42   S    
C3    H7    S    
C33   C35   A    
C28   C30   A    
C34   C36   A    
C49   C50   S    
C16   O18   S    
C47   H27   S    
C44   H18   S    
O5    Zn1   S    
C7    C13   T    
C48   H32   S    
C42   H13   S    
O12   C46   S    
C41   H12   S    
O14   C48   S    
C22   C26   S    
O15   C49   S    
C54   H47   S    
C45   H22   S    
N1    N3    A    
C46   H24   S    
C10   H9    S    
C4    C10   S    
C51   C52   S    
N6    Zn1   S    
O18   C54   S    
