data_mof_unit_24811.cif
_audit_creation_date              2012-12-10T17:20:12-0500
_audit_creation_method            fapswitch 2.2
_symmetry_space_group_name_H-M    P1
_symmetry_Int_Tables_number       1
_space_group_crystal_system       triclinic
_cell_length_a                    18.319181
_cell_length_b                    18.410874
_cell_length_c                    27.624474
_cell_angle_alpha                 89.99234
_cell_angle_beta                  90.27047
_cell_angle_gamma                 90.655531
_cell_volume                      9316.25165071

loop_
_atom_site_label
_atom_site_type_symbol
_atom_type_description
_atom_site_fract_x
_atom_site_fract_y
_atom_site_fract_z
_atom_type_partial_charge
C1    C     C_1   0.499943 0.000062 0.930918 0.045994
C2    C     C_1   0.499947 0.000093 0.025500 -0.002972
C3    C     C_R   0.804806 0.146997 0.138566 -0.033176
C4    C     C_R   0.649217 0.595617 0.686146 -0.009960
C5    C     C_R   0.339277 0.379163 0.165197 -0.030361
C6    C     C_R   0.803651 0.159144 0.868799 0.022675
C7    C     C_R   0.221726 0.843846 0.129083 0.031774
C8    C     C_R   0.246943 0.695777 0.713327 -0.001072
C9    C     C_R   0.744046 0.310345 0.284766 -0.006504
C10   C     C_R   0.257947 0.205703 0.708946 -0.025170
C11   C     C_R   0.771295 0.825284 0.233462 0.000747
C12   C     C_R   0.752235 0.297787 0.709641 -0.005579
C13   C     C_1   0.000289 0.500337 0.974512 -0.002866
C14   C     C_R   0.249121 0.694175 0.286576 -0.020270
C15   C     C_R   0.765795 0.819562 0.771760 -0.001593
C16   C     C_R   0.233321 0.181916 0.269643 0.010380
C17   C     C_R   0.824907 0.769942 0.232351 -0.000178
C18   C     C_R   0.193547 0.243629 0.716759 0.005797
C19   C     C_R   0.691209 0.253114 0.285622 0.008061
C20   C     C_R   0.294293 0.756146 0.707662 -0.012167
C21   C     C_R   0.191147 0.241938 0.281340 0.000377
C22   C     C_R   0.819980 0.765005 0.771991 -0.012319
C23   C     C_R   0.295115 0.755632 0.293143 -0.042258
C24   C     C_1   0.999962 0.500339 0.025489 -0.014807
C25   C     C_R   0.692487 0.249471 0.715267 0.019374
C26   C     C_R   0.748771 0.199283 0.211991 0.001554
C27   C     C_R   0.250680 0.806324 0.786533 -0.015853
C28   C     C_R   0.728197 0.679297 0.251468 -0.037641
C29   C     C_R   0.258564 0.307925 0.782049 0.003676
C30   C     C_R   0.256319 0.801204 0.211120 0.014097
C31   C     C_R   0.748560 0.200842 0.791475 -0.033077
C32   C     C_R   0.260314 0.310036 0.220113 0.006728
C33   C     C_R   0.735055 0.680917 0.727084 -0.001556
C34   C     C_R   0.296756 0.243850 0.789940 0.003890
C35   C     C_1   0.000018 0.499922 0.474500 -0.000214
C36   C     C_R   0.681389 0.735368 0.264797 0.000999
C37   C     C_R   0.204048 0.745313 0.792438 0.003924
C38   C     C_R   0.810263 0.244793 0.218428 -0.031671
C39   C     C_R   0.680304 0.735042 0.727238 -0.014355
C40   C     C_R   0.319852 0.266982 0.232193 -0.005250
C41   C     C_R   0.808543 0.249055 0.785430 0.003969
C42   C     C_R   0.206240 0.742365 0.206809 0.009832
C43   C     C_R   0.198276 0.694334 0.753367 0.047637
C44   C     C_R   0.804236 0.303888 0.251777 0.040431
C45   C     C_R   0.304481 0.196569 0.749663 0.015538
C46   C     C_1   0.999988 0.499933 0.525506 -0.007551
C47   C     C_R   0.699260 0.806966 0.249890 0.049620
C48   C     C_R   0.805919 0.301366 0.747381 0.050093
C49   C     C_R   0.199061 0.693481 0.246996 0.032420
C50   C     C_R   0.696245 0.803746 0.749809 0.040287
C51   C     C_R   0.304071 0.196432 0.250610 0.036775
C52   C     C_R   0.803279 0.696818 0.243333 0.019698
C53   C     C_R   0.197633 0.303748 0.749580 0.031314
C54   C     C_R   0.694766 0.197926 0.249100 0.052433
C55   C     C_R   0.300535 0.806815 0.746987 0.029668
C56   C     C_R   0.197447 0.303899 0.250430 0.038614
C57   C     C_1   0.500047 0.999834 0.474514 0.011018
C58   C     C_R   0.803864 0.696244 0.749965 0.042317
C59   C     C_R   0.302492 0.805177 0.253091 0.030696
C60   C     C_R   0.694648 0.197560 0.753636 0.043646
C61   C     C_2   0.205655 0.919960 0.898245 0.238773
C62   C     C_2   0.798511 0.097661 0.095803 0.209977
C63   C     C_2   0.350835 0.427763 0.877249 0.205136
C64   C     C_2   0.604420 0.513955 0.269985 0.219336
C65   C     C_2   0.795341 0.118360 0.915294 0.232254
C66   C     C_2   0.235958 0.894402 0.087915 0.297522
C67   C     C_2   0.634813 0.522489 0.664616 0.197156
C68   C     C_1   0.499696 0.999843 0.525492 0.002582
C69   C     C_2   0.348142 0.427104 0.122129 0.204516
C70   C     C_2   0.538576 0.623287 0.334351 0.274046
C71   C     C_2   0.360771 0.280859 0.919814 0.290774
C72   C     C_2   0.935963 0.173013 0.118467 0.359958
C73   C     C_2   0.122690 0.786481 0.917595 0.293319
C74   C     C_2   0.472426 0.393018 0.186545 0.323014
C75   C     C_2   0.519324 0.627986 0.671322 0.296680
C76   C     C_2   0.129711 0.774402 0.078818 0.321244
C77   C     C_2   0.934222 0.186477 0.889004 0.294405
C78   C     C_2   0.668297 0.437996 0.381965 0.243725
C79   C     C_R   0.499843 0.999974 0.620850 0.503271
C80   C     C_2   0.292662 0.582393 0.601433 0.224187
C81   C     C_2   0.885453 0.993925 0.201715 0.246514
C82   C     C_2   0.222949 0.138122 0.580759 0.240466
C83   C     C_2   0.289062 0.580982 0.399394 0.235167
C84   C     C_2   0.709184 0.377884 0.584661 0.321555
C85   C     C_2   0.107474 0.031841 0.316973 0.198673
C86   C     C_2   0.873422 0.982225 0.823109 0.197595
C87   C     C_2   0.074126 0.147611 0.621854 0.287475
C88   C     C_2   0.997618 0.882585 0.207350 0.290675
C89   C     C_2   0.354203 0.723648 0.575696 0.331792
C90   C     C_R   0.500128 0.999957 0.379152 0.519215
C91   C     C_2   0.560006 0.321376 0.383556 0.297066
C92   C     C_2   0.982357 0.868591 0.828198 0.259463
C93   C     C_2   0.074834 0.155776 0.381135 0.298631
C94   C     C_2   0.568433 0.308699 0.610576 0.297946
C95   C     C_2   0.367972 0.716365 0.421669 0.347507
C96   C     C_R   0.999971 0.499995 0.620911 0.496429
C97   C     C_1   0.499980 0.000051 0.069077 0.028340
C98   C     C_R   0.000018 0.499986 0.379091 0.507997
C99   C     C_R   0.999878 0.500079 0.120849 0.514703
C100  C     C_R   0.000152 0.500081 0.879151 0.514509
C101  C     C_R   0.500019 0.000011 0.120909 0.497235
C102  C     C_R   0.499979 0.000012 0.879089 0.504878
C103  C     C_R   0.640158 0.859852 0.749960 0.615638
C104  C     C_R   0.359807 0.140145 0.250080 0.575905
C105  C     C_R   0.138442 0.641648 0.752429 0.593995
C106  C     C_R   0.859762 0.360105 0.250347 0.497704
C107  C     C_R   0.359669 0.139962 0.750095 0.538965
C108  C     C_1   0.000400 0.500245 0.930954 0.041656
C109  C     C_R   0.641132 0.860885 0.249643 0.601396
C110  C     C_R   0.858613 0.361237 0.748088 0.580713
C111  C     C_R   0.139066 0.641074 0.248199 0.552597
C112  C     C_R   0.362124 0.857911 0.252802 0.545502
C113  C     C_R   0.641827 0.138158 0.752493 0.545666
C114  C     C_R   0.858252 0.639293 0.249891 0.557022
C115  C     C_R   0.140666 0.359680 0.749960 0.560011
C116  C     C_R   0.641181 0.139062 0.248703 0.584813
C117  C     C_R   0.360919 0.858796 0.747976 0.538970
C118  C     C_R   0.140567 0.359777 0.250075 0.567383
C119  C     C_1   0.999747 0.500247 0.069047 0.019074
C120  C     C_R   0.860043 0.640273 0.750157 0.614451
C121  C     C_R   0.331917 0.764541 0.662281 0.094613
C122  C     C_R   0.634426 0.254343 0.321611 0.087828
C123  C     C_R   0.130290 0.217881 0.692018 0.123860
C124  C     C_R   0.897156 0.788458 0.216847 0.097853
C125  C     C_R   0.631035 0.255657 0.683027 0.063074
C126  C     C_R   0.332363 0.763163 0.339340 0.108405
C127  C     C_R   0.888943 0.780521 0.795094 0.099053
C128  C     C_R   0.145929 0.235666 0.322699 0.120323
C129  C     C_R   0.791603 0.897066 0.218212 0.074616
C130  C     C_1   0.000029 0.499946 0.430924 0.044110
C131  C     C_R   0.270244 0.177472 0.661849 0.096749
C132  C     C_R   0.735076 0.370654 0.317867 0.061557
C133  C     C_R   0.250833 0.636962 0.679458 0.063169
C134  C     C_R   0.202320 0.112085 0.277824 0.091995
C135  C     C_R   0.782747 0.888369 0.794298 0.075476
C136  C     C_R   0.255866 0.633947 0.319475 0.079824
C137  C     C_R   0.757263 0.339392 0.665734 0.031173
C138  C     C_R   0.874448 0.230247 0.189962 0.086594
C139  C     C_R   0.164804 0.737606 0.837206 0.105061
C140  C     C_R   0.618692 0.717838 0.293169 0.102054
C141  C     C_1   0.999969 0.499968 0.569081 0.026106
C142  C     C_R   0.324738 0.231188 0.837077 0.123110
C143  C     C_R   0.166033 0.733836 0.162089 0.080441
C144  C     C_R   0.870959 0.242360 0.816731 0.101427
C145  C     C_R   0.390731 0.296888 0.225317 0.124719
C146  C     C_R   0.611374 0.719089 0.703876 0.090922
C147  C     C_R   0.283737 0.370584 0.807187 0.085566
C148  C     C_R   0.697242 0.608021 0.247434 0.057812
C149  C     C_R   0.244006 0.866178 0.819717 0.087070
C150  C     C_R   0.743773 0.155978 0.168830 0.046140
C151  C     C_R   0.719926 0.613059 0.702964 0.077548
C152  C     C_1   0.500272 0.999876 0.430955 0.053929
C153  C     C_R   0.268377 0.355996 0.179226 0.086473
C154  C     C_R   0.744953 0.159087 0.835708 0.045804
C155  C     C_R   0.258502 0.855206 0.173375 0.066799
C156  C     C_R   0.325896 0.710699 0.625698 0.052863
C157  C     C_R   0.625283 0.315398 0.351792 0.028568
C158  C     C_R   0.138495 0.178274 0.648221 0.017619
C159  C     C_R   0.919004 0.861985 0.211812 0.037637
C160  C     C_R   0.634524 0.300865 0.641852 0.016891
C161  C     C_R   0.328138 0.707865 0.374695 0.087252
C162  C     C_R   0.908140 0.852044 0.808786 0.048992
C163  C     C_1   0.499581 0.999893 0.569050 0.032419
C164  C     C_R   0.120998 0.165741 0.337367 0.025048
C165  C     C_R   0.865743 0.916458 0.211794 -0.004870
C166  C     C_R   0.209872 0.165066 0.630811 0.012130
C167  C     C_R   0.675339 0.373391 0.349581 0.027614
C168  C     C_R   0.289445 0.644896 0.635761 -0.018714
C169  C     C_R   0.143698 0.104171 0.310790 -0.012100
C170  C     C_R   0.854958 0.906189 0.808300 0.004322
C171  C     C_R   0.291971 0.642249 0.363995 0.029766
C172  C     C_R   0.699475 0.339189 0.631666 0.011926
C173  C     C_R   0.871074 0.182053 0.150300 0.066398
C174  C     C_1   0.499930 0.000102 0.974493 0.004620
C175  C     C_R   0.166952 0.793172 0.872636 0.050507
C176  C     C_R   0.597465 0.644182 0.299902 0.034781
C177  C     C_R   0.336719 0.291121 0.868664 0.027065
C178  C     C_R   0.174598 0.783803 0.123669 0.051477
C179  C     C_R   0.868248 0.197421 0.858121 0.039410
C180  C     C_R   0.400494 0.355292 0.192256 0.033677
C181  C     C_R   0.594709 0.648312 0.687017 0.030475
C182  C     C_R   0.323344 0.362172 0.851024 -0.026647
C183  C     C_R   0.633729 0.589797 0.273550 0.009928
C184  C     C_R   0.204812 0.858347 0.863024 0.046532
H1    H     H_    0.347898 0.854903 0.620705 0.259807
H2    H     H_    0.521865 0.260377 0.697230 0.226117
H3    H     H_    0.419638 0.834584 0.333478 0.232357
H4    H     H_    0.337603 0.871600 0.355754 0.276188
H5    H     H_    0.946959 0.725842 0.846220 0.218816
H6    H     H_    0.986167 0.728001 0.790133 0.279510
H7    H     H_    0.164260 0.283417 0.387903 0.247400
H8    H     H_    0.085474 0.308628 0.360706 0.310488
H9    H     H_    0.745656 0.964449 0.168932 0.234060
H10   H     H_    0.741112 0.994211 0.227287 0.234071
H11   H     H_    0.380934 0.200703 0.664369 0.230633
H12   H     H_    0.425728 0.819244 0.645608 0.270500
H13   H     H_    0.357467 0.120534 0.637393 0.254750
H14   H     H_    0.836365 0.413731 0.334824 0.276382
H15   H     H_    0.787198 0.461547 0.290444 0.231149
H16   H     H_    0.262544 0.528086 0.690443 0.246666
H17   H     H_    0.180212 0.552675 0.666570 0.211833
H18   H     H_    0.176102 0.036281 0.227386 0.238309
H19   H     H_    0.239212 0.009378 0.268526 0.256164
H20   H     H_    0.738784 0.988683 0.785460 0.235204
H21   H     H_    0.724640 0.950224 0.841135 0.207671
H22   H     H_    0.178479 0.552474 0.312097 0.242991
H23   H     H_    0.531158 0.210627 0.323666 0.247967
H24   H     H_    0.251389 0.548639 0.271574 0.263060
H25   H     H_    0.814566 0.431158 0.648384 0.189813
H26   H     H_    0.843808 0.354156 0.620590 0.259176
H27   H     H_    0.951177 0.313136 0.192289 0.239255
H28   H     H_    0.958319 0.247443 0.238228 0.278650
H29   H     H_    0.070501 0.685456 0.856777 0.232318
H30   H     H_    0.149024 0.645167 0.876326 0.280753
H31   H     H_    0.582909 0.762819 0.356079 0.263010
H32   H     H_    0.528258 0.777067 0.306625 0.261781
H33   H     H_    0.294024 0.151874 0.884115 0.247371
H34   H     H_    0.592968 0.170905 0.361808 0.283234
H35   H     H_    0.382127 0.147015 0.865547 0.305405
H36   H     H_    0.138610 0.640719 0.126604 0.227151
H37   H     H_    0.066141 0.691224 0.144297 0.223331
H38   H     H_    0.979787 0.235447 0.801843 0.265247
H39   H     H_    0.954124 0.314577 0.829263 0.264657
H40   H     H_    0.465982 0.321728 0.277099 0.247135
H41   H     H_    0.492021 0.256194 0.237682 0.304968
H42   H     H_    0.508954 0.759764 0.712674 0.252532
H43   H     H_    0.550849 0.782562 0.659154 0.272295
H44   H     H_    0.336837 0.456577 0.777105 0.229058
H45   H     H_    0.045235 0.162945 0.722224 0.245927
H46   H     H_    0.258240 0.478124 0.805374 0.254437
H47   H     H_    0.740038 0.591771 0.179230 0.276813
H48   H     H_    0.744136 0.517944 0.217930 0.256866
H49   H     H_    0.325166 0.944303 0.814422 0.246566
H50   H     H_    0.252652 0.953164 0.773478 0.270016
H51   H     H_    0.679806 0.069306 0.149010 0.208265
H52   H     H_    0.659601 0.149072 0.120648 0.245049
H53   H     H_    0.778887 0.554887 0.654501 0.224677
H54   H     H_    0.767896 0.514210 0.709825 0.221750
H55   H     H_    0.219966 0.340666 0.113798 0.240283
H56   H     H_    0.022121 0.242893 0.696214 0.313887
H57   H     H_    0.199812 0.420623 0.140504 0.245875
H58   H     H_    0.637226 0.160157 0.855136 0.293938
H59   H     H_    0.667510 0.077070 0.831449 0.226965
H60   H     H_    0.259123 0.965564 0.175836 0.228328
H61   H     H_    0.337286 0.928715 0.154352 0.230916
H62   H     H_    0.209294 0.975621 0.885489 0.154265
H63   H     H_    0.748744 0.095687 0.074427 0.125835
H64   H     H_    0.322435 0.478903 0.874401 0.116480
H65   H     H_    0.640449 0.469868 0.260558 0.142952
H66   H     H_    0.760874 0.070079 0.916876 0.134060
H67   H     H_    0.994552 0.736619 0.222670 0.275503
H68   H     H_    0.241804 0.952365 0.093943 0.109973
H69   H     H_    0.659328 0.474629 0.680357 0.096350
H70   H     H_    0.305369 0.464216 0.111684 0.113488
H71   H     H_    0.541990 0.572400 0.354027 0.146390
H72   H     H_    0.346261 0.320622 0.947008 0.158067
H73   H     H_    0.928822 0.167240 0.079647 0.152028
H74   H     H_    0.090765 0.832120 0.929940 0.156897
H75   H     H_    0.474316 0.449365 0.175059 0.168032
H76   H     H_    0.496028 0.576029 0.682133 0.139248
H77   H     H_    0.119908 0.720777 0.063741 0.106205
H78   H     H_    0.957493 0.739421 0.165566 0.256641
H79   H     H_    0.944652 0.133384 0.904475 0.158997
H80   H     H_    0.685116 0.491418 0.369312 0.120294
H81   H     H_    0.246894 0.544900 0.597905 0.114465
H82   H     H_    0.854594 0.037457 0.217909 0.109886
H83   H     H_    0.272373 0.108868 0.572400 0.134371
H84   H     H_    0.288733 0.525177 0.386760 0.163877
H85   H     H_    0.739088 0.428974 0.583029 0.105306
H86   H     H_    0.136753 0.982246 0.309673 0.110871
H87   H     H_    0.833761 0.015025 0.841652 0.088687
H88   H     H_    0.079282 0.097415 0.601643 0.148893
H89   H     H_    0.548593 0.184132 0.667017 0.208803
H90   H     H_    0.018525 0.930112 0.226347 0.152285
H91   H     H_    0.325556 0.700060 0.544905 0.159218
H92   H     H_    0.531324 0.372520 0.385760 0.149466
H93   H     H_    0.988895 0.901519 0.860546 0.129093
H94   H     H_    0.078755 0.106179 0.402167 0.158959
H95   H     H_    0.531332 0.263165 0.604908 0.100675
H96   H     H_    0.396021 0.670523 0.437571 0.166612
N1    N     N_3   0.370718 0.830441 0.651314 -0.569979
N2    N     N_3   0.342733 0.174705 0.641916 -0.622659
N3    N     N_3   0.785679 0.430546 0.321978 -0.667066
N4    N     N_3   0.221100 0.566638 0.691514 -0.604518
N5    N     N_3   0.222278 0.052827 0.247062 -0.609370
N6    N     N_3   0.726813 0.940410 0.803892 -0.630437
N7    N     N_3   0.234234 0.561119 0.306589 -0.654555
N8    N     N_3   0.824063 0.375830 0.652911 -0.597083
N9    N     N_3   0.945504 0.258630 0.202128 -0.555502
N10   N     N_3   0.124067 0.672577 0.847675 -0.591886
N11   N     N_3   0.582096 0.774351 0.319024 -0.605834
N12   N     N_3   0.585110 0.193811 0.327586 -0.592362
N13   N     N_3   0.328803 0.157753 0.854438 -0.591789
N14   N     N_3   0.117760 0.673038 0.154297 -0.599803
N15   N     N_3   0.939606 0.275211 0.803616 -0.586098
N16   N     N_3   0.448337 0.275994 0.257677 -0.612625
N17   N     N_3   0.558246 0.774737 0.696312 -0.604283
N18   N     N_3   0.282905 0.439795 0.783073 -0.593316
N19   N     N_3   0.713779 0.562543 0.206680 -0.599274
N20   N     N_3   0.269152 0.938417 0.808333 -0.649909
N21   N     N_3   0.675104 0.125374 0.153459 -0.590793
N22   N     N_3   0.777427 0.563386 0.691909 -0.623466
N23   N     N_3   0.061697 0.216953 0.717080 -0.583614
N24   N     N_3   0.207556 0.365281 0.146813 -0.574700
N25   N     N_3   0.679699 0.123133 0.852028 -0.652293
N26   N     N_3   0.296156 0.923389 0.180283 -0.606263
N27   N     N_3   0.946400 0.732642 0.202350 -0.591858
N28   N     N_3   0.562418 0.221105 0.694373 -0.602336
N29   N     N_3   0.372210 0.827062 0.353681 -0.557366
N30   N     N_3   0.937065 0.722934 0.808958 -0.617408
N31   N     N_3   0.140303 0.296908 0.354719 -0.581254
N32   N     N_3   0.736928 0.948709 0.204818 -0.625029
O1    O     O_3   0.500000 1.000000 0.750000 -0.446260
O2    O     O_R   0.439270 1.000000 0.356260 -0.540307
O3    O     O_R   1.000000 0.560730 0.643740 -0.535605
O4    O     O_R   1.000000 0.439270 0.356260 -0.537397
O5    O     O_R   0.939270 0.500000 0.143740 -0.523839
O6    O     O_R   0.060730 0.500000 0.856260 -0.539956
O7    O     O_R   0.500000 0.939270 0.143740 -0.532756
O8    O     O_R   0.500000 0.060730 0.856260 -0.542467
O9    O     O_R   0.060730 0.500000 0.143740 -0.539694
O10   O     O_R   0.939270 0.500000 0.856260 -0.525886
O11   O     O_R   0.500000 0.060730 0.143740 -0.522092
O12   O     O_3   0.500000 1.000000 0.250000 -0.450712
O13   O     O_R   0.500000 0.939270 0.856260 -0.531614
O14   O     O_R   0.646150 0.914560 0.722140 -0.509719
O15   O     O_R   0.353850 0.085440 0.277860 -0.523703
O16   O     O_R   0.085440 0.646150 0.722140 -0.532779
O17   O     O_R   0.914560 0.353850 0.277860 -0.550226
O18   O     O_R   0.353850 0.085440 0.722140 -0.555787
O19   O     O_R   0.646150 0.914560 0.277860 -0.512437
O20   O     O_R   0.914560 0.353850 0.722140 -0.483435
O21   O     O_R   0.085440 0.646150 0.277860 -0.539461
O22   O     O_R   0.353850 0.914560 0.277860 -0.560271
O23   O     O_3   1.000000 0.500000 0.750000 -0.453165
O24   O     O_R   0.646150 0.085440 0.722140 -0.529776
O25   O     O_R   0.914560 0.646150 0.277860 -0.512875
O26   O     O_R   0.085440 0.353850 0.722140 -0.524298
O27   O     O_R   0.646150 0.085440 0.277860 -0.529760
O28   O     O_R   0.353850 0.914560 0.722140 -0.521450
O29   O     O_R   0.085440 0.353850 0.277860 -0.530345
O30   O     O_R   0.914560 0.646150 0.722140 -0.512330
O31   O     O_R   0.146150 0.414560 0.222140 -0.531170
O32   O     O_R   0.853850 0.585440 0.777860 -0.515652
O33   O     O_R   0.585440 0.146150 0.222140 -0.498465
O34   O     O_3   0.000000 0.500000 0.250000 -0.442892
O35   O     O_R   0.414560 0.853850 0.777860 -0.540474
O36   O     O_R   0.853850 0.585440 0.222140 -0.558715
O37   O     O_R   0.146150 0.414560 0.777860 -0.523374
O38   O     O_R   0.414560 0.853850 0.222140 -0.517318
O39   O     O_R   0.585440 0.146150 0.777860 -0.524645
O40   O     O_R   0.853850 0.414560 0.777860 -0.543573
O41   O     O_R   0.146150 0.585440 0.222140 -0.530049
O42   O     O_R   0.414560 0.146150 0.777860 -0.517942
O43   O     O_R   0.585440 0.853850 0.222140 -0.524539
O44   O     O_R   0.146150 0.585440 0.777860 -0.503356
O45   O     O_R   0.439270 1.000000 0.643740 -0.552394
O46   O     O_R   0.853850 0.414560 0.222140 -0.558587
O47   O     O_R   0.585440 0.853850 0.777860 -0.512507
O48   O     O_R   0.414560 0.146150 0.222140 -0.526562
O49   O     O_2   0.205461 0.909373 0.941867 -0.440423
O50   O     O_2   0.847660 0.056499 0.085102 -0.444266
O51   O     O_2   0.407015 0.426073 0.901165 -0.467549
O52   O     O_2   0.539718 0.500000 0.275686 -0.524562
O53   O     O_2   0.824452 0.139660 0.952618 -0.488952
O54   O     O_2   0.244379 0.871223 0.046933 -0.405718
O55   O     O_2   0.597382 0.515322 0.628207 -0.418521
O56   O     O_R   0.560730 1.000000 0.356260 -0.526429
O57   O     O_2   0.402498 0.424072 0.096830 -0.466953
O58   O     O_2   0.485130 0.661080 0.340313 -0.540552
O59   O     O_2   0.397807 0.229378 0.932217 -0.492684
O60   O     O_2   0.997742 0.170622 0.135141 -0.425832
O61   O     O_2   0.122912 0.731105 0.941892 -0.503668
O62   O     O_2   0.530068 0.362134 0.193671 -0.497188
O63   O     O_2   0.483958 0.667030 0.644656 -0.462416
O64   O     O_2   0.100785 0.826304 0.059362 -0.404195
O65   O     O_2   0.976171 0.236422 0.898682 -0.505655
O66   O     O_2   0.646572 0.431955 0.423511 -0.439800
O67   O     O_R   1.000000 0.439270 0.643740 -0.521436
O68   O     O_2   0.347582 0.570591 0.577947 -0.419833
O69   O     O_2   0.934967 0.010117 0.174180 -0.425896
O70   O     O_2   0.180128 0.150513 0.547856 -0.487517
O71   O     O_2   0.283528 0.591981 0.442806 -0.503215
O72   O     O_2   0.686096 0.351599 0.546919 -0.396123
O73   O     O_2   0.043398 0.026784 0.328612 -0.496056
O74   O     O_2   0.932320 0.009989 0.813153 -0.503634
O75   O     O_2   0.015527 0.178443 0.621242 -0.481908
O76   O     O_2   0.039049 0.848877 0.181491 -0.513994
O77   O     O_2   0.409996 0.758605 0.568145 -0.453411
O78   O     O_R   0.000000 0.560730 0.356260 -0.533281
O79   O     O_2   0.539081 0.270686 0.408577 -0.476755
O80   O     O_2   0.036744 0.848139 0.807090 -0.524684
O81   O     O_2   0.030830 0.201311 0.393556 -0.479253
O82   O     O_2   0.553200 0.366961 0.592234 -0.379382
O83   O     O_2   0.368813 0.774073 0.443466 -0.458634
O84   O     O_R   0.560730 1.000000 0.643740 -0.522300
Zn1   Zn    Zn3+2 0.500000 0.913240 0.789820 0.958611
Zn2   Zn    Zn3+2 1.000000 0.586760 0.710180 0.968327
Zn3   Zn    Zn3+2 0.586760 1.000000 0.289820 0.967853
Zn4   Zn    Zn3+2 0.413240 1.000000 0.710180 0.921915
Zn5   Zn    Zn3+2 0.000000 0.586760 0.289820 0.955903
Zn6   Zn    Zn3+2 0.000000 0.413240 0.710180 0.974806
Zn7   Zn    Zn3+2 0.413240 1.000000 0.289820 0.937716
Zn8   Zn    Zn3+2 0.586760 1.000000 0.710180 0.968341
Zn9   Zn    Zn3+2 0.500000 0.086760 0.210180 0.978964
Zn10  Zn    Zn3+2 0.086760 0.500000 0.789820 0.950465
Zn11  Zn    Zn3+2 0.913240 0.500000 0.210180 0.930414
Zn12  Zn    Zn3+2 0.500000 0.086760 0.789820 0.945955
Zn13  Zn    Zn3+2 0.500000 0.913240 0.210180 0.966147
Zn14  Zn    Zn3+2 0.913240 0.500000 0.789820 0.968605
Zn15  Zn    Zn3+2 0.086760 0.500000 0.210180 0.930921
Zn16  Zn    Zn3+2 1.000000 0.413240 0.289820 0.940480

loop_
_geom_bond_atom_site_label_1
_geom_bond_atom_site_label_2
_ccdc_geom_bond_type
C19   C122  A    
C6    C179  A    
H26   N8    S    
H52   N21   S    
C60   C113  S    
H20   N6    S    
C78   C167  S    
H59   N25   S    
C40   C145  A    
C67   O55   D    
C94   O82   D    
O45   Zn4   S    
C27   C55   A    
C154  N25   S    
C142  C177  A    
O13   Zn1   S    
C177  C182  A    
C57   C152  T    
C36   C47   A    
C143  C178  A    
H4    N29   S    
C10   C131  A    
C126  N29   S    
C96   O67   A    
C81   O69   D    
C64   C183  S    
C9    C19   A    
C11   C17   A    
C131  C166  A    
C83   O71   D    
C24   C119  T    
C134  C169  A    
H39   N15   S    
H40   N16   S    
C82   H83   S    
C25   C60   A    
H78   N27   S    
C49   C111  S    
C110  O40   A    
C50   C103  S    
C78   H80   S    
C11   C129  A    
C17   C52   A    
C129  N32   S    
C46   C141  T    
C66   H68   S    
H7    N31   S    
C71   O59   D    
C122  N12   S    
C90   C152  S    
C26   C38   A    
H24   N7    S    
C51   C104  S    
C115  O37   A    
C85   C169  S    
O29   Zn16  S    
C85   H86   S    
C73   C175  S    
O4    Zn16  S    
C120  O32   A    
O67   Zn6   S    
C147  N18   S    
C140  C176  A    
C38   C138  A    
C151  N22   S    
C72   C173  S    
C70   O58   D    
C96   O3    A    
O7    Zn13  S    
O22   Zn7   S    
H48   N19   S    
O25   Zn5   S    
O31   Zn15  S    
O30   Zn2   S    
C55   C117  S    
C82   O70   D    
C77   H79   S    
C146  C181  A    
C116  O33   A    
H53   N22   S    
H50   N20   S    
C22   C58   A    
C149  N20   S    
H21   N6    S    
C125  N28   S    
C79   O84   A    
O23   Zn14  S    
C153  N24   S    
C22   C127  A    
C10   C18   A    
C8    C43   A    
C99   C119  S    
H36   N14   S    
C132  N3    S    
C75   O63   D    
H67   N27   S    
C42   C143  A    
C89   H91   S    
O34   Zn15  S    
C70   C176  S    
C80   C168  S    
C53   C115  S    
C140  N11   S    
O48   Zn9   S    
C48   C110  S    
C16   C21   A    
H16   N4    S    
C121  C156  A    
C16   C51   A    
C16   C134  A    
O84   Zn8   S    
C125  C160  A    
O42   Zn12  S    
C106  O17   A    
O16   Zn2   S    
C65   O53   D    
C84   H85   S    
C107  O18   A    
C91   H92   S    
C86   H87   S    
C138  N9    S    
C95   C161  S    
O23   Zn2   S    
C156  C168  A    
C111  O41   A    
O1    Zn12  S    
C128  C164  A    
C150  N21   S    
C39   C146  A    
C80   O68   D    
C135  C170  A    
C99   O5    A    
H35   N13   S    
O40   Zn14  S    
C101  O11   A    
C149  C184  A    
C155  N26   S    
C4    C181  A    
C72   O60   D    
H18   N5    S    
H19   N5    S    
C72   H73   S    
H25   N8    S    
C65   H66   S    
C121  N1    S    
C13   C108  T    
C26   C54   A    
C114  O25   A    
C69   H70   S    
C15   C22   A    
C78   O66   D    
C100  C108  S    
C93   O81   D    
H44   N18   S    
H22   N7    S    
C91   O79   D    
C2    C97   T    
C33   C151  A    
C133  C168  A    
C61   H62   S    
C47   C109  S    
C159  C165  A    
C54   C116  S    
H9    N32   S    
C87   H88   S    
C36   C140  A    
C17   C124  A    
C90   O56   A    
C30   C59   A    
C10   C45   A    
H5    N30   S    
C21   C128  A    
C35   C130  T    
O12   Zn7   S    
C23   C126  A    
C19   C54   A    
C127  C162  A    
C64   H65   S    
C57   C68   S    
O21   Zn5   S    
C109  O19   A    
C31   C154  A    
C3    C62   S    
C61   C184  S    
C94   C160  S    
C95   H96   S    
C31   C41   A    
C85   O73   D    
C86   C170  S    
C86   O74   D    
C84   C172  S    
H30   N10   S    
C52   C114  S    
H41   N16   S    
C61   O49   D    
O46   Zn11  S    
O27   Zn3   S    
C148  C183  A    
C117  O28   A    
C73   O61   D    
C161  C171  A    
C107  O42   A    
O24   Zn8   S    
H2    N28   S    
O35   Zn1   S    
C136  N7    S    
H1    N1    S    
H28   N9    S    
C45   C107  S    
O15   Zn7   S    
C33   C58   A    
C100  O10   A    
O11   Zn9   S    
C11   C47   A    
C132  C167  A    
H23   N12   S    
C12   C48   A    
C157  C167  A    
C112  O22   A    
C77   C179  S    
C128  N31   S    
H11   N2    S    
C83   H84   S    
C76   C178  S    
C103  O47   A    
C88   O76   D    
C63   O51   D    
H89   N28   S    
O12   Zn3   S    
C102  O13   A    
O78   Zn5   S    
C25   C125  A    
C137  C172  A    
C5    C69   S    
O12   Zn9   S    
C90   O2    A    
C18   C53   A    
C96   C141  S    
C6    C65   S    
O3    Zn2   S    
H38   N15   S    
C126  C161  A    
O6    Zn10  S    
C98   O78   A    
C95   O83   D    
C18   C123  A    
C109  O43   A    
O20   Zn6   S    
H8    N31   S    
O37   Zn10  S    
H17   N4    S    
O23   Zn6   S    
H54   N22   S    
C28   C148  A    
C104  O48   A    
C26   C150  A    
C41   C144  A    
C110  O20   A    
H12   N1    S    
C73   H74   S    
C89   C156  S    
C115  O26   A    
O44   Zn10  S    
C29   C34   A    
C105  O16   A    
C7    C178  A    
O32   Zn14  S    
C31   C60   A    
C37   C43   A    
C23   C59   A    
C5    C180  A    
C38   C44   A    
C118  O31   A    
H6    N30   S    
C99   O9    A    
C162  C170  A    
H15   N3    S    
C98   C130  S    
C138  C173  A    
C58   C120  S    
C59   C112  S    
C135  N6    S    
C8    C20   A    
C69   O57   D    
C93   H94   S    
C76   O64   D    
O19   Zn3   S    
H57   N24   S    
C147  C182  A    
C30   C155  A    
O8    Zn12  S    
H37   N14   S    
H45   N23   S    
O14   Zn8   S    
O34   Zn16  S    
C40   C51   A    
C158  C166  A    
C82   C166  S    
C68   C163  T    
C92   C162  S    
C127  N30   S    
C34   C142  A    
C3    C150  A    
O1    Zn4   S    
C56   C118  S    
C113  O39   A    
C145  N16   S    
C70   H71   S    
C29   C147  A    
C21   C56   A    
C44   C106  S    
C118  O29   A    
C133  N4    S    
H31   N11   S    
C137  N8    S    
C129  C165  A    
H27   N9    S    
O9    Zn15  S    
H29   N10   S    
C14   C136  A    
C145  C180  A    
C122  C157  A    
C116  O27   A    
C104  O15   A    
C91   C157  S    
C32   C153  A    
C148  N19   S    
C7    C155  A    
C28   C36   A    
C30   C42   A    
C83   C171  S    
O39   Zn12  S    
H51   N21   S    
C35   C46   S    
C112  O38   A    
C1    C102  S    
C32   C56   A    
C139  N10   S    
C100  O6    A    
C175  C184  A    
C101  O7    A    
C176  C183  A    
C102  O8    A    
C76   H77   S    
C84   O72   D    
H49   N20   S    
C111  O21   A    
C139  C175  A    
C74   H75   S    
C66   O54   D    
C142  N13   S    
C63   H64   S    
C33   C39   A    
O56   Zn3   S    
C117  O35   A    
O34   Zn5   S    
C88   C159  S    
C14   C49   A    
C15   C135  A    
O28   Zn4   S    
C144  N15   S    
C124  C159  A    
C134  N5    S    
C43   C105  S    
C15   C50   A    
C92   H93   S    
H3    N29   S    
H10   N32   S    
C88   H90   S    
C94   H95   S    
C3    C173  A    
C103  O14   A    
C136  C171  A    
C62   O50   D    
H13   N2    S    
C79   O45   A    
O33   Zn9   S    
C27   C149  A    
C63   C182  S    
O41   Zn15  S    
C164  C169  A    
C20   C55   A    
O47   Zn1   S    
O26   Zn6   S    
C67   H69   S    
C160  C172  A    
C1    C174  T    
C77   O65   D    
C80   H81   S    
O12   Zn13  S    
C105  O44   A    
O10   Zn14  S    
O2    Zn7   S    
C9    C132  A    
C93   C164  S    
H14   N3    S    
C13   C24   S    
C14   C23   A    
H46   N18   S    
C123  N23   S    
H60   N26   S    
C144  C179  A    
H58   N25   S    
H56   N23   S    
O36   Zn11  S    
C34   C45   A    
C6    C154  A    
O5    Zn11  S    
H33   N13   S    
C20   C121  A    
O23   Zn10  S    
H43   N17   S    
C81   H82   S    
C75   C181  S    
C113  O24   A    
H61   N26   S    
C146  N17   S    
C87   O75   D    
C4    C151  A    
O18   Zn4   S    
C9    C44   A    
C8    C133  A    
H42   N17   S    
C106  O46   A    
C79   C163  S    
O34   Zn11  S    
C4    C67   S    
C143  N14   S    
C123  C158  A    
H32   N11   S    
C87   C158  S    
O1    Zn1   S    
C12   C25   A    
C71   C177  S    
C2    C174  S    
H47   N19   S    
C28   C52   A    
C62   H63   S    
C92   O80   D    
C29   C53   A    
C27   C37   A    
O38   Zn13  S    
C5    C153  A    
O43   Zn13  S    
O17   Zn16  S    
C41   C48   A    
C64   O52   D    
C32   C40   A    
C74   O62   D    
C71   H72   S    
C89   O77   D    
C42   C49   A    
C120  O30   A    
H55   N24   S    
C39   C50   A    
C74   C180  S    
C75   H76   S    
C37   C139  A    
O1    Zn8   S    
C114  O36   A    
C81   C165  S    
C12   C137  A    
C124  N27   S    
C98   O4    A    
C131  N2    S    
C97   C101  S    
H34   N12   S    
C7    C66   S    
