data_mof_unit_67423.cif
_audit_creation_date              2013-03-05T15:40:03-0500
_audit_creation_method            fapswitch 2.2
_symmetry_space_group_name_H-M    P1
_symmetry_Int_Tables_number       1
_space_group_crystal_system       triclinic
_cell_length_a                    7.499044
_cell_length_b                    8.718766
_cell_length_c                    11.095463
_cell_angle_alpha                 88.052111
_cell_angle_beta                  73.54622
_cell_angle_gamma                 99.662549
_cell_volume                      683.314708235

loop_
_atom_site_label
_atom_site_type_symbol
_atom_site_description
_atom_site_fract_x
_atom_site_fract_y
_atom_site_fract_z
_atom_type_partial_charge
O1    O     O_R   0.622710 0.286400 0.490790 -0.522810
O2    O     O_R   0.377290 0.713600 0.509210 -0.531391
O3    O     O_R   0.303660 0.256330 0.514730 -0.614387
O4    O     O_R   0.696340 0.743670 0.485270 -0.578571
C1    C     C_R   0.456246 0.201551 0.512031 0.865116
C2    C     C_R   0.543538 0.798368 0.487456 0.857140
O5    O     O_R   0.600900 0.509520 0.671740 -0.573621
O6    O     O_R   0.399100 0.490480 0.328260 -0.596929
O7    O     O_R   0.281840 0.479450 0.695690 -0.618617
O8    O     O_R   0.718160 0.520550 0.304310 -0.606096
C3    C     C_R   0.426069 0.493241 0.740826 0.911506
C4    C     C_R   0.574089 0.509166 0.258955 0.910044
Cu1   Cu    Cu3+1 0.688910 0.517800 0.485820 1.025217
Cu2   Cu    Cu3+1 0.311090 0.482200 0.514180 1.006308
C5    C     C_2   0.393213 0.454130 0.873097 -0.358836
C6    C     C_2   0.606605 0.548779 0.126266 -0.369526
C7    C     C_2   0.493104 0.538874 0.938719 0.353448
C8    C     C_2   0.495728 0.470900 0.063905 0.363128
H1    H     H_    0.696824 0.660226 0.091116 0.102431
H2    H     H_    0.318818 0.336382 0.904284 0.110731
C9    C     C_2   0.446672 0.038921 0.542011 -0.071382
C10   C     C_2   0.551239 0.960553 0.456667 -0.076217
N1    N     N_2   0.027170 0.455360 0.535550 0.104180
N2    N     N_2   0.972830 0.544640 0.464450 0.112448
O9    O     O_3   0.411950 0.316315 0.108410 -0.566144
C11   C     C_3   0.211996 0.290075 0.138223 0.031111
H3    H     H_    0.167329 0.193877 0.083852 0.181404
H4    H     H_    0.152729 0.393090 0.116279 0.119995
C12   C     C_3   0.124153 0.234307 0.276325 -0.637470
H5    H     H_    0.109637 0.335249 0.331359 0.262510
H6    H     H_    0.979961 0.167765 0.292536 0.216445
H7    H     H_    0.211617 0.161323 0.309444 0.272121
O10   O     O_3   0.562709 0.696523 0.898212 -0.572179
C13   C     C_3   0.763097 0.733972 0.862265 0.046380
H8    H     H_    0.834138 0.636537 0.879510 0.123691
H9    H     H_    0.803474 0.830716 0.917635 0.181760
C14   C     C_3   0.840717 0.794352 0.724020 -0.632575
H10   H     H_    0.737701 0.852096 0.693846 0.262081
H11   H     H_    0.973394 0.879386 0.708068 0.200288
H12   H     H_    0.875958 0.697808 0.665591 0.274651
I1    I     I_    0.343916 0.961104 0.737789 -0.456142
I2    I     I_    0.627072 0.031288 0.259932 -0.454403
O11   O     O_3   0.912794 0.313913 0.564027 -0.480832
C15   C     C_3   0.924811 0.240234 0.675768 0.169014
H13   H     H_    0.061369 0.269005 0.694469 0.183490
H14   H     H_    0.901306 0.113655 0.666089 0.148235
C16   C     C_3   0.771882 0.270628 0.790118 -0.779180
H15   H     H_    0.631081 0.236839 0.775345 0.265333
H16   H     H_    0.775043 0.200876 0.874891 0.228322
H17   H     H_    0.797699 0.395713 0.806100 0.232876
O12   O     O_3   0.085110 0.685360 0.429091 -0.481730
C17   C     C_3   0.136898 0.707896 0.296069 0.226211
H18   H     H_    0.103254 0.600929 0.248533 0.109500
H19   H     H_    0.292772 0.746234 0.261642 0.157849
C18   C     C_3   0.047408 0.836626 0.255064 -0.774463
H20   H     H_    0.020695 0.917763 0.329834 0.270095
H21   H     H_    0.142482 0.901339 0.165855 0.225020
H22   H     H_    0.911144 0.787443 0.238761 0.243424

loop_
_geom_bond_atom_site_label_1
_geom_bond_atom_site_label_2
_geom_bond_distance
_ccdc_geom_bond_type
Cu2   N1    2.046256 S    
O5    Cu1   1.974552 S    
O7    Cu2   1.961973 S    
C17   C18   1.519265 S    
C12   H5    1.091008 S    
O3    Cu2   1.960478 S    
C16   H17   1.104550 S    
C13   C14   1.518298 S    
C11   H4    1.115322 S    
C16   H15   1.106994 S    
C15   C16   1.515189 S    
O6    C4    1.299208 A    
C18   H20   1.105505 S    
N2    O12   1.342215 S    
O10   C13   1.418012 S    
C1    C9    1.430585 S    
C16   H16   1.110732 S    
C6    C8    1.341447 D    
O2    C2    1.291069 A    
C9    C10   1.334782 D    
C15   H13   1.091944 S    
O5    C3    1.299021 A    
O7    C3    1.304743 A    
C11   H3    1.110925 S    
C10   I2    2.134528 S    
C8    O9    1.396373 S    
O8    C4    1.306041 A    
C6    H1    1.076141 S    
O1    C1    1.293288 A    
C7    O10   1.395700 S    
C14   H10   1.108136 S    
C15   H14   1.101831 S    
C7    C8    1.498121 S    
C12   H7    1.109449 S    
C13   H9    1.111510 S    
C18   H21   1.110679 S    
O11   C15   1.409442 S    
C5    H2    1.076635 S    
O2    Cu2   1.990124 S    
C9    I1    2.132803 S    
O4    C2    1.307484 A    
O1    Cu1   1.990124 S    
N1    N2    1.281079 D    
O12   C17   1.413431 S    
C2    C10   1.431136 S    
C14   H11   1.102096 S    
N1    O11   1.349553 S    
C17   H18   1.114212 S    
C11   C12   1.512727 S    
C12   H6    1.100140 S    
C13   H8    1.113869 S    
C18   H22   1.106198 S    
O4    Cu1   1.960477 S    
C5    C7    1.340498 D    
C14   H12   1.101534 S    
O6    Cu2   1.974551 S    
O9    C11   1.417344 S    
Cu1   Cu2   2.723230 S    
C3    C5    1.436592 S    
C4    C6    1.442238 S    
Cu1   N2    2.046256 S    
C17   H19   1.109595 S    
O3    C1    1.305116 A    
O8    Cu1   1.961973 S    
