data_mof_unit_22526.cif
_audit_creation_date              2012-12-10T16:37:27-0500
_audit_creation_method            fapswitch 2.2
_symmetry_space_group_name_H-M    P1
_symmetry_Int_Tables_number       1
_space_group_crystal_system       triclinic
_cell_length_a                    16.67267
_cell_length_b                    16.665862
_cell_length_c                    16.67255
_cell_angle_alpha                 65.846044
_cell_angle_beta                  65.84236
_cell_angle_gamma                 65.845474
_cell_volume                      3690.744361

loop_
_atom_site_label
_atom_site_type_symbol
_atom_type_description
_atom_site_fract_x
_atom_site_fract_y
_atom_site_fract_z
_atom_type_partial_charge
C1    C     C_R   0.398552 0.053846 0.661394 0.653648
C2    C     C_R   0.398788 0.661166 0.054089 0.652661
C3    C     C_R   0.946094 0.601335 0.338461 0.658377
C4    C     C_R   0.053905 0.398063 0.661746 0.649433
C5    C     C_R   0.959392 0.179885 0.438983 0.923949
C6    C     C_R   0.040807 0.820068 0.560882 0.957356
C7    C     C_R   0.179948 0.439085 0.959208 0.954635
C8    C     C_R   0.820113 0.560991 0.040618 0.925565
C9    C     C_R   0.438956 0.959453 0.179882 0.927882
C10   C     C_R   0.560903 0.040785 0.820073 0.943402
C11   C     C_R   0.560881 0.820062 0.040867 0.940324
C12   C     C_R   0.601487 0.946774 0.337551 0.707221
C13   C     C_R   0.439012 0.179884 0.959392 0.926789
C14   C     C_R   0.040930 0.560809 0.820098 0.959098
C15   C     C_R   0.959004 0.439177 0.179905 0.937991
C16   C     C_R   0.820111 0.040950 0.560803 0.941046
C17   C     C_R   0.179906 0.959104 0.439128 0.955821
C18   C     C_R   0.440025 0.079650 0.701753 -0.008082
C19   C     C_R   0.560912 0.918842 0.298330 0.010063
C20   C     C_R   0.079557 0.701767 0.440014 -0.006781
C21   C     C_R   0.918553 0.298393 0.560944 0.008593
C22   C     C_R   0.701695 0.438729 0.081471 0.011504
C23   C     C_R   0.053631 0.661477 0.398574 0.652898
C24   C     C_R   0.298321 0.559847 0.920549 -0.009608
C25   C     C_R   0.298205 0.920237 0.559840 -0.009494
C26   C     C_R   0.701966 0.080012 0.439677 -0.010079
C27   C     C_R   0.561163 0.298324 0.918625 0.010998
C28   C     C_R   0.440156 0.701564 0.079948 -0.010258
C29   C     C_R   0.920024 0.560001 0.298208 -0.014081
C30   C     C_R   0.079725 0.439657 0.702009 -0.004580
C31   C     C_R   0.539832 0.029212 0.539387 -0.117352
C32   C     C_R   0.460220 0.971267 0.459686 -0.119689
C33   C     C_R   0.028984 0.539439 0.539862 -0.116266
C34   C     C_R   0.946459 0.337619 0.601532 0.711753
C35   C     C_R   0.970962 0.459797 0.460269 -0.119240
C36   C     C_R   0.540219 0.539254 0.029290 -0.116031
C37   C     C_R   0.460620 0.459698 0.971099 -0.115610
C38   C     C_R   0.586064 0.018419 0.450270 -0.037010
C39   C     C_R   0.413893 0.982349 0.548693 -0.035739
C40   C     C_R   0.018135 0.450318 0.586103 -0.035442
C41   C     C_R   0.982083 0.548810 0.413937 -0.037156
C42   C     C_R   0.451254 0.585599 0.018177 -0.035077
C43   C     C_R   0.549532 0.413171 0.982368 -0.062801
C44   C     C_R   0.548993 0.982814 0.413076 -0.061301
C45   C     C_R   0.662358 0.397981 0.053822 0.702699
C46   C     C_R   0.450899 0.018088 0.585729 -0.035571
C47   C     C_R   0.414265 0.548641 0.982355 -0.034881
C48   C     C_R   0.586728 0.450343 0.017946 -0.060149
C49   C     C_R   0.982500 0.413156 0.549041 -0.063203
C50   C     C_R   0.017847 0.585820 0.450937 -0.035528
C51   C     C_R   0.536506 0.064672 0.670293 -0.048172
C52   C     C_R   0.464044 0.934035 0.329659 -0.091338
C53   C     C_R   0.064613 0.670287 0.536491 -0.051140
C54   C     C_R   0.933755 0.329746 0.464080 -0.095427
C55   C     C_R   0.670343 0.535667 0.066205 -0.092044
C56   C     C_R   0.338680 0.601155 0.946526 0.652912
C57   C     C_R   0.329822 0.463386 0.935253 -0.050379
C58   C     C_R   0.329700 0.935048 0.463400 -0.050204
C59   C     C_R   0.670476 0.064918 0.536206 -0.047161
C60   C     C_R   0.464260 0.329669 0.933925 -0.093750
C61   C     C_R   0.536597 0.670088 0.065086 -0.046850
C62   C     C_R   0.934802 0.463523 0.329718 -0.046133
C63   C     C_R   0.064731 0.536206 0.670497 -0.050225
C64   C     C_R   0.588018 0.067527 0.719595 -0.204685
C65   C     C_R   0.412123 0.931928 0.280323 -0.231547
C66   C     C_R   0.067550 0.719572 0.587981 -0.204469
C67   C     C_R   0.338420 0.946332 0.601176 0.653460
C68   C     C_R   0.931760 0.280358 0.412146 -0.226200
C69   C     C_R   0.719670 0.587733 0.068178 -0.226295
C70   C     C_R   0.280451 0.411956 0.932368 -0.204589
C71   C     C_R   0.280372 0.932191 0.411970 -0.205116
C72   C     C_R   0.719678 0.067739 0.587841 -0.203728
C73   C     C_R   0.412256 0.280348 0.931859 -0.231580
C74   C     C_R   0.588031 0.719528 0.067809 -0.208656
C75   C     C_R   0.932022 0.412042 0.280374 -0.207948
C76   C     C_R   0.067666 0.587831 0.719666 -0.205631
C77   C     C_R   0.674953 0.077972 0.674868 0.497632
C78   C     C_R   0.661713 0.054210 0.398064 0.654530
C79   C     C_R   0.325049 0.921805 0.325001 0.524430
C80   C     C_R   0.078022 0.674831 0.674900 0.506041
C81   C     C_R   0.921683 0.325021 0.325050 0.521109
C82   C     C_R   0.674979 0.674866 0.078216 0.519848
C83   C     C_R   0.325157 0.325036 0.921825 0.525305
C84   C     C_R   0.582398 0.052608 0.582079 -0.028575
C85   C     C_R   0.417885 0.947110 0.417444 -0.008428
C86   C     C_R   0.052453 0.582093 0.582409 -0.029012
C87   C     C_R   0.946809 0.417562 0.417927 -0.006616
C88   C     C_R   0.582526 0.581762 0.053210 -0.009861
C89   C     C_R   0.601885 0.337590 0.946376 0.707460
C90   C     C_R   0.418135 0.417443 0.947086 -0.008029
F1    F     F_    0.305369 0.075722 0.688924 -0.601950
F2    F     F_    0.305621 0.688622 0.075940 -0.602233
F3    F     F_    0.924308 0.694528 0.311024 -0.596793
F4    F     F_    0.075688 0.304862 0.689417 -0.604202
F5    F     F_    0.719140 0.091534 0.719121 -0.649938
F6    F     F_    0.280713 0.908478 0.280722 -0.646584
F7    F     F_    0.091772 0.719036 0.719018 -0.645324
F8    F     F_    0.908506 0.280655 0.280679 -0.649209
F9    F     F_    0.719261 0.719284 0.091446 -0.648890
F10   F     F_    0.280822 0.280784 0.908438 -0.646460
F11   F     F_    0.694649 0.924984 0.310238 -0.583396
F12   F     F_    0.075407 0.689058 0.305403 -0.602398
F13   F     F_    0.924699 0.310274 0.694690 -0.577120
F14   F     F_    0.689777 0.304781 0.075604 -0.585476
F15   F     F_    0.311185 0.694350 0.924821 -0.601986
F16   F     F_    0.310840 0.924640 0.694347 -0.601927
F17   F     F_    0.689411 0.076020 0.304893 -0.598653
F18   F     F_    0.695051 0.310154 0.924594 -0.579006
H1    H     H_    0.342661 0.194806 0.729327 0.217386
H2    H     H_    0.822518 0.345109 0.101458 0.261185
H3    H     H_    0.182256 0.662463 0.902345 0.260287
H4    H     H_    0.270740 0.657494 0.805556 0.218452
H5    H     H_    0.270778 0.805102 0.657377 0.218238
H6    H     H_    0.182166 0.901811 0.662370 0.260958
H7    H     H_    0.818231 0.098219 0.337435 0.262120
H8    H     H_    0.729746 0.195087 0.342192 0.235804
H9    H     H_    0.586692 0.230745 0.826686 0.198407
H10   H     H_    0.654792 0.177523 0.898478 0.261432
H11   H     H_    0.337595 0.817677 0.098207 0.260783
H12   H     H_    0.337524 0.098017 0.817824 0.260626
H13   H     H_    0.342710 0.729195 0.195006 0.217515
H14   H     H_    0.805033 0.657703 0.270563 0.236226
H15   H     H_    0.901833 0.662504 0.182078 0.261931
H16   H     H_    0.098017 0.337233 0.818157 0.260987
H17   H     H_    0.194795 0.342254 0.729664 0.217511
H18   H     H_    0.654708 0.898522 0.177691 0.261469
H19   H     H_    0.586610 0.826696 0.230899 0.197395
H20   H     H_    0.194680 0.729264 0.342591 0.217420
H21   H     H_    0.097968 0.817855 0.337495 0.260461
H22   H     H_    0.898335 0.177670 0.654712 0.261047
H23   H     H_    0.826580 0.230805 0.586589 0.198550
H24   H     H_    0.769368 0.413189 0.173300 0.197219
N1    N     N_3   0.382405 0.133717 0.764250 -0.383444
N2    N     N_3   0.382469 0.764128 0.133937 -0.383388
N3    N     N_3   0.866002 0.617757 0.235705 -0.380475
N4    N     N_3   0.133740 0.382079 0.764537 -0.381682
N5    N     N_3   0.621669 0.859705 0.240975 -0.365111
N6    N     N_3   0.133657 0.764234 0.382360 -0.381828
N7    N     N_3   0.859498 0.240951 0.621675 -0.344693
N8    N     N_3   0.759263 0.378057 0.140389 -0.365195
N9    N     N_3   0.235817 0.617647 0.866546 -0.380968
N10   N     N_3   0.235809 0.866078 0.617557 -0.381076
N11   N     N_3   0.764518 0.134042 0.382154 -0.380807
N12   N     N_3   0.621816 0.240823 0.859613 -0.344577
O1    O     O_R   0.982940 0.138950 0.510160 -0.659411
O2    O     O_R   0.982940 0.510160 0.138950 -0.628031
O3    O     O_R   0.861050 0.017060 0.489840 -0.628965
O4    O     O_R   0.138950 0.982940 0.510160 -0.630233
O5    O     O_R   0.867700 0.025880 0.612340 -0.566915
O6    O     O_R   0.132300 0.974120 0.387660 -0.557231
O7    O     O_R   0.025880 0.612340 0.867700 -0.556905
O8    O     O_R   0.974120 0.387660 0.132300 -0.568222
O9    O     O_R   0.612340 0.867700 0.025880 -0.566038
O10   O     O_R   0.387660 0.132300 0.974120 -0.545769
O11   O     O_R   0.387660 0.974120 0.132300 -0.546145
O12   O     O_R   0.017060 0.861050 0.489840 -0.632664
O13   O     O_R   0.612340 0.025880 0.867700 -0.565044
O14   O     O_R   0.132300 0.387660 0.974120 -0.556233
O15   O     O_R   0.867700 0.612340 0.025880 -0.545738
O16   O     O_R   0.974120 0.132300 0.387660 -0.545664
O17   O     O_R   0.025880 0.867700 0.612340 -0.555978
O18   O     O_R   0.138950 0.510160 0.982940 -0.632335
O19   O     O_R   0.861050 0.489840 0.017060 -0.658037
O20   O     O_R   0.510160 0.982940 0.138950 -0.654937
O21   O     O_R   0.489840 0.017060 0.861050 -0.627983
O22   O     O_R   0.489840 0.861050 0.017060 -0.627062
O23   O     O_R   0.510160 0.138950 0.982940 -0.656311
O24   O     O_R   0.017060 0.489840 0.861050 -0.630524
Zn1   Zn    Zn3+2 0.004880 0.004880 0.583590 1.058365
Zn2   Zn    Zn3+2 0.995120 0.995120 0.416410 1.069426
Zn3   Zn    Zn3+2 0.004880 0.583590 0.004880 1.069800
Zn4   Zn    Zn3+2 0.995120 0.416410 0.995120 1.057275
Zn5   Zn    Zn3+2 0.583590 0.004880 0.004880 1.048332
Zn6   Zn    Zn3+2 0.416410 0.995120 0.995120 1.068919

loop_
_geom_bond_atom_site_label_1
_geom_bond_atom_site_label_2
_ccdc_geom_bond_type
C15   C75   S    
H18   N5    S    
C65   C79   A    
C22   N8    S    
C80   F7    S    
C64   C77   A    
C36   C42   A    
C25   N10   S    
C16   C72   S    
C7    C70   S    
C71   C79   A    
C7    O14   A    
O6    Zn2   S    
C36   C88   A    
C8    C69   S    
C26   C78   A    
O15   Zn3   S    
C37   C90   A    
C16   O3    A    
O5    Zn1   S    
C68   C81   A    
H6    N10   S    
C52   C85   A    
C61   C88   A    
H10   N12   S    
C27   C60   A    
C54   C87   A    
O8    Zn4   S    
C1    C46   A    
C13   O23   A    
C23   F12   S    
C54   C68   A    
C81   F8    S    
C40   C49   A    
O9    Zn5   S    
C60   C73   A    
O7    Zn3   S    
H5    N10   S    
C12   C19   A    
C18   N1    S    
H12   N1    S    
C82   F9    S    
C32   C39   A    
C20   N6    S    
C55   C88   A    
C3    C29   A    
H20   N6    S    
C69   C82   A    
C35   C87   A    
C19   C52   A    
O18   Zn3   S    
C17   O6    A    
C24   C57   A    
C31   C46   A    
C25   C67   A    
C14   O7    A    
C35   C49   A    
C11   O22   A    
C6    O17   A    
C36   C48   A    
C53   C86   A    
C57   C70   A    
C37   C47   A    
C43   C48   A    
O3    Zn2   S    
C59   C72   A    
O23   Zn5   S    
O17   Zn1   S    
C28   C61   A    
C1    F1    S    
O2    Zn3   S    
C74   C82   A    
C5    C68   S    
C35   C41   A    
H22   N7    S    
C15   O8    A    
C18   C51   A    
O4    Zn1   S    
O1    Zn1   S    
C32   C44   A    
C56   F15   S    
C7    O18   A    
H7    N11   S    
O22   Zn6   S    
C33   C40   A    
C5    O1    A    
C57   C90   A    
H21   N6    S    
H1    N1    S    
H11   N2    S    
C4    C40   A    
H9    N12   S    
C59   C84   A    
O10   Zn6   S    
C75   C81   A    
H16   N4    S    
C21   C34   A    
C38   C78   A    
C33   C50   A    
C8    O19   A    
C4    C30   A    
C31   C84   A    
H15   N3    S    
C78   F17   S    
C14   C76   S    
H4    N9    S    
C37   C43   A    
C9    O20   A    
C33   C86   A    
C38   C44   A    
C72   C77   A    
C70   C83   A    
C45   F14   S    
H8    N11   S    
C20   C23   A    
O24   Zn4   S    
C24   N9    S    
C19   N5    S    
C5    O16   A    
C17   O4    A    
C27   N12   S    
C1    C18   A    
O20   Zn5   S    
C3    F3    S    
C43   C89   A    
C2    F2    S    
O19   Zn4   S    
C10   O13   A    
C9    O11   A    
C16   O5    A    
C39   C46   A    
C4    F4    S    
O11   Zn6   S    
C29   N3    S    
C13   C73   S    
C17   C71   S    
C30   N4    S    
C83   F10   S    
C63   C86   A    
H13   N2    S    
C28   N2    S    
C62   C75   A    
C24   C56   A    
C25   C58   A    
C21   N7    S    
C14   O24   A    
C26   N11   S    
C58   C85   A    
C41   C50   A    
H17   N4    S    
C26   C59   A    
C45   C48   A    
C29   C62   A    
C3    C41   A    
C34   C49   A    
C39   C67   A    
C10   C64   S    
C51   C64   A    
C76   C80   A    
C20   C53   A    
C23   C50   A    
C11   C74   S    
C15   O2    A    
C67   F16   S    
C22   C55   A    
C60   C90   A    
C61   C74   A    
H24   N8    S    
C66   C80   A    
C62   C87   A    
C34   F13   S    
C31   C38   A    
C55   C69   A    
H2    N8    S    
O21   Zn6   S    
C12   F11   S    
C12   C44   A    
C53   C66   A    
O14   Zn4   S    
C21   C54   A    
C2    C42   A    
C10   O21   A    
C32   C85   A    
C89   F18   S    
O12   Zn2   S    
C77   F5    S    
C27   C89   A    
C42   C47   A    
C58   C71   A    
C9    C65   S    
H14   N3    S    
H23   N7    S    
C11   O9    A    
C6    C66   S    
C22   C45   A    
C13   O10   A    
C63   C76   A    
H3    N9    S    
C79   F6    S    
O16   Zn2   S    
C2    C28   A    
H19   N5    S    
C30   C63   A    
C8    O15   A    
C51   C84   A    
C73   C83   A    
C6    O12   A    
C52   C65   A    
O13   Zn5   S    
C47   C56   A    
