data_mof_unit_54733.cif
_audit_creation_date              2012-12-11T15:29:44-0500
_audit_creation_method            fapswitch 2.2
_symmetry_space_group_name_H-M    P1
_symmetry_Int_Tables_number       1
_space_group_crystal_system       triclinic
_cell_length_a                    13.486991
_cell_length_b                    13.498988
_cell_length_c                    27.581547
_cell_angle_alpha                 90.532571
_cell_angle_beta                  90.003327
_cell_angle_gamma                 60.054466
_cell_volume                      4350.89690886

loop_
_atom_site_label
_atom_site_type_symbol
_atom_type_description
_atom_site_fract_x
_atom_site_fract_y
_atom_site_fract_z
_atom_type_partial_charge
C1    C     C_R   0.620442 0.101256 0.569802 0.541827
C2    C     C_1   0.648945 0.705516 0.657969 -0.033501
C3    C     C_3   0.087292 0.137845 0.737304 -0.088012
C4    C     C_R   0.599667 0.779368 0.568484 0.545560
C5    C     C_3   0.177969 0.059664 0.774917 -0.168818
C6    C     C_1   0.098392 0.199542 0.900437 0.010577
C7    C     C_1   0.229754 0.137480 0.617112 0.006321
C8    C     C_3   0.060679 0.242574 0.769235 0.402073
C9    C     C_3   0.149965 0.165497 0.806231 0.038936
C10   C     C_3   0.151503 0.259279 0.742651 -0.066596
C11   C     C_3   0.179630 0.153305 0.711391 0.005311
C12   C     C_1   0.630828 0.732366 0.616029 0.005162
C13   C     C_3   0.242000 0.180902 0.780089 -0.110700
C14   C     C_3   0.270735 0.074715 0.748055 -0.090202
C15   C     C_1   0.126789 0.179610 0.858462 -0.010669
C16   C     C_R   0.277786 0.121603 0.569393 0.549280
C17   C     C_1   0.201939 0.146059 0.659131 -0.028136
C18   C     C_3   0.621906 0.277806 0.739490 0.372001
C19   C     C_3   0.552954 0.252370 0.777180 -0.054067
C20   C     C_1   0.691664 0.206839 0.901403 0.006819
C21   C     C_1   0.636173 0.133619 0.617544 0.016723
C22   C     C_3   0.731751 0.213631 0.769922 -0.107273
C23   C     C_3   0.684344 0.567039 0.767435 -0.031515
C24   C     C_3   0.663410 0.185847 0.806966 -0.047280
C25   C     C_3   0.762726 0.101248 0.742011 -0.202070
C26   C     C_3   0.652903 0.167244 0.711855 0.064676
C27   C     C_3   0.695039 0.073464 0.779892 -0.104532
C28   C     C_R   0.622027 0.100240 0.431553 0.543235
C29   C     C_3   0.585948 0.140244 0.749315 0.357739
C30   C     C_1   0.674798 0.196143 0.859301 -0.035313
C31   C     C_1   0.645147 0.152599 0.659585 0.029464
C32   C     C_R   0.641873 0.718806 0.383627 0.028410
C33   C     C_R   0.730244 0.724445 0.358795 0.369878
C34   C     C_3   0.679126 0.655430 0.804498 0.041599
C35   C     C_R   0.743106 0.704543 0.309337 -0.080714
C36   C     C_R   0.671715 0.674337 0.284264 -0.023944
C37   C     C_R   0.592962 0.655430 0.309920 -0.146057
C38   C     C_R   0.577519 0.678345 0.359357 -0.185865
C39   C     C_R   0.578365 0.700866 0.203882 -0.111854
C40   C     C_R   0.602294 0.776393 0.430556 0.559059
C41   C     C_R   0.586482 0.680429 0.154196 -0.122160
C42   C     C_R   0.792125 0.601748 0.158433 -0.105860
C43   C     C_R   0.784426 0.618977 0.208037 -0.114789
C44   C     C_R   0.678045 0.665159 0.231354 0.035682
C45   C     C_3   0.580153 0.663939 0.741115 -0.090027
C46   C     C_R   0.694116 0.626293 0.131653 0.026884
C47   C     C_R   0.223627 0.138532 0.383860 0.023024
C48   C     C_R   0.241767 0.043326 0.355982 -0.125111
C49   C     C_R   0.216902 0.055023 0.306884 -0.114565
C50   C     C_R   0.171453 0.162412 0.285181 0.037988
C51   C     C_R   0.144712 0.259131 0.313843 -0.116933
C52   C     C_R   0.278784 0.120200 0.431068 0.541863
C53   C     C_R   0.171253 0.247178 0.362910 -0.121355
C54   C     C_R   0.178904 0.246419 0.206160 -0.081493
C55   C     C_R   0.152764 0.264036 0.157058 0.376099
C56   C     C_3   0.662726 0.684391 0.710120 0.028080
C57   C     C_R   0.085976 0.127076 0.159698 -0.184705
C58   C     C_R   0.110539 0.111042 0.208703 -0.145737
C59   C     C_R   0.153975 0.173048 0.232601 -0.026448
C60   C     C_R   0.102112 0.207288 0.133878 0.027409
C61   C     C_R   0.641709 0.139494 0.385134 0.020502
C62   C     C_R   0.550377 0.233600 0.362457 -0.126650
C63   C     C_R   0.557717 0.254198 0.313759 -0.114096
C64   C     C_3   0.766773 0.587887 0.735661 -0.058936
C65   C     C_R   0.657040 0.182061 0.287247 0.036035
C66   C     C_R   0.752037 0.094292 0.310942 -0.115112
C67   C     C_3   0.575122 0.751904 0.778901 -0.117252
C68   C     C_R   0.744346 0.072855 0.359601 -0.102949
C69   C     C_R   0.711717 0.098460 0.204192 -0.078955
C70   C     C_R   0.723595 0.110178 0.154831 0.379973
C71   C     C_R   0.622798 0.316628 0.165246 -0.176827
C72   C     C_R   0.612475 0.304623 0.214608 -0.139386
C73   C     C_R   0.660037 0.195365 0.234634 -0.026216
C74   C     C_R   0.682487 0.219482 0.135377 0.035925
C75   C     C_R   0.049975 0.234793 0.948007 0.548729
C76   C     C_3   0.761824 0.675850 0.773572 -0.100139
C77   C     C_R   0.712010 0.561845 0.946410 0.549899
C78   C     C_3   0.657509 0.772837 0.747150 -0.113404
C79   C     C_R   0.722583 0.224105 0.949128 0.554206
C80   C     C_R   0.047739 0.243722 0.086416 0.563108
C81   C     C_R   0.709414 0.571980 0.084328 0.538113
C82   C     C_R   0.719704 0.233344 0.087454 0.575740
C83   C     C_1   0.697313 0.607677 0.898664 0.004508
C84   C     C_1   0.688167 0.634208 0.856667 -0.030482
Cr1   Cr    Cr6+3 0.417550 0.169090 0.500530 1.039579
Cr2   Cr    Cr6+3 0.669180 0.913420 0.499920 1.088513
Cr3   Cr    Cr6+3 0.413260 0.917540 0.499520 1.030386
Cr4   Cr    Cr6+3 0.909770 0.175810 0.018240 1.064104
Cr5   Cr    Cr6+3 0.913300 0.427650 0.016090 1.078343
Cr6   Cr    Cr6+3 0.657770 0.431010 0.016900 1.041229
F1    F     F_    0.951830 0.329591 0.780990 -0.668618
F2    F     F_    0.585154 0.382657 0.718128 -0.641096
F3    F     F_    0.510861 0.101914 0.737966 -0.668802
F4    F     F_    0.797915 0.758959 0.381025 -0.627481
F5    F     F_    0.172682 0.339699 0.132978 -0.616050
F6    F     F_    0.779225 0.014858 0.126574 -0.614172
H1    H     H_    0.836238 0.681125 0.787572 0.122835
H2    H     H_    0.804890 0.719220 0.290438 0.133412
H3    H     H_    0.862769 0.589970 0.228271 0.112632
H4    H     H_    0.540305 0.627274 0.291497 0.118126
H5    H     H_    0.510568 0.671183 0.377865 0.140759
H6    H     H_    0.282992 0.958287 0.371155 0.135632
H7    H     H_    0.216239 0.292079 0.223754 0.133887
H8    H     H_    0.238694 0.979073 0.285517 0.107499
H9    H     H_    0.090291 0.054185 0.228303 0.126967
H10   H     H_    0.046900 0.082087 0.142980 0.163328
H11   H     H_    0.106274 0.343399 0.298043 0.111347
H12   H     H_    0.305795 0.197844 0.798061 0.158946
H13   H     H_    0.155918 0.321830 0.383864 0.136550
H14   H     H_    0.745346 0.013480 0.218811 0.138163
H15   H     H_    0.483406 0.322539 0.296291 0.112185
H16   H     H_    0.572349 0.380593 0.237382 0.122322
H17   H     H_    0.496627 0.819377 0.797155 0.119472
H18   H     H_    0.591507 0.401828 0.151221 0.149320
H19   H     H_    0.816358 0.000470 0.376380 0.161951
H20   H     H_    0.505706 0.658617 0.727180 0.154405
H21   H     H_    0.695341 0.482147 0.776469 0.184414
H22   H     H_    0.189686 0.977523 0.788712 0.120466
H23   H     H_    0.138905 0.341923 0.729065 0.124714
H24   H     H_    0.022657 0.121886 0.719512 0.116967
H25   H     H_    0.358122 0.004758 0.738598 0.165957
H26   H     H_    0.791676 0.245016 0.778823 0.174124
H27   H     H_    0.876534 0.559386 0.141993 0.166714
H28   H     H_    0.646592 0.857693 0.738120 0.166490
H29   H     H_    0.470173 0.286749 0.381298 0.134930
H30   H     H_    0.830869 0.039855 0.291415 0.111773
H31   H     H_    0.466681 0.313810 0.791682 0.123833
H32   H     H_    0.723654 0.989232 0.796861 0.126676
H33   H     H_    0.848726 0.039840 0.727235 0.123025
H34   H     H_    0.845160 0.520584 0.717290 0.158605
H35   H     H_    0.494791 0.740716 0.220998 0.109587
H36   H     H_    0.509848 0.700759 0.133998 0.133301
O1    O     O_R   0.301780 0.195490 0.553940 -0.498039
O2    O     O_R   0.636050 0.541380 0.962520 -0.504569
O3    O     O_R   0.666480 0.323610 0.968170 -0.491916
O4    O     O_R   0.522450 0.158840 0.550250 -0.487579
O5    O     O_R   0.817280 0.156800 0.072180 -0.451113
O6    O     O_R   0.005110 0.187160 0.067410 -0.524889
O7    O     O_R   0.026450 0.340060 0.069950 -0.442924
O8    O     O_R   0.808300 0.527240 0.065170 -0.502871
O9    O     O_R   0.634070 0.548770 0.069460 -0.520261
O10   O     O_R   0.664650 0.330470 0.067300 -0.515446
O11   O     O_3   0.826940 0.344820 0.017080 -0.270077
O12   O     O_R   0.658840 0.818280 0.449970 -0.423242
O13   O     O_R   0.694460 0.003360 0.553820 -0.511722
O14   O     O_R   0.657750 0.819520 0.549120 -0.497047
O15   O     O_R   0.501990 0.803120 0.552700 -0.503270
O16   O     O_R   0.318230 0.023430 0.549370 -0.494986
O17   O     O_R   0.302950 0.194150 0.446980 -0.517671
O18   O     O_R   0.523540 0.157600 0.451100 -0.510648
O19   O     O_R   0.695630 0.002030 0.446860 -0.478944
O20   O     O_R   0.503160 0.801780 0.445740 -0.537786
O21   O     O_R   0.319320 0.022190 0.450230 -0.505461
O22   O     O_3   0.499990 0.000010 0.499990 -0.260220
O23   O     O_R   0.819250 0.149410 0.965240 -0.496697
O24   O     O_R   0.006940 0.180310 0.968270 -0.497879
O25   O     O_R   0.028420 0.332670 0.963010 -0.495113
O26   O     O_R   0.810130 0.520390 0.966030 -0.488601

loop_
_geom_bond_atom_site_label_1
_geom_bond_atom_site_label_2
_ccdc_geom_bond_type
C81   O8    A    
C66   C68   A    
C63   C65   A    
C28   O18   A    
C23   C45   S    
C27   C29   S    
C1    O13   A    
C35   C36   A    
C18   C26   S    
C24   C27   S    
C82   O10   A    
C25   H33   S    
C33   F4    S    
C49   H8    S    
C72   H16   S    
Cr2   O12   S    
Cr5   O26   S    
C39   C41   A    
C20   C30   T    
C1    C21   S    
C21   C31   T    
C5    C9    S    
C62   C63   A    
Cr3   O15   S    
C82   O5    A    
C50   C59   S    
Cr4   O24   S    
C36   C37   A    
C43   H3    S    
C38   H5    S    
Cr6   O2    S    
C11   C14   S    
C80   O6    A    
C77   C83   S    
C56   C78   S    
C40   O20   A    
C18   C19   S    
C42   C46   A    
C9    C13   S    
Cr1   O18   S    
C10   H23   S    
C6    C15   T    
C75   O24   A    
C60   C80   S    
C83   C84   T    
C45   C56   S    
C52   O17   A    
C7    C17   T    
C22   C25   S    
C70   C74   A    
C41   C46   A    
Cr3   O21   S    
C69   C73   A    
C32   C38   A    
C4    C12   S    
C1    O4    A    
C78   H28   S    
Cr4   O11   S    
Cr6   O11   S    
C77   O26   A    
C47   C53   A    
C28   C61   S    
C75   O25   A    
C81   O9    A    
C57   H10   S    
C2    C12   T    
C26   C31   S    
C14   H25   S    
C55   C60   A    
C63   H15   S    
C41   H36   S    
C61   C62   A    
C67   C78   S    
C34   C84   S    
C74   C82   S    
C13   H12   S    
C16   O1    A    
Cr2   O14   S    
C25   C26   S    
C42   H27   S    
C22   H26   S    
Cr1   O17   S    
C54   C59   A    
Cr3   O16   S    
Cr4   O23   S    
C54   H7    S    
C6    C75   S    
C55   F5    S    
C3    C8    S    
C3    H24   S    
C65   C73   S    
C8    C9    S    
C57   C60   A    
Cr1   O4    S    
Cr5   O7    S    
C76   H1    S    
Cr5   O11   S    
C4    O15   A    
C66   H30   S    
C71   H18   S    
C51   C53   A    
C70   F6    S    
C43   C44   A    
C45   C67   S    
C37   C38   A    
C71   C74   A    
C46   C81   S    
C69   H14   S    
C47   C48   A    
C23   C34   S    
C48   H6    S    
C56   C64   S    
C50   C51   A    
C64   C76   S    
Cr3   O22   S    
C8    F1    S    
C27   H32   S    
Cr4   O6    S    
C5    C14   S    
Cr6   O10   S    
C26   C29   S    
C8    C10   S    
C23   C64   S    
C52   O21   A    
C64   H34   S    
C49   C50   A    
Cr3   O20   S    
C40   O12   A    
C22   C24   S    
C36   C44   S    
C42   C43   A    
C39   C44   A    
C35   H2    S    
Cr2   O13   S    
C53   H13   S    
C61   C68   A    
C54   C55   A    
C11   C17   S    
C20   C79   S    
C18   C22   S    
C58   C59   A    
C7    C16   S    
C76   C78   S    
C72   C73   A    
C3    C5    S    
C10   C13   S    
C34   C67   S    
C23   H21   S    
C62   H29   S    
Cr5   O25   S    
C47   C52   S    
C25   C27   S    
C80   O7    A    
C79   O3    A    
C5    H22   S    
C16   O16   A    
C58   H9    S    
C18   F2    S    
C32   C33   A    
C19   C24   S    
C67   H17   S    
C71   C72   A    
C2    C56   S    
Cr2   O19   S    
C29   F3    S    
Cr6   O3    S    
C45   H20   S    
C57   C58   A    
C39   H35   S    
C48   C49   A    
C19   H31   S    
C33   C35   A    
Cr1   O22   S    
C32   C40   S    
Cr2   O22   S    
C69   C70   A    
C24   C30   S    
Cr4   O5    S    
Cr6   O9    S    
C3    C11   S    
C10   C11   S    
C68   H19   S    
C79   O23   A    
C28   O19   A    
C51   H11   S    
C65   C66   A    
C77   O2    A    
Cr1   O1    S    
C4    O14   A    
Cr5   O8    S    
C13   C14   S    
C37   H4    S    
C9    C15   S    
C34   C76   S    
C19   C29   S    
