data_mof_unit_31098.cif
_audit_creation_date              2013-03-05T15:45:46-0500
_audit_creation_method            fapswitch 2.2
_symmetry_space_group_name_H-M    P1
_symmetry_Int_Tables_number       1
_space_group_crystal_system       triclinic
_cell_length_a                    18.999486
_cell_length_b                    10.862165
_cell_length_c                    18.805948
_cell_angle_alpha                 90.251949
_cell_angle_beta                  90.442095
_cell_angle_gamma                 90.011375
_cell_volume                      3880.93473598

loop_
_atom_site_label
_atom_site_type_symbol
_atom_site_description
_atom_site_fract_x
_atom_site_fract_y
_atom_site_fract_z
_atom_type_partial_charge
O1    O     O_R   0.214270 0.709000 0.827470 -0.508702
O2    O     O_R   0.785730 0.709000 0.172530 -0.512300
O3    O     O_R   0.714270 0.209000 0.827470 -0.508743
O4    O     O_R   0.285730 0.209000 0.172530 -0.512192
O5    O     O_R   0.236160 0.958490 0.823130 -0.473851
O6    O     O_R   0.763840 0.958490 0.176870 -0.471867
O7    O     O_R   0.736160 0.458490 0.823130 -0.473806
O8    O     O_R   0.263840 0.458490 0.176870 -0.471857
C1    C     C_R   0.272951 0.041033 0.854513 0.602997
C2    C     C_R   0.727106 0.040859 0.145519 0.605155
C3    C     C_R   0.772951 0.541032 0.854513 0.603045
C4    C     C_R   0.227105 0.540859 0.145519 0.605156
O9    O     O_R   0.332080 0.075470 0.831280 -0.523458
O10   O     O_R   0.667920 0.075470 0.168720 -0.524755
O11   O     O_R   0.832080 0.575470 0.831280 -0.523475
O12   O     O_R   0.167920 0.575470 0.168720 -0.524747
O13   O     O_R   0.446300 0.918110 0.826620 -0.491120
O14   O     O_R   0.553700 0.918110 0.173380 -0.500551
O15   O     O_R   0.946300 0.418110 0.826620 -0.491075
O16   O     O_R   0.053700 0.418110 0.173380 -0.500552
C5    C     C_R   0.443147 0.817889 0.863170 0.616284
C6    C     C_R   0.557257 0.817430 0.136880 0.612923
C7    C     C_R   0.943148 0.317889 0.863170 0.616289
C8    C     C_R   0.057257 0.317430 0.136880 0.612926
O17   O     O_R   0.457110 0.716200 0.831760 -0.435207
O18   O     O_R   0.542890 0.716200 0.168240 -0.436613
O19   O     O_R   0.957110 0.216200 0.831760 -0.435202
O20   O     O_R   0.042890 0.216200 0.168240 -0.436620
O21   O     O_R   0.320980 0.624310 0.823030 -0.505956
O22   O     O_R   0.679020 0.624310 0.176970 -0.506073
O23   O     O_R   0.820980 0.124310 0.823030 -0.505963
O24   O     O_R   0.179020 0.124310 0.176970 -0.506010
C9    C     C_R   0.260226 0.635271 0.851362 0.587689
C10   C     C_R   0.739844 0.634737 0.148739 0.582014
C11   C     C_R   0.760226 0.135271 0.851362 0.587666
C12   C     C_R   0.239844 0.134738 0.148738 0.582159
O25   O     O_R   0.213890 0.710430 0.665540 -0.504320
O26   O     O_R   0.786110 0.710430 0.334460 -0.524958
O27   O     O_R   0.713890 0.210430 0.665540 -0.504495
O28   O     O_R   0.286110 0.210430 0.334460 -0.525039
O29   O     O_R   0.235810 0.959820 0.673020 -0.517427
O30   O     O_R   0.764190 0.959820 0.326980 -0.474711
O31   O     O_R   0.735810 0.459820 0.673020 -0.517295
O32   O     O_R   0.264190 0.459820 0.326980 -0.475085
C13   C     C_R   0.271454 0.047820 0.646755 0.579758
C14   C     C_R   0.727746 0.044676 0.354163 0.609571
C15   C     C_R   0.771549 0.547655 0.646643 0.580058
C16   C     C_R   0.227762 0.544747 0.354143 0.609523
O33   O     O_R   0.331700 0.076900 0.669350 -0.469260
O34   O     O_R   0.668300 0.076900 0.330650 -0.487782
O35   O     O_R   0.831700 0.576900 0.669350 -0.468875
O36   O     O_R   0.168300 0.576900 0.330650 -0.487709
O37   O     O_R   0.445950 0.919440 0.676520 -0.483223
O38   O     O_R   0.554050 0.919440 0.323480 -0.515450
O39   O     O_R   0.945950 0.419440 0.676520 -0.482952
O40   O     O_R   0.054050 0.419440 0.323480 -0.515480
C17   C     C_R   0.438611 0.818496 0.639110 0.560518
C18   C     C_R   0.526627 0.823706 0.351116 0.579565
C19   C     C_R   0.938632 0.318484 0.639104 0.560551
C20   C     C_R   0.026635 0.323696 0.351117 0.579479
O41   O     O_R   0.456730 0.717630 0.669840 -0.430582
O42   O     O_R   0.543270 0.717630 0.330160 -0.440886
O43   O     O_R   0.956730 0.217630 0.669840 -0.430637
O44   O     O_R   0.043270 0.217630 0.330160 -0.441083
O45   O     O_R   0.320620 0.625640 0.672920 -0.479133
O46   O     O_R   0.679380 0.625640 0.327080 -0.457352
O47   O     O_R   0.820620 0.125640 0.672920 -0.479152
O48   O     O_R   0.179380 0.125640 0.327080 -0.457260
C21   C     C_R   0.260153 0.636628 0.643984 0.592083
C22   C     C_R   0.739528 0.636665 0.356642 0.584307
C23   C     C_R   0.760161 0.136656 0.643975 0.591898
C24   C     C_R   0.239457 0.136962 0.356769 0.584851
Cr1   Cr    Cr6+3 0.229630 0.835900 0.747350 1.094371
Cr2   Cr    Cr6+3 0.770370 0.835900 0.252650 1.116150
Cr3   Cr    Cr6+3 0.729630 0.335900 0.747350 1.094299
Cr4   Cr    Cr6+3 0.270370 0.335900 0.252650 1.115975
Cr5   Cr    Cr6+3 0.387410 0.989850 0.750850 1.100127
Cr6   Cr    Cr6+3 0.612590 0.989850 0.249150 1.084463
Cr7   Cr    Cr6+3 0.887410 0.489850 0.750850 1.100428
Cr8   Cr    Cr6+3 0.112590 0.489850 0.249150 1.084397
Cr9   Cr    Cr6+3 0.385800 0.677120 0.749340 1.150383
Cr10  Cr    Cr6+3 0.614200 0.677120 0.250660 1.159940
Cr11  Cr    Cr6+3 0.885800 0.177120 0.749340 1.150283
Cr12  Cr    Cr6+3 0.114200 0.177120 0.250660 1.159936
O49   O     O_3   0.334280 0.834290 0.749180 -0.334473
O50   O     O_3   0.665720 0.834290 0.250820 -0.317161
O51   O     O_3   0.834280 0.334290 0.749180 -0.334538
O52   O     O_3   0.165720 0.334290 0.250820 -0.317222
C25   C     C_3   0.478557 0.927083 0.035510 -0.176553
C26   C     C_3   0.522227 0.927395 0.965239 -0.176242
C27   C     C_3   0.978556 0.427082 0.035510 -0.176563
C28   C     C_3   0.022227 0.427396 0.965239 -0.176229
C29   C     C_3   0.431152 0.825009 0.003788 0.159519
C30   C     C_3   0.569575 0.825002 0.996208 0.160907
C31   C     C_3   0.931153 0.325008 0.003788 0.159512
C32   C     C_3   0.069575 0.325004 0.996207 0.160907
H1    H     H_    0.459765 0.009386 0.064962 0.158962
H2    H     H_    0.541036 0.009951 0.936439 0.159974
H3    H     H_    0.959764 0.509385 0.064963 0.158951
H4    H     H_    0.041035 0.509952 0.936439 0.159991
C33   C     C_3   0.473659 0.825157 0.934612 -0.032972
C34   C     C_3   0.527049 0.824477 0.065357 -0.031553
C35   C     C_3   0.973659 0.325157 0.934612 -0.032974
C36   C     C_3   0.027049 0.324476 0.065357 -0.031557
C37   C     C_3   0.522004 0.724466 0.965510 0.181110
C38   C     C_3   0.478658 0.724175 0.033715 0.179985
C39   C     C_3   0.022004 0.224467 0.965509 0.181117
C40   C     C_3   0.978659 0.224175 0.033714 0.179984
C41   C     C_R   0.301485 0.526851 0.960802 -0.059318
C42   C     C_R   0.698343 0.526843 0.038851 -0.060459
C43   C     C_R   0.801485 0.026850 0.960802 -0.059315
C44   C     C_R   0.198343 0.026844 0.038851 -0.060471
H5    H     H_    0.345977 0.487484 0.933150 0.152390
H6    H     H_    0.653454 0.488416 0.066108 0.152310
H7    H     H_    0.845977 0.987483 0.933149 0.152384
H8    H     H_    0.153454 0.988415 0.066108 0.152311
C45   C     C_R   0.296965 0.514118 0.034424 -0.012598
C46   C     C_R   0.702885 0.514699 0.965186 -0.014195
C47   C     C_R   0.796965 0.014118 0.034424 -0.012595
C48   C     C_R   0.202885 0.014699 0.965186 -0.014193
H9    H     H_    0.335117 0.457073 0.061783 0.174641
H10   H     H_    0.664368 0.458689 0.937335 0.175049
H11   H     H_    0.835117 0.957072 0.061783 0.174640
H12   H     H_    0.164369 0.958687 0.937335 0.175050
C49   C     C_R   0.242137 0.571896 0.071721 0.109814
C50   C     C_R   0.758148 0.571771 0.928450 0.110363
C51   C     C_R   0.742137 0.071896 0.071721 0.109811
C52   C     C_R   0.258147 0.071773 0.928449 0.110375
C53   C     C_R   0.190741 0.637959 0.034124 -0.080750
C54   C     C_R   0.810119 0.636011 0.966599 -0.080409
C55   C     C_R   0.690741 0.137960 0.034124 -0.080750
C56   C     C_R   0.310117 0.136015 0.966598 -0.080401
H13   H     H_    0.146769 0.681591 0.060533 0.139658
H14   H     H_    0.854530 0.678681 0.940614 0.139196
H15   H     H_    0.646769 0.181593 0.060533 0.139656
H16   H     H_    0.354527 0.178687 0.940613 0.139205
C57   C     C_R   0.192599 0.643612 0.961271 -0.075008
C58   C     C_R   0.808260 0.640797 0.039453 -0.074314
C59   C     C_R   0.692599 0.143612 0.961271 -0.075015
C60   C     C_R   0.308259 0.140801 0.039452 -0.074324
H17   H     H_    0.151316 0.695357 0.934908 0.138016
H18   H     H_    0.850021 0.691060 0.066295 0.137101
H19   H     H_    0.651316 0.195358 0.934908 0.138008
H20   H     H_    0.350019 0.191067 0.066294 0.137107
C61   C     C_R   0.249264 0.592551 0.923877 0.093312
C62   C     C_R   0.750965 0.591168 0.076295 0.093833
C63   C     C_R   0.749264 0.092550 0.923877 0.093305
C64   C     C_R   0.250965 0.091170 0.076294 0.093803
C65   C     C_R   0.448258 0.715052 0.519763 0.155109
C66   C     C_R   0.458738 0.722070 0.446614 0.218479
C67   C     C_R   0.948156 0.215013 0.519759 0.154943
C68   C     C_R   0.958708 0.222052 0.446617 0.218358
C69   C     C_R   0.487113 0.830844 0.417590 0.019024
C70   C     C_R   0.453911 0.822688 0.562476 -0.015581
C71   C     C_R   0.987165 0.330803 0.417617 0.018835
C72   C     C_R   0.953958 0.322623 0.562492 -0.015392
C73   C     C_R   0.490360 0.938176 0.459080 -0.156972
C74   C     C_R   0.471628 0.934905 0.530410 -0.142062
C75   C     C_R   0.990577 0.438058 0.459153 -0.157367
C76   C     C_R   0.971902 0.434764 0.530485 -0.141623
H21   H     H_    0.510742 0.023172 0.437449 0.172572
H22   H     H_    0.475292 0.018954 0.561356 0.197379
H23   H     H_    0.011071 0.523000 0.437563 0.172698
H24   H     H_    0.975804 0.518713 0.561489 0.198204
C77   C     C_R   0.274608 0.699617 0.522821 -0.106551
C78   C     C_R   0.804620 0.650647 0.466091 -0.128325
C79   C     C_R   0.774399 0.199780 0.522798 -0.106734
C80   C     C_R   0.303679 0.153579 0.466659 -0.129324
H25   H     H_    0.295215 0.786839 0.542046 0.109305
H26   H     H_    0.846805 0.698132 0.439099 0.200126
H27   H     H_    0.794853 0.287127 0.542003 0.109385
H28   H     H_    0.345493 0.202403 0.439882 0.200652
C81   C     C_R   0.267088 0.680598 0.450525 0.164668
C82   C     C_R   0.805703 0.655306 0.538235 0.154288
C83   C     C_R   0.766945 0.180643 0.450506 0.164454
C84   C     C_R   0.304748 0.157492 0.538813 0.154859
C85   C     C_R   0.240427 0.568125 0.427316 0.055152
C86   C     C_R   0.754791 0.588425 0.576009 0.027878
C87   C     C_R   0.740467 0.068036 0.427324 0.055148
C88   C     C_R   0.254336 0.089177 0.576333 0.028107
C89   C     C_R   0.219189 0.476544 0.475019 -0.108490
C90   C     C_R   0.698382 0.532063 0.540046 -0.116137
C91   C     C_R   0.719577 0.976217 0.475035 -0.107800
C92   C     C_R   0.198225 0.032191 0.540206 -0.115855
H29   H     H_    0.195855 0.391412 0.455776 0.127146
H30   H     H_    0.659373 0.479240 0.568544 0.191064
H31   H     H_    0.696510 0.890852 0.455804 0.127413
H32   H     H_    0.159494 0.978499 0.568547 0.190999
C93   C     C_R   0.224973 0.496840 0.547377 0.159269
C94   C     C_R   0.694162 0.536437 0.466700 0.161239
C95   C     C_R   0.725403 0.996518 0.547386 0.159357
C96   C     C_R   0.194093 0.036787 0.466861 0.161274
C97   C     C_R   0.254712 0.607113 0.570596 0.062162
C98   C     C_R   0.747882 0.597480 0.429321 0.024537
C99   C     C_R   0.754725 0.107144 0.570588 0.061793
C100  C     C_R   0.247556 0.098821 0.429658 0.023680
N1    N     N_R   0.355056 0.825818 0.009365 0.067515
O53   O     O_R   0.316405 0.826906 0.952301 -0.424686
O54   O     O_R   0.325562 0.832080 0.071413 -0.320723
N2    N     N_R   0.645679 0.825644 0.990688 0.067595
O55   O     O_R   0.684306 0.825598 0.047776 -0.424825
O56   O     O_R   0.675224 0.832427 0.928716 -0.319752
N3    N     N_R   0.855056 0.325815 0.009366 0.067519
O57   O     O_R   0.816405 0.326905 0.952302 -0.424689
O58   O     O_R   0.825563 0.332083 0.071414 -0.320744
N4    N     N_R   0.145680 0.325646 0.990687 0.067600
O59   O     O_R   0.184307 0.325600 0.047776 -0.424838
O60   O     O_R   0.175224 0.332437 0.928715 -0.319734
Br1   Br    Br    0.293429 0.807148 0.385011 -0.473279
Br2   Br    Br    0.880227 0.754584 0.578776 -0.371774
Br3   Br    Br    0.793300 0.307032 0.384909 -0.474018
Br4   Br    Br    0.378748 0.257288 0.579813 -0.371268
Br5   Br    Br    0.186734 0.379186 0.612291 -0.448624
Br6   Br    Br    0.616805 0.450063 0.422572 -0.351821
Br7   Br    Br    0.687853 0.878252 0.612342 -0.448453
Br8   Br    Br    0.117221 0.949416 0.422510 -0.351794
N5    N     N_R   0.547784 0.618327 0.925492 0.093579
O61   O     O_R   0.515555 0.513097 0.929835 -0.321683
O62   O     O_R   0.590966 0.636112 0.873192 -0.284815
N6    N     N_R   0.452888 0.617765 0.072980 0.094064
O63   O     O_R   0.485136 0.512611 0.067904 -0.321340
O64   O     O_R   0.409724 0.635197 0.125422 -0.280720
N7    N     N_R   0.047785 0.118329 0.925491 0.093577
O65   O     O_R   0.015558 0.013099 0.929833 -0.321687
O66   O     O_R   0.090968 0.136117 0.873191 -0.284811
N8    N     N_R   0.952889 0.117764 0.072980 0.094064
O67   O     O_R   0.985136 0.012608 0.067901 -0.321345
O68   O     O_R   0.909726 0.135194 0.125421 -0.280725
Br9   Br    Br    0.432800 0.553116 0.558226 -0.327153
Br10  Br    Br    0.432881 0.581152 0.387430 -0.310746
Br11  Br    Br    0.932407 0.053066 0.558214 -0.326949
Br12  Br    Br    0.932862 0.081168 0.387413 -0.310341

loop_
_geom_bond_atom_site_label_1
_geom_bond_atom_site_label_2
_geom_bond_distance
_ccdc_geom_bond_type
C18   O42   1.257365 A    
C74   H22   1.082450 S    
C38   N6    1.460763 S    
N3    O57   1.295764 A    
O4    C12   1.265484 A    
C30   C37   1.526028 S    
O47   Cr11  1.968981 S    
C73   C74   1.391101 A    
O39   C19   1.307141 A    
C25   C34   1.550483 S    
O20   Cr12  2.095684 S    
C29   N1    1.450422 S    
N7    O65   1.299772 A    
C28   C32   1.543839 S    
C27   C36   1.550486 S    
C60   C64   1.403677 A    
Cr7   O51   1.968116 S    
O1    C9    1.266103 A    
O27   Cr3   2.070794 S    
O7    C3    1.276534 A    
N3    O58   1.299856 A    
C59   C63   1.403471 A    
O36   Cr8   2.079749 S    
C96   C100  1.410729 A    
C57   C61   1.403472 A    
C70   C74   1.404328 A    
C15   C86   1.435506 S    
O25   C21   1.257975 A    
C90   H30   1.083706 S    
N4    O60   1.299845 A    
C44   H8    1.082990 S    
C89   H29   1.084916 S    
C50   C54   1.400359 A    
C31   N3    1.450435 S    
C85   C89   1.403719 A    
O21   C9    1.280400 A    
C27   H3    1.110094 S    
O8    Cr4   1.957935 S    
O23   Cr11  1.949175 S    
C9    C61   1.458887 S    
C43   C47   1.395334 A    
O30   C14   1.261708 A    
C73   H21   1.083235 S    
O32   Cr4   1.940525 S    
C1    O9    1.265604 A    
C16   C85   1.416964 S    
C5    O17   1.279121 A    
C28   C35   1.549932 S    
C95   Br7   1.917898 S    
O45   Cr9   1.968981 S    
C12   C64   1.457227 S    
C7    C35   1.460954 S    
C4    O12   1.265897 A    
O28   Cr4   2.079759 S    
N2    O55   1.295800 A    
C66   C69   1.412266 A    
C45   C49   1.406636 A    
C67   C68   1.394008 A    
C92   C96   1.382071 A    
O6    Cr2   1.957935 S    
C83   Br3   1.918708 S    
O8    C4    1.278179 A    
O3    Cr3   2.068891 S    
Cr4   O52   1.988401 S    
C87   C91   1.403750 A    
O2    Cr2   2.060121 S    
C22   C98   1.440933 S    
C24   C100  1.440849 S    
C5    C33   1.460952 S    
O2    C10   1.265485 A    
O24   C12   1.280669 A    
O42   Cr10  2.066525 S    
Cr5   O49   1.968116 S    
O18   Cr10  2.095684 S    
C82   Br2   1.929892 S    
C82   C86   1.408150 A    
C33   C37   1.541200 S    
C42   C46   1.394355 A    
C80   C100  1.399877 A    
C54   H14   1.083414 S    
C3    O11   1.265602 A    
C67   Br11  1.929057 S    
O34   Cr6   2.079749 S    
C21   C97   1.418485 S    
N6    O63   1.299755 A    
C31   C35   1.536511 S    
C14   O34   1.259963 A    
C26   C30   1.543847 S    
C39   N7    1.460730 S    
C7    O19   1.279121 A    
C77   H25   1.084561 S    
O24   Cr12  1.945728 S    
O9    Cr5   2.066504 S    
C78   C82   1.357470 A    
C1    C52   1.458049 S    
O30   Cr2   1.940525 S    
O22   C10   1.280669 A    
C71   C75   1.401007 A    
O48   Cr12  1.972704 S    
O14   Cr6   1.963372 S    
Cr12  O52   1.967731 S    
C72   C76   1.404194 A    
C3    C50   1.458051 S    
C58   H18   1.083360 S    
C29   C33   1.536517 S    
C27   C28   1.565824 S    
C89   C93   1.381090 A    
O16   Cr8   1.963372 S    
N4    O59   1.295798 A    
C15   O35   1.257171 A    
C4    C49   1.459982 S    
C95   C99   1.391420 A    
N5    O61   1.299781 A    
Cr10  O50   1.967731 S    
O29   Cr1   1.949001 S    
O11   Cr7   2.066504 S    
C25   C29   1.543325 S    
O13   C5    1.291638 A    
O40   C20   1.277385 A    
C92   H32   1.083665 S    
O48   C24   1.272481 A    
O12   Cr8   2.072293 S    
C41   C45   1.395334 A    
O15   C7    1.291637 A    
C65   C70   1.419185 A    
C26   C33   1.549929 S    
O5    C1    1.276533 A    
C18   C69   1.464943 S    
C43   C63   1.403531 A    
C29   C38   1.526100 S    
O46   Cr10  1.972704 S    
O39   Cr7   1.947020 S    
O3    C11   1.266103 A    
C84   C88   1.407353 A    
C23   C99   1.418458 S    
C75   C76   1.390848 A    
C68   C71   1.412480 A    
C13   O33   1.257657 A    
O40   Cr8   1.951670 S    
C56   H16   1.083414 S    
O43   Cr11  2.069207 S    
C48   C52   1.406693 A    
C81   C85   1.389712 A    
C59   H19   1.083313 S    
C11   C63   1.458886 S    
C67   C72   1.419348 A    
Cr2   O50   1.988401 S    
O15   Cr7   1.968514 S    
C41   H5    1.082972 S    
C94   Br6   1.924275 S    
Cr1   O49   1.988410 S    
C86   C90   1.402056 A    
C46   H10   1.082173 S    
C93   Br5   1.917903 S    
C31   C40   1.526096 S    
C53   H13   1.083394 S    
Cr3   O51   1.988410 S    
O26   C22   1.267934 A    
C32   C39   1.526019 S    
O21   Cr9   1.949175 S    
C78   H26   1.083754 S    
N8    O68   1.300731 A    
C32   C36   1.536298 S    
C49   C53   1.400893 A    
C2    O10   1.265896 A    
O37   Cr5   1.947020 S    
O38   C18   1.277351 A    
C8    O20   1.280419 A    
C75   H23   1.083221 S    
C19   O43   1.286510 A    
C13   C88   1.435310 S    
N5    O62   1.300733 A    
C39   C40   1.529638 S    
C45   H9    1.082285 S    
C2    C51   1.459980 S    
C54   C58   1.371570 A    
C76   H24   1.082397 S    
C42   H6    1.082990 S    
C36   C40   1.540080 S    
C28   H4    1.110092 S    
O31   Cr3   1.949001 S    
C44   C48   1.394355 A    
O26   Cr2   2.079759 S    
C80   H28   1.083669 S    
C80   C84   1.357396 A    
C57   H17   1.083312 S    
C52   C56   1.400357 A    
O37   C17   1.307017 A    
O22   Cr10  1.945728 S    
O28   C24   1.267649 A    
O14   C6    1.290674 A    
C79   C99   1.404617 A    
C14   C87   1.416886 S    
O5    Cr1   1.949358 S    
C81   Br1   1.918881 S    
C32   N4    1.450489 S    
C60   H20   1.083359 S    
C26   H2    1.110095 S    
O31   C15   1.275342 A    
O17   Cr9   2.092812 S    
C77   C97   1.404552 A    
Cr11  O51   1.968092 S    
O6    C2    1.278180 A    
O7    Cr3   1.949358 S    
C19   C72   1.472965 S    
N7    O66   1.300753 A    
C17   O41   1.286666 A    
C66   Br10  1.949201 S    
C91   C95   1.381031 A    
C41   C61   1.403531 A    
C47   H11   1.082285 S    
C56   C60   1.371571 A    
C46   C50   1.406692 A    
C37   C38   1.529630 S    
C83   C87   1.389571 A    
O25   Cr1   2.070794 S    
C6    C34   1.460626 S    
C84   Br4   1.929143 S    
C79   H27   1.084589 S    
N6    O64   1.300745 A    
C20   O44   1.257233 A    
C35   C39   1.541202 S    
C65   Br9   1.928145 S    
C51   C55   1.400891 A    
N1    O54   1.299856 A    
C20   C71   1.464922 S    
O1    Cr1   2.068891 S    
Cr8   O52   1.968696 S    
O32   C16   1.261954 A    
O41   Cr9   2.069207 S    
C65   C66   1.393913 A    
C37   N5    1.460742 S    
C44   C64   1.402913 A    
O13   Cr5   1.968514 S    
C10   C62   1.457225 S    
Cr6   O50   1.968696 S    
O46   C22   1.272361 A    
C40   N8    1.460769 S    
C58   C62   1.403675 A    
O45   C21   1.273247 A    
C78   C98   1.399461 A    
O23   C11   1.280401 A    
O19   Cr11  2.092812 S    
O38   Cr6   1.951670 S    
O33   Cr5   2.086060 S    
C34   C38   1.540079 S    
C79   C83   1.380608 A    
O47   C23   1.273217 A    
O10   Cr6   2.072293 S    
C69   C73   1.401097 A    
N1    O53   1.295767 A    
O16   C8    1.290676 A    
O35   Cr7   2.086060 S    
O4    Cr4   2.060121 S    
C55   C59   1.372444 A    
C48   H12   1.082172 S    
C94   C98   1.410820 A    
C27   C31   1.543321 S    
C55   H15   1.083394 S    
C30   N2    1.450466 S    
C93   C97   1.391390 A    
C16   O36   1.259890 A    
C53   C57   1.372443 A    
C30   C34   1.536306 S    
O44   Cr12  2.066525 S    
N2    O56   1.299848 A    
N8    O67   1.299761 A    
C6    O18   1.280419 A    
C25   H1    1.110093 S    
O29   C13   1.274893 A    
C43   H7    1.082974 S    
C90   C94   1.382074 A    
C8    C36   1.460627 S    
C25   C26   1.565822 S    
C42   C62   1.402913 A    
C17   C70   1.473293 S    
C77   C81   1.380615 A    
C96   Br8   1.924367 S    
Cr9   O49   1.968092 S    
C91   H31   1.084952 S    
C88   C92   1.402182 A    
C68   Br12  1.949072 S    
O27   C23   1.257944 A    
C47   C51   1.406637 A    
