data_mof_unit_47474.cif
_audit_creation_date              2012-12-10T18:22:29-0500
_audit_creation_method            fapswitch 2.2
_symmetry_space_group_name_H-M    P1
_symmetry_Int_Tables_number       1
_space_group_crystal_system       triclinic
_cell_length_a                    23.604784
_cell_length_b                    10.695692
_cell_length_c                    9.548715
_cell_angle_alpha                 90.09847
_cell_angle_beta                  89.580765
_cell_angle_gamma                 89.963184
_cell_volume                      2410.69068384

loop_
_atom_site_label
_atom_site_type_symbol
_atom_type_description
_atom_site_fract_x
_atom_site_fract_y
_atom_site_fract_z
_atom_type_partial_charge
C1    C     C_R   0.498799 0.260330 0.499636 0.880043
C2    C     C_R   0.499514 0.739862 0.500352 0.854359
C3    C     C_R   0.239064 0.582928 0.563623 -0.091189
C4    C     C_R   0.761532 0.451054 0.608987 -0.122391
C5    C     C_R   0.297719 0.588152 0.560892 0.391425
C6    C     C_R   0.702732 0.450893 0.610385 0.419674
C7    C     C_R   0.329241 0.489695 0.501633 -0.146687
C8    C     C_R   0.672211 0.504528 0.498174 -0.182237
C9    C     C_R   0.301010 0.385727 0.440600 -0.170722
C10   C     C_R   0.702998 0.557094 0.382960 -0.160391
C11   C     C_R   0.240824 0.388401 0.430588 -0.020558
C12   C     C_R   0.763045 0.546819 0.378363 -0.007881
C13   C     C_R   0.209986 0.486151 0.496911 0.217184
C14   C     C_R   0.792068 0.496595 0.494526 0.223492
C15   C     C_3   0.544482 0.043487 0.561113 0.428817
C16   C     C_3   0.450514 0.956609 0.439153 0.413374
C17   C     C_3   0.543198 0.959460 0.429793 -0.153703
C18   C     C_3   0.451761 0.041547 0.570113 -0.151145
C19   C     C_3   0.498365 0.876469 0.501287 -0.235001
C20   C     C_3   0.496991 0.124041 0.498648 -0.207134
C21   C     C_3   0.499364 0.960611 0.632524 -0.165865
C22   C     C_3   0.495479 0.039820 0.367423 -0.200184
C23   C     C_R   0.391524 0.497943 0.500539 0.835253
C24   C     C_R   0.608974 0.501699 0.499536 0.835317
C25   C     C_3   0.496508 0.611905 0.049090 0.326943
C26   C     C_3   0.503822 0.387993 0.950654 0.406593
C27   C     C_3   0.454448 0.548781 0.950972 -0.206339
C28   C     C_3   0.545798 0.451121 0.048966 -0.184703
C29   C     C_3   0.542256 0.562777 0.949045 0.332805
C30   C     C_3   0.457971 0.437124 0.050394 0.420755
C31   C     C_R   0.882324 0.605952 0.488780 0.595750
C32   C     C_R   0.119338 0.386744 0.549192 0.595871
C33   C     C_R   0.881150 0.384484 0.516350 0.606497
C34   C     C_R   0.120597 0.591655 0.451722 0.599306
C35   C     C_R   0.940427 0.381976 0.522706 -0.013152
C36   C     C_R   0.061358 0.597407 0.458845 -0.015392
C37   C     C_R   0.970974 0.492405 0.495798 -0.022476
C38   C     C_R   0.030787 0.489366 0.495463 -0.027098
C39   C     C_R   0.941757 0.605745 0.470169 -0.018644
C40   C     C_R   0.060032 0.378745 0.532350 -0.015408
C41   C     C_R   0.969461 0.270535 0.550689 -0.217400
C42   C     C_R   0.032429 0.707915 0.426345 -0.211603
C43   C     C_R   0.028672 0.266754 0.554268 -0.014023
C44   C     C_R   0.973258 0.713641 0.430294 -0.038511
Cu1   Cu    Cu3+1 0.500010 0.499990 0.643150 1.097191
Cu2   Cu    Cu3+1 0.499990 0.500010 0.356850 1.069606
H1    H     H_    0.945965 0.184612 0.567123 0.184375
H2    H     H_    0.055991 0.790508 0.395283 0.197756
H3    H     H_    0.215588 0.657451 0.614603 0.200326
H4    H     H_    0.784103 0.413258 0.697816 0.200008
N1    N     N_R   0.853190 0.495533 0.499684 -0.449141
N2    N     N_R   0.148694 0.487800 0.498368 -0.451858
N3    N     N_3   0.500040 0.499970 0.858290 -0.280101
N4    N     N_3   0.499960 0.500030 0.141710 -0.266338
O1    O     O_R   0.500030 0.316850 0.620870 -0.483297
O2    O     O_R   0.499970 0.683150 0.379130 -0.527171
O3    O     O_R   0.500000 0.316860 0.379090 -0.580256
O4    O     O_R   0.500000 0.683140 0.620910 -0.604703
O5    O     O_R   0.417890 0.499960 0.620920 -0.560522
O6    O     O_R   0.582110 0.500040 0.379080 -0.599308
O7    O     O_R   0.417870 0.499970 0.379140 -0.536068
O8    O     O_R   0.582130 0.500030 0.620860 -0.486253
O9    O     O_2   0.853699 0.714703 0.499503 -0.486255
O10   O     O_2   0.147400 0.297038 0.619496 -0.487959
O11   O     O_2   0.851658 0.276760 0.526551 -0.483777
O12   O     O_2   0.149875 0.689248 0.398591 -0.482029
C45   C     C_2   0.403097 0.612649 0.895955 0.647338
H5    H     H_    0.407960 0.699781 0.839585 0.120424
O13   O     O_2   0.356043 0.568858 0.916132 -0.446117
C46   C     C_2   0.599126 0.392104 0.101225 0.574776
H6    H     H_    0.639735 0.422766 0.060749 0.159707
O14   O     O_2   0.597281 0.306170 0.184767 -0.527067
Cl1   Cl    Cl    0.490170 0.769311 0.106333 -0.526097
Cl2   Cl    Cl    0.510226 0.230090 0.894307 -0.442373
Cl3   Cl    Cl    0.600086 0.651745 0.881725 -0.505772
Cl4   Cl    Cl    0.400188 0.347101 0.112965 -0.414262
C47   C     C_2   0.054663 0.141138 0.567841 0.475321
H7    H     H_    0.034648 0.071494 0.634339 0.054443
O15   O     O_2   0.095829 0.111014 0.497327 -0.482108
C48   C     C_2   0.947498 0.831495 0.379772 0.515211
H8    H     H_    0.966684 0.920462 0.406935 0.043703
O16   O     O_2   0.907600 0.830231 0.299118 -0.464351
Cl5   Cl    Cl    0.329889 0.724592 0.625705 -0.569436
Cl6   Cl    Cl    0.670432 0.376791 0.755233 -0.464888
C49   C     C_2   0.335433 0.276401 0.391170 0.536599
H9    H     H_    0.379427 0.268066 0.420863 0.068621
O17   O     O_2   0.316324 0.195289 0.315069 -0.464908
C50   C     C_2   0.672430 0.627037 0.271683 0.420371
H10   H     H_    0.634846 0.679882 0.298333 0.093890
O18   O     O_2   0.687751 0.624343 0.149396 -0.519452
C51   C     C_2   0.209551 0.292029 0.350180 0.589519
H11   H     H_    0.217195 0.193416 0.367892 0.147595
O19   O     O_2   0.174065 0.322666 0.264378 -0.494284
C52   C     C_2   0.796006 0.590724 0.254568 0.563558
H12   H     H_    0.785634 0.678552 0.204326 0.142220
O20   O     O_2   0.835157 0.528525 0.207426 -0.512786
C53   C     C_2   0.593635 0.915387 0.347497 0.416166
H13   H     H_    0.587551 0.868587 0.248082 0.120735
O21   O     O_2   0.641531 0.933292 0.390180 -0.452098
C54   C     C_2   0.399748 0.082601 0.648967 0.560843
H14   H     H_    0.368239 0.013809 0.679116 0.150425
O22   O     O_2   0.392830 0.191955 0.681224 -0.514322
Cl7   Cl    Cl    0.606737 0.101174 0.643643 -0.407889
Cl8   Cl    Cl    0.388001 0.897146 0.359085 -0.393539
C55   C     C_2   0.502409 0.918807 0.781541 0.559271
H15   H     H_    0.540089 0.872325 0.818796 0.145873
O23   O     O_2   0.462925 0.938245 0.861682 -0.448817
C56   C     C_2   0.493795 0.081752 0.218112 0.605366
H16   H     H_    0.531049 0.122942 0.170845 0.123607
O24   O     O_2   0.451066 0.068175 0.148762 -0.352862

loop_
_geom_bond_atom_site_label_1
_geom_bond_atom_site_label_2
_ccdc_geom_bond_type
C8    C24   S    
C18   C21   S    
C50   O18   D    
C36   C42   A    
C34   O12   S    
C53   H13   S    
C3    H3    S    
C33   O11   S    
C47   H7    S    
C23   O5    A    
C30   N4    S    
C10   C50   S    
C18   C54   S    
C28   C29   S    
C35   C37   A    
C49   H9    S    
C5    Cl5   S    
C22   C56   S    
Cu1   O8    S    
C56   H16   S    
C18   C20   S    
C7    C9    A    
C26   Cl2   S    
C9    C49   S    
C16   Cl8   S    
C40   C43   A    
C32   N2    A    
C56   O24   D    
C24   O8    A    
C46   H6    S    
C25   Cl1   S    
C3    C13   A    
C55   O23   D    
C49   O17   D    
Cu1   N3    S    
C27   N3    S    
C27   C30   S    
C41   C43   A    
C12   C52   S    
C42   C44   A    
C53   O21   D    
C47   O15   D    
C25   C29   S    
C15   C20   S    
Cu1   O4    S    
C6    Cl6   S    
Cu2   O7    S    
C45   H5    S    
C31   O9    S    
C44   C48   S    
C25   N4    S    
C32   O10   S    
C4    C6    A    
C31   N1    A    
C51   H11   S    
C5    C7    A    
C28   N4    S    
C6    C8    A    
Cu1   Cu2   S    
C33   N1    A    
C4    H4    S    
C45   O13   D    
C37   C38   A    
C1    O3    A    
C51   O19   D    
C13   N2    S    
C30   Cl4   S    
C14   N1    S    
C15   C21   S    
C24   O6    A    
Cu2   N4    S    
C54   O22   D    
C41   H1    S    
C16   C18   S    
C42   H2    S    
C52   O20   D    
C9    C11   A    
C10   C12   A    
C48   O16   D    
C12   C14   A    
C26   C30   S    
Cu2   O3    S    
C25   C27   S    
C26   N3    S    
C15   C17   S    
Cu1   O5    S    
C1    C20   S    
C16   C22   S    
Cu2   O6    S    
C2    C19   S    
C26   C28   S    
C28   C46   S    
C20   C22   S    
C48   H8    S    
C3    C5    A    
C2    O4    A    
C39   C44   A    
C29   Cl3   S    
C43   C47   S    
C55   H15   S    
C34   N2    A    
C17   C22   S    
C36   C38   A    
C1    O1    A    
C37   C39   A    
C2    O2    A    
C38   C40   A    
C11   C13   A    
C33   C35   A    
C29   N3    S    
C16   C19   S    
C7    C23   S    
C54   H14   S    
C17   C19   S    
C31   C39   A    
C34   C36   A    
C32   C40   A    
C4    C14   A    
C52   H12   S    
C35   C41   A    
C27   C45   S    
C11   C51   S    
C23   O7    A    
C50   H10   S    
Cu1   O1    S    
C8    C10   A    
Cu2   O2    S    
C46   O14   D    
C15   Cl7   S    
C17   C53   S    
C21   C55   S    
C19   C21   S    
