data_mof_unit_55506.cif
_audit_creation_date              2012-12-10T17:15:07-0500
_audit_creation_method            fapswitch 2.2
_symmetry_space_group_name_H-M    P1
_symmetry_Int_Tables_number       1
_space_group_crystal_system       triclinic
_cell_length_a                    10.172484
_cell_length_b                    10.343966
_cell_length_c                    12.898997
_cell_angle_alpha                 91.411222
_cell_angle_beta                  92.707666
_cell_angle_gamma                 92.717999
_cell_volume                      1353.75023369

loop_
_atom_site_label
_atom_site_type_symbol
_atom_type_description
_atom_site_fract_x
_atom_site_fract_y
_atom_site_fract_z
_atom_type_partial_charge
C1    C     C_R   0.449275 0.264287 0.487142 0.966624
C2    C     C_R   0.652028 0.409408 0.042745 -0.205409
C3    C     C_R   0.343090 0.533751 0.848967 -0.311603
C4    C     C_R   0.646319 0.430831 0.148784 -0.268753
C5    C     C_R   0.551475 0.427396 0.870172 0.405337
C6    C     C_R   0.415558 0.483383 0.124923 0.395485
C7    C     C_R   0.544612 0.438713 0.977084 0.004645
C8    C     C_R   0.428450 0.482953 0.018714 0.002283
C9    C     C_2   0.433814 0.126818 0.459486 -0.496002
C10   C     C_2   0.577117 0.873025 0.491825 -0.484500
C11   C     C_2   0.530013 0.071232 0.407840 0.368980
C12   C     C_R   0.552402 0.735546 0.504399 0.999548
C13   C     C_2   0.531778 0.928299 0.404896 0.366638
C14   C     C_3   0.219127 0.383220 0.160816 0.138156
C15   C     C_3   0.072928 0.407691 0.162821 -0.825085
C16   C     C_3   0.602089 0.229782 0.808939 0.104706
C17   C     C_3   0.702977 0.154136 0.752592 -0.775674
C18   C     C_3   0.461942 0.922098 0.228774 0.084854
C19   C     C_3   0.420723 0.829492 0.138397 -0.826744
C20   C     C_3   0.748144 0.097676 0.363232 0.128840
C21   C     C_3   0.844044 0.187364 0.309242 -0.846682
C22   C     C_3   0.906824 0.492637 0.707475 0.243392
C23   C     C_2   0.073679 0.478589 0.501425 0.038060
C24   C     C_3   0.981016 0.438204 0.800550 -0.882779
C25   C     C_3   0.189552 0.738204 0.377628 0.302288
C26   C     C_3   0.113020 0.835627 0.315728 -0.951102
C27   C     C_2   0.926766 0.490492 0.480142 -0.026558
C28   C     C_R   0.474291 0.498320 0.698251 0.883119
C29   C     C_R   0.522675 0.490580 0.300953 0.959468
C30   C     C_R   0.529063 0.469348 0.190225 -0.157506
C31   C     C_R   0.456065 0.486231 0.807211 -0.158311
C32   C     C_R   0.326929 0.527488 0.953987 -0.188553
H1    H     H_    0.732955 0.416021 0.198230 0.190562
H2    H     H_    0.014610 0.314370 0.153473 0.195036
H3    H     H_    0.050253 0.454335 0.237649 0.293708
H4    H     H_    0.509116 0.225026 0.759250 0.117567
H5    H     H_    0.583715 0.181958 0.883703 0.128786
H6    H     H_    0.797235 0.155312 0.799660 0.243578
H7    H     H_    0.665656 0.052108 0.739716 0.178327
H8    H     H_    0.720203 0.196899 0.676070 0.298447
H9    H     H_    0.238232 0.564172 0.984668 0.192194
H10   H     H_    0.742712 0.377300 0.012115 0.186732
H11   H     H_    0.550219 0.980414 0.206293 0.175892
H12   H     H_    0.267575 0.576429 0.800644 0.185838
H13   H     H_    0.379516 0.986528 0.242047 0.139883
H14   H     H_    0.501359 0.763906 0.123127 0.261023
H15   H     H_    0.330832 0.770913 0.156271 0.279163
H16   H     H_    0.399265 0.885144 0.067561 0.200397
H17   H     H_    0.749021 0.000875 0.323774 0.139664
H18   H     H_    0.783093 0.090937 0.445991 0.151607
H19   H     H_    0.843742 0.286530 0.343752 0.266663
H20   H     H_    0.945166 0.151759 0.318031 0.208771
H21   H     H_    0.814975 0.190233 0.225287 0.241561
H22   H     H_    0.813683 0.530782 0.733481 0.195748
H23   H     H_    0.620814 0.930927 0.557188 0.096687
H24   H     H_    0.968460 0.574981 0.679004 0.083180
H25   H     H_    0.074371 0.398028 0.776089 0.249387
H26   H     H_    0.004421 0.516169 0.860220 0.200736
H27   H     H_    0.920184 0.360422 0.835388 0.284154
H28   H     H_    0.280940 0.720200 0.337721 0.241331
H29   H     H_    0.211409 0.781064 0.457035 0.127069
H30   H     H_    0.093858 0.799378 0.234384 0.269423
H31   H     H_    0.017506 0.851396 0.351287 0.257579
H32   H     H_    0.170472 0.929531 0.315621 0.213642
H33   H     H_    0.352723 0.069148 0.489512 0.111658
H34   H     H_    0.892972 0.540585 0.411730 0.160537
H35   H     H_    0.106978 0.411356 0.559132 0.142366
H36   H     H_    0.247897 0.326167 0.229554 0.155767
H37   H     H_    0.233206 0.323662 0.089171 0.111136
H38   H     H_    0.043786 0.471060 0.098233 0.246242
N1    N     N_2   0.162330 0.550370 0.457540 0.034370
N2    N     N_2   0.837670 0.449630 0.542460 0.055285
O1    O     O_R   0.567930 0.307680 0.508550 -0.551597
O2    O     O_3   0.650555 0.359135 0.827421 -0.611876
O3    O     O_3   0.491400 0.850148 0.317944 -0.628639
O4    O     O_3   0.621402 0.148260 0.356390 -0.607783
O5    O     O_3   0.881959 0.393781 0.630214 -0.542160
O6    O     O_3   0.112860 0.622528 0.380446 -0.582606
O7    O     O_R   0.432070 0.692320 0.491450 -0.632273
O8    O     O_R   0.351090 0.340020 0.481290 -0.640149
O9    O     O_R   0.648910 0.659980 0.518710 -0.631318
O10   O     O_R   0.590490 0.486480 0.665020 -0.576867
O11   O     O_R   0.409510 0.513520 0.334980 -0.566487
O12   O     O_R   0.373660 0.518820 0.637760 -0.650877
O13   O     O_R   0.626340 0.481180 0.362240 -0.629410
O14   O     O_3   0.292919 0.503077 0.163789 -0.598677
Zn1   Zn    Zn3+2 0.644780 0.478400 0.518200 0.994351
Zn2   Zn    Zn3+2 0.355220 0.521600 0.481800 0.957514

loop_
_geom_bond_atom_site_label_1
_geom_bond_atom_site_label_2
_ccdc_geom_bond_type
C18   O3    S    
C28   O12   A    
C2    C7    A    
C19   H14   S    
C7    C8    A    
C22   H22   S    
C20   H17   S    
C16   O2    S    
C29   O11   A    
C11   O4    S    
C19   H15   S    
O10   Zn1   S    
C12   O7    A    
C20   O4    S    
C18   C19   S    
C17   H7    S    
C23   H35   S    
C5    O2    S    
C26   H32   S    
O1    Zn1   S    
C20   H18   S    
N2    O5    S    
C13   O3    S    
C24   H25   S    
C32   H9    S    
C25   H28   S    
C23   C27   S    
C15   H2    S    
C29   O13   A    
C16   H5    S    
O11   Zn2   S    
C15   H3    S    
O7    Zn2   S    
O13   Zn1   S    
C3    H12   S    
C28   O10   A    
C25   O6    S    
C8    C32   A    
C23   N1    D    
C1    C9    S    
C14   O14   S    
C5    C7    A    
C19   H16   S    
C16   C17   S    
C6    C8    A    
C25   C26   S    
C17   H8    S    
C2    C4    A    
C26   H31   S    
C29   C30   S    
C25   H29   S    
C3    C31   A    
C10   H23   S    
C9    C11   D    
O9    Zn1   S    
C10   C12   S    
C6    C30   A    
C14   H37   S    
C22   C24   S    
C18   H13   S    
C21   H19   S    
N2    Zn1   S    
C15   H38   S    
C4    H1    S    
C28   C31   S    
O12   Zn2   S    
C22   O5    S    
C10   C13   D    
C22   H24   S    
C6    O14   S    
C1    O1    A    
C26   H30   S    
O8    Zn2   S    
C27   H34   S    
C18   H11   S    
C16   H4    S    
C21   H21   S    
C11   C13   S    
C2    H10   S    
C24   H27   S    
C12   O9    A    
C17   H6    S    
N1    O6    S    
C3    C32   A    
C9    H33   S    
N1    Zn2   S    
C20   C21   S    
C24   H26   S    
C1    O8    A    
C14   H36   S    
C14   C15   S    
C21   H20   S    
C4    C30   A    
C27   N2    D    
C5    C31   A    
