data_mof_unit_29532.cif
_audit_creation_date              2012-10-26T21:04:05-0400
_audit_creation_method            fapswitch 2.2
_symmetry_space_group_name_H-M    P1
_symmetry_Int_Tables_number       1
_space_group_crystal_system       triclinic
_cell_length_a                    15.061126
_cell_length_b                    13.949856
_cell_length_c                    10.877553
_cell_angle_alpha                 89.487893
_cell_angle_beta                  90.881771
_cell_angle_gamma                 89.602497
_cell_volume                      2284.96062466

loop_
_atom_site_label
_atom_site_type_symbol
_atom_type_description
_atom_site_fract_x
_atom_site_fract_y
_atom_site_fract_z
_atom_type_partial_charge
C1    C     C_R   0.330033 0.500108 0.496988 0.554498
C2    C     C_R   0.429575 0.109664 0.446553 -0.146317
C3    C     C_R   0.569009 0.208831 0.552787 0.035449
C4    C     C_R   0.430856 0.210421 0.447660 0.036338
C5    C     C_R   0.499809 0.056208 0.500696 0.029718
C6    C     C_R   0.421560 0.895793 0.507482 -0.172688
C7    C     C_R   0.577969 0.895028 0.494030 -0.161685
C8    C     C_R   0.421224 0.794155 0.502102 0.370024
C9    C     C_R   0.578450 0.793526 0.498824 0.376509
C10   C     C_R   0.499744 0.947870 0.500669 -0.076918
C11   C     C_R   0.507343 0.500324 0.263572 0.529127
C12   C     C_R   0.670267 0.499446 0.498911 0.540196
C13   C     C_R   0.506012 0.499090 0.737498 0.550938
C14   C     C_R   0.492597 0.577598 0.060426 0.005843
C15   C     C_R   0.497003 0.578161 0.937173 0.014769
C16   C     C_R   0.520718 0.500172 0.131861 -0.016555
C17   C     C_R   0.517787 0.496617 0.870997 -0.030620
C18   C     C_R   0.562621 0.422479 0.070590 0.000849
C19   C     C_R   0.551788 0.415071 0.939682 -0.008729
C20   C     C_3   0.474713 0.683232 0.924914 0.303064
C21   C     C_3   0.464043 0.680434 0.069066 0.294933
C22   C     C_R   0.092499 0.571975 0.536905 -0.152790
C23   C     C_R   0.189296 0.431444 0.412401 0.250190
C24   C     C_R   0.901492 0.575489 0.421475 -0.156111
C25   C     C_R   0.184522 0.570007 0.546878 -0.181300
C26   C     C_R   0.809496 0.573941 0.429894 -0.187262
C27   C     C_R   0.233451 0.500093 0.485543 0.012614
C28   C     C_R   0.767258 0.497996 0.490385 0.016414
C29   C     C_3   0.628811 0.356976 0.139738 -0.257721
C30   C     C_3   0.724316 0.380022 0.104098 -0.455725
C31   C     C_3   0.574569 0.320374 0.877891 -0.254698
C32   C     C_3   0.493256 0.255715 0.870361 -0.416501
C33   C     C_3   0.281477 0.775146 0.413533 -0.019407
C34   C     C_R   0.818476 0.421055 0.539301 0.258120
C35   C     C_3   0.198120 0.823627 0.462073 -0.402490
C36   C     C_3   0.713034 0.768233 0.598627 -0.017373
C37   C     C_3   0.800034 0.814783 0.561672 -0.402534
C38   C     C_3   0.554968 0.741388 0.872731 -0.225616
C39   C     C_3   0.648186 0.703042 0.906936 -0.444878
C40   C     C_3   0.368699 0.689500 0.123655 -0.235696
C41   C     C_3   0.298295 0.619693 0.074624 -0.443489
C42   C     C_3   0.371418 0.793085 0.838275 0.002963
C43   C     C_3   0.273651 0.802691 0.802898 -0.364733
C44   C     C_3   0.509372 0.827096 0.157264 -0.007130
C45   C     C_R   0.096694 0.431709 0.406745 -0.100189
C46   C     C_3   0.594591 0.883215 0.176683 -0.371933
C47   C     C_3   0.260298 0.402519 0.234283 -0.011639
C48   C     C_3   0.305586 0.326672 0.156869 -0.377240
C49   C     C_3   0.798794 0.345738 0.724590 -0.024223
C50   C     C_3   0.793540 0.244361 0.776814 -0.390403
C51   C     C_R   0.910447 0.420702 0.523566 -0.103941
C52   C     C_R   0.048502 0.502282 0.467938 -0.014830
C53   C     C_R   0.951933 0.498889 0.468600 -0.013397
C54   C     C_R   0.570153 0.108006 0.554576 -0.146630
Cu1   Cu    Cu3+1 0.500000 0.596430 0.500000 1.041202
Cu2   Cu    Cu3+1 0.500000 0.403570 0.500000 0.935490
H1    H     H_    0.359674 0.933981 0.518551 0.115122
H2    H     H_    0.374263 0.074168 0.402038 0.087512
H3    H     H_    0.623438 0.247157 0.594398 0.162649
H4    H     H_    0.376062 0.249809 0.406434 0.172679
H5    H     H_    0.733795 0.377340 0.003425 0.138379
H6    H     H_    0.741780 0.453104 0.135890 0.154683
H7    H     H_    0.770618 0.327723 0.149000 0.141037
H8    H     H_    0.628727 0.365592 0.240286 0.192484
H9    H     H_    0.613156 0.280357 0.124598 0.135269
H10   H     H_    0.471569 0.236142 0.964414 0.133225
H11   H     H_    0.437199 0.291948 0.821096 0.185204
H12   H     H_    0.640140 0.932310 0.484183 0.114613
H13   H     H_    0.510332 0.188985 0.820826 0.128665
H14   H     H_    0.603990 0.331619 0.786744 0.167953
H15   H     H_    0.627394 0.279478 0.926733 0.127659
H16   H     H_    0.260505 0.708386 0.366920 0.149538
H17   H     H_    0.311187 0.821878 0.341403 0.083995
H18   H     H_    0.151236 0.839011 0.384508 0.101734
H19   H     H_    0.164680 0.776327 0.529114 0.142462
H20   H     H_    0.214559 0.892041 0.507817 0.133601
H21   H     H_    0.728939 0.699056 0.645523 0.155234
H22   H     H_    0.680506 0.814773 0.667949 0.094362
H23   H     H_    0.055381 0.625677 0.586391 0.114788
H24   H     H_    0.787358 0.885992 0.518542 0.135235
H25   H     H_    0.842964 0.824443 0.644479 0.096846
H26   H     H_    0.835835 0.769188 0.495579 0.153131
H27   H     H_    0.661705 0.635085 0.858029 0.129118
H28   H     H_    0.656519 0.690408 0.007060 0.204517
H29   H     H_    0.698711 0.756089 0.878841 0.107756
H30   H     H_    0.549833 0.742679 0.770888 0.158188
H31   H     H_    0.550194 0.817018 0.902497 0.108841
H32   H     H_    0.271880 0.642475 0.983607 0.198952
H33   H     H_    0.324628 0.545819 0.066886 0.135696
H34   H     H_    0.933362 0.635851 0.377496 0.115908
H35   H     H_    0.241471 0.618413 0.138473 0.099693
H36   H     H_    0.374775 0.677481 0.224193 0.161319
H37   H     H_    0.342565 0.763418 0.109983 0.099367
H38   H     H_    0.410807 0.823377 0.761985 0.144823
H39   H     H_    0.382844 0.836568 0.921580 0.091008
H40   H     H_    0.231538 0.785979 0.882969 0.117172
H41   H     H_    0.259011 0.877304 0.771985 0.093302
H42   H     H_    0.257009 0.753183 0.727154 0.194697
H43   H     H_    0.469204 0.832270 0.241721 0.136824
H44   H     H_    0.472183 0.861185 0.079712 0.090552
H45   H     H_    0.217633 0.621758 0.604570 0.159611
H46   H     H_    0.632829 0.885316 0.090250 0.134726
H47   H     H_    0.578506 0.957747 0.204197 0.098522
H48   H     H_    0.636306 0.848713 0.249740 0.188623
H49   H     H_    0.308048 0.461894 0.248905 0.135473
H50   H     H_    0.201075 0.429787 0.181635 0.118691
H51   H     H_    0.261661 0.263628 0.145804 0.149335
H52   H     H_    0.320169 0.356848 0.064574 0.097819
H53   H     H_    0.369219 0.303564 0.200823 0.158221
H54   H     H_    0.749824 0.392416 0.771021 0.121974
H55   H     H_    0.866494 0.372972 0.747264 0.115025
H56   H     H_    0.771257 0.631908 0.388219 0.179343
H57   H     H_    0.844360 0.198136 0.733503 0.154305
H58   H     H_    0.806160 0.245243 0.877623 0.092847
H59   H     H_    0.727014 0.213486 0.758798 0.132513
H60   H     H_    0.062457 0.377462 0.353780 0.121946
H61   H     H_    0.949885 0.360929 0.558794 0.117215
H62   H     H_    0.625360 0.071202 0.599532 0.084786
N1    N     N_R   0.500000 0.258690 0.500000 -0.233909
N2    N     N_R   0.500000 0.741330 0.500000 -0.204148
O1    O     O_R   0.371460 0.581430 0.500010 -0.454607
O2    O     O_3   0.660185 0.748826 0.492505 -0.537894
O3    O     O_3   0.393882 0.695167 0.856824 -0.556669
O4    O     O_3   0.531147 0.730068 0.135842 -0.559343
O5    O     O_3   0.235489 0.362454 0.348256 -0.565985
O6    O     O_3   0.778825 0.344005 0.597013 -0.560765
O7    O     O_R   0.628540 0.581430 0.499990 -0.463178
O8    O     O_R   0.371470 0.418560 0.500010 -0.476574
O9    O     O_R   0.628530 0.418560 0.499990 -0.487081
O10   O     O_R   0.499990 0.581450 0.319660 -0.470723
O11   O     O_R   0.500010 0.581450 0.680340 -0.472596
O12   O     O_R   0.500010 0.418580 0.319660 -0.534295
O13   O     O_R   0.499990 0.418580 0.680340 -0.520868
O14   O     O_3   0.340075 0.749433 0.512272 -0.533987

loop_
_geom_bond_atom_site_label_1
_geom_bond_atom_site_label_2
_ccdc_geom_bond_type
C7    C10   A    
C41   H33   S    
Cu1   Cu2   S    
Cu1   O1    S    
C35   H18   S    
C23   C45   A    
C36   O2    S    
C1    O8    A    
C40   H37   S    
C19   C31   S    
C11   O12   A    
Cu2   O13   S    
C12   O7    A    
C49   O6    S    
C46   H46   S    
C35   H19   S    
C34   C51   A    
C12   C28   S    
C14   C21   S    
C32   H10   S    
C36   C37   S    
C24   C26   A    
C39   H28   S    
C18   C19   A    
C36   H21   S    
C38   C39   S    
C3    C54   A    
C48   H51   S    
C15   C17   A    
C50   H59   S    
C20   O3    S    
C33   H16   S    
C51   H61   S    
C7    H12   S    
C33   O14   S    
C31   H14   S    
C47   C48   S    
C47   H49   S    
C22   C25   A    
C43   H42   S    
C4    N1    A    
C23   C27   A    
C23   O5    S    
Cu2   O9    S    
C49   H55   S    
C47   H50   S    
C31   H15   S    
C48   H53   S    
C29   H8    S    
C28   C34   A    
C30   H7    S    
C6    H1    S    
C37   H25   S    
C44   C46   S    
C42   O3    S    
C47   O5    S    
Cu1   N2    S    
C15   C20   S    
C37   H24   S    
C35   H20   S    
C12   O9    A    
C8    O14   S    
C42   H39   S    
C5    C54   A    
C17   C19   A    
C6    C8    A    
C45   C52   A    
C24   C53   A    
C46   H48   S    
C44   O4    S    
C51   C53   A    
C2    C4    A    
C6    C10   A    
C29   C30   S    
C20   C38   S    
C11   C16   S    
C31   C32   S    
C34   O6    S    
Cu1   O10   S    
C4    H4    S    
C9    O2    S    
C13   O11   A    
C18   C29   S    
C40   H36   S    
Cu2   O12   S    
C3    N1    A    
C32   H11   S    
C29   H9    S    
C33   H17   S    
C40   C41   S    
C41   H35   S    
C38   H30   S    
Cu1   O11   S    
C54   H62   S    
Cu2   N1    S    
C14   C16   A    
C37   H26   S    
C2    C5    A    
C42   C43   S    
C39   H29   S    
C11   O10   A    
C26   H56   S    
C52   C53   S    
C8    N2    A    
C22   C52   A    
C7    C9    A    
C41   H32   S    
C42   H38   S    
C13   O13   A    
C44   H43   S    
C43   H41   S    
Cu1   O7    S    
C24   H34   S    
C22   H23   S    
C2    H2    S    
C32   H13   S    
C25   C27   A    
C46   H47   S    
C26   C28   A    
C13   C17   S    
C38   H31   S    
C9    N2    A    
C50   H57   S    
C21   O4    S    
C30   H6    S    
C39   H27   S    
C5    C10   S    
C36   H22   S    
C44   H44   S    
C45   H60   S    
C25   H45   S    
C48   H52   S    
C21   C40   S    
C33   C35   S    
Cu2   O8    S    
C1    O1    A    
C20   C21   S    
C16   C18   A    
C49   C50   S    
C30   H5    S    
C1    C27   S    
C43   H40   S    
C14   C15   A    
C50   H58   S    
C49   H54   S    
C3    H3    S    
