data_mof_unit_63564.cif
_audit_creation_date              2012-12-10T17:09:21-0500
_audit_creation_method            fapswitch 2.2
_symmetry_space_group_name_H-M    P1
_symmetry_Int_Tables_number       1
_space_group_crystal_system       triclinic
_cell_length_a                    44.079355
_cell_length_b                    30.209534
_cell_length_c                    30.258957
_cell_angle_alpha                 89.99996
_cell_angle_beta                  133.313519
_cell_angle_gamma                 90.00013
_cell_volume                      29317.8702376

loop_
_atom_site_label
_atom_site_type_symbol
_atom_type_description
_atom_site_fract_x
_atom_site_fract_y
_atom_site_fract_z
_atom_type_partial_charge
Br1   Br    Br    0.194929 0.592514 0.662250 -0.412001
Br2   Br    Br    0.797187 0.413388 0.248126 -0.449522
Br3   Br    Br    0.702820 0.914939 0.754467 -0.449497
Br4   Br    Br    0.297178 0.914975 0.245476 -0.449494
Br5   Br    Br    0.558816 0.427869 0.686008 -0.482690
Br6   Br    Br    0.441183 0.427872 0.313989 -0.482681
Br7   Br    Br    0.058828 0.927877 0.686019 -0.482569
Br8   Br    Br    0.941173 0.927876 0.313983 -0.482602
Br9   Br    Br    0.456486 0.583418 0.579094 -0.482224
Br10  Br    Br    0.543518 0.583417 0.420910 -0.482203
Br11  Br    Br    0.956454 0.083397 0.579070 -0.482218
Br12  Br    Br    0.805069 0.592332 0.338282 -0.411984
Br13  Br    Br    0.043543 0.083399 0.420927 -0.482215
Br14  Br    Br    0.548113 0.374444 0.854103 -0.459272
Br15  Br    Br    0.451885 0.374446 0.145895 -0.459334
Br16  Br    Br    0.048153 0.874459 0.854146 -0.458607
Br17  Br    Br    0.951854 0.874456 0.145861 -0.458649
Br18  Br    Br    0.295151 0.583136 0.742881 -0.309781
Br19  Br    Br    0.704845 0.582837 0.257594 -0.310015
Br20  Br    Br    0.795166 0.081190 0.739900 -0.311280
Br21  Br    Br    0.204836 0.081153 0.260157 -0.311305
Br22  Br    Br    0.605800 0.296208 0.523527 -0.436837
Br23  Br    Br    0.694939 0.091293 0.658918 -0.411895
Br24  Br    Br    0.394198 0.296208 0.476467 -0.436842
Br25  Br    Br    0.105802 0.796210 0.523533 -0.436744
Br26  Br    Br    0.894197 0.796209 0.476464 -0.436734
Br27  Br    Br    0.384395 0.695615 0.445713 -0.423009
Br28  Br    Br    0.615605 0.695615 0.554286 -0.422996
Br29  Br    Br    0.885027 0.195600 0.447662 -0.422711
Br30  Br    Br    0.114974 0.195599 0.552337 -0.422690
Br31  Br    Br    0.911482 0.375902 0.422527 -0.501554
Br32  Br    Br    0.088517 0.375906 0.577454 -0.501082
Br33  Br    Br    0.411360 0.875898 0.421238 -0.503480
Br34  Br    Br    0.305061 0.091269 0.341143 -0.411898
Br35  Br    Br    0.588640 0.875899 0.578761 -0.503425
Br36  Br    Br    0.295943 0.409687 0.754777 -0.430482
Br37  Br    Br    0.704059 0.409454 0.244703 -0.430326
Br38  Br    Br    0.795920 0.908260 0.758085 -0.429512
Br39  Br    Br    0.204080 0.908235 0.241854 -0.429501
Br40  Br    Br    0.304536 0.487308 0.706309 -0.408471
Br41  Br    Br    0.695458 0.486744 0.293609 -0.408240
Br42  Br    Br    0.804558 0.983739 0.706861 -0.406893
Br43  Br    Br    0.195443 0.983673 0.293131 -0.406862
Br44  Br    Br    0.296361 0.583256 0.843476 -0.434130
Br45  Br    Br    0.703639 0.583532 0.157005 -0.434124
Br46  Br    Br    0.796364 0.084945 0.840412 -0.434195
Br47  Br    Br    0.203636 0.084975 0.159646 -0.434206
Br48  Br    Br    0.202814 0.413103 0.751386 -0.449430
C1    C     C_R   0.498792 0.500020 0.913185 0.797830
C2    C     C_3   0.725637 0.476912 0.182488 -0.163633
C3    C     C_R   0.920165 0.499922 0.420216 0.842774
C4    C     C_R   0.579835 0.999926 0.579784 0.842562
C5    C     C_R   0.420165 0.999926 0.420216 0.842565
C6    C     C_R   0.000000 0.414431 0.500000 0.920184
C7    C     C_R   0.500000 0.914433 0.500000 0.920182
C8    C     C_R   0.500000 0.414243 0.500000 0.810631
C9    C     C_R   1.000000 0.914243 0.500000 0.810635
C10   C     C_R   0.499961 0.499607 0.585661 0.877340
C11   C     C_R   0.500039 0.499607 0.414339 0.877337
C12   C     C_R   0.999961 0.999605 0.585662 0.877287
C13   C     C_3   0.774358 0.978267 0.818190 -0.163483
C14   C     C_R   0.000039 0.999605 0.414338 0.877290
C15   C     C_R   0.500000 0.585851 0.500000 0.851137
C16   C     C_R   0.000000 0.085849 0.500000 0.850924
C17   C     C_R   0.477130 0.342742 0.509783 0.092503
C18   C     C_R   0.522869 0.342743 0.490216 0.092500
C19   C     C_R   0.977131 0.842742 0.509785 0.092528
C20   C     C_R   0.022869 0.842743 0.490216 0.092532
C21   C     C_R   0.500000 0.365699 0.500000 -0.044664
C22   C     C_R   1.000000 0.865699 0.500000 -0.044636
C23   C     C_R   0.527269 0.296244 0.498134 0.044503
C24   C     C_3   0.225641 0.978296 0.181795 -0.163458
C25   C     C_R   0.472730 0.296244 0.501864 0.044504
C26   C     C_R   0.027270 0.796245 0.498136 0.044538
C27   C     C_R   0.972731 0.796244 0.501865 0.044539
C28   C     C_3   0.275309 0.471070 0.732322 0.449278
C29   C     C_3   0.724689 0.470827 0.267510 0.449277
C30   C     C_3   0.775313 0.969542 0.733401 0.449226
C31   C     C_3   0.224688 0.969514 0.266580 0.449220
C32   C     C_R   0.500000 0.273062 0.499999 -0.079101
C33   C     C_R   0.000000 0.773062 0.500001 -0.079014
C34   C     C_R   0.557251 0.271611 0.503416 0.268794
C35   C     C_1   0.162089 0.498993 0.661506 0.078600
C36   C     C_R   0.442747 0.271611 0.496582 0.268792
C37   C     C_R   0.057253 0.771611 0.503420 0.268859
C38   C     C_R   0.942747 0.771611 0.496581 0.268845
C39   C     C_R   0.056118 0.725552 0.502378 -0.196496
C40   C     C_R   0.943883 0.725551 0.497622 -0.196509
C41   C     C_R   0.556115 0.225551 0.502373 -0.196745
C42   C     C_R   0.443884 0.225551 0.497625 -0.196747
C43   C     C_R   0.027481 0.702774 0.499716 0.063701
C44   C     C_R   0.972519 0.702774 0.500286 0.063686
C45   C     C_R   0.527480 0.202774 0.499712 0.063559
C46   C     C_1   0.837910 0.498995 0.338495 0.078570
C47   C     C_R   0.472520 0.202773 0.500287 0.063558
C48   C     C_R   0.000001 0.726295 0.500001 0.082401
C49   C     C_R   0.500000 0.226295 0.499999 0.082427
C50   C     C_R   0.026904 0.656527 0.498791 -0.187255
C51   C     C_R   0.973097 0.656527 0.501210 -0.187300
C52   C     C_R   0.526902 0.156527 0.498786 -0.187655
C53   C     C_R   0.473098 0.156527 0.501213 -0.187661
C54   C     C_R   0.000000 0.633526 0.500000 -0.052678
C55   C     C_R   0.500000 0.133526 0.500000 -0.052824
C56   C     C_R   0.534440 0.657379 0.518303 -0.129757
C57   C     C_1   0.662089 0.998991 0.661516 0.078559
C58   C     C_R   0.465560 0.657379 0.481696 -0.129751
C59   C     C_R   0.034294 0.157367 0.517811 -0.129997
C60   C     C_R   0.965706 0.157367 0.482189 -0.129994
C61   C     C_R   0.500000 0.634320 0.500000 -0.099604
C62   C     C_R   0.000000 0.134311 0.500000 -0.099717
C63   C     C_R   0.465375 0.703767 0.482782 0.027433
C64   C     C_R   0.534626 0.703767 0.517217 0.027435
C65   C     C_R   0.965547 0.203755 0.483333 0.027432
C66   C     C_R   0.034454 0.203754 0.516666 0.027439
C67   C     C_3   0.225388 0.475217 0.679268 0.132703
C68   C     C_1   0.337911 0.998991 0.338483 0.078566
C69   C     C_3   0.774609 0.474959 0.320591 0.132560
C70   C     C_3   0.725395 0.973586 0.680180 0.132216
C71   C     C_3   0.274606 0.973555 0.319804 0.132220
C72   C     C_R   0.500000 0.727182 0.500000 0.007919
C73   C     C_R   0.000000 0.227171 0.499999 0.007878
C74   C     C_R   0.432094 0.726934 0.469296 0.247261
C75   C     C_R   0.567906 0.726934 0.530704 0.247258
C76   C     C_R   0.932480 0.226919 0.470458 0.247351
C77   C     C_R   0.067520 0.226919 0.529539 0.247348
C78   C     C_R   0.933990 0.273364 0.475199 0.111337
C79   C     C_1   0.337866 0.499271 0.837096 0.151798
C80   C     C_R   0.066010 0.273363 0.524796 0.111289
C81   C     C_R   0.433549 0.773383 0.473957 0.111720
C82   C     C_R   0.566451 0.773383 0.526042 0.111709
C83   C     C_R   0.965499 0.297155 0.483697 0.034949
C84   C     C_R   0.034501 0.297155 0.516299 0.034930
C85   C     C_R   0.465301 0.797166 0.483067 0.035183
C86   C     C_R   0.534700 0.797166 0.516932 0.035182
C87   C     C_R   0.000001 0.273809 0.499999 -0.081162
C88   C     C_R   0.500000 0.773818 0.500000 -0.081157
C89   C     C_R   0.963745 0.343497 0.475792 0.173560
C90   C     C_1   0.662134 0.499271 0.162899 0.151790
C91   C     C_R   0.036256 0.343498 0.524203 0.173521
C92   C     C_R   0.463608 0.843504 0.475179 0.173270
C93   C     C_R   0.536392 0.843504 0.524821 0.173261
C94   C     C_R   0.000001 0.366285 0.500000 -0.160936
C95   C     C_R   0.500000 0.866291 0.500000 -0.160137
C96   C     C_1   0.124510 0.499534 0.624306 -0.089006
C97   C     C_1   0.875489 0.499536 0.375695 -0.088984
C98   C     C_1   0.624510 0.999539 0.624306 -0.088764
C99   C     C_1   0.375490 0.999539 0.375694 -0.088761
C100  C     C_3   0.291702 0.498279 0.790360 -0.091694
C101  C     C_1   0.837867 0.999261 0.837130 0.151803
C102  C     C_3   0.708298 0.498276 0.209631 -0.091696
C103  C     C_3   0.791703 0.998253 0.790422 -0.091744
C104  C     C_3   0.208297 0.998252 0.209578 -0.091748
C105  C     C_3   0.225471 0.547126 0.726574 -0.024383
C106  C     C_3   0.774528 0.547138 0.273699 -0.024354
C107  C     C_3   0.725475 0.047158 0.724854 -0.024246
C108  C     C_3   0.274525 0.047158 0.275178 -0.024242
C109  C     C_3   0.208299 0.498094 0.707095 0.003816
C110  C     C_3   0.791700 0.498093 0.292899 0.003840
C111  C     C_3   0.708300 0.998075 0.707142 0.003871
C112  C     C_R   0.501208 0.500020 0.086815 0.797868
C113  C     C_1   0.162133 0.999260 0.162871 0.151809
C114  C     C_3   0.291700 0.998074 0.292857 0.003871
C115  C     C_3   0.458555 0.618946 0.751463 -0.793150
C116  C     C_3   0.541467 0.618941 0.248558 -0.793077
C117  C     C_3   0.958526 0.118934 0.751434 -0.793297
C118  C     C_3   0.041462 0.118938 0.248553 -0.793289
C119  C     C_3   0.439394 0.557879 0.806989 -0.721417
C120  C     C_3   0.560613 0.557872 0.193017 -0.721439
C121  C     C_3   0.939387 0.057866 0.806984 -0.721400
C122  C     C_3   0.060610 0.057869 0.193015 -0.721407
C123  C     C_3   0.522029 0.377228 0.728827 -0.654543
C124  C     C_1   0.375452 0.499832 0.875047 -0.071429
C125  C     C_3   0.477969 0.377229 0.271171 -0.654556
C126  C     C_3   0.022059 0.877231 0.728862 -0.654339
C127  C     C_3   0.977943 0.877231 0.271141 -0.654380
C128  C     C_3   0.462283 0.367723 0.535501 -0.709925
C129  C     C_3   0.537717 0.367724 0.464498 -0.709925
C130  C     C_3   0.962285 0.867723 0.535505 -0.709894
C131  C     C_3   0.037715 0.867723 0.464495 -0.709907
C132  C     C_3   0.905893 0.295625 0.480649 -0.654093
C133  C     C_3   0.094104 0.295623 0.519339 -0.653918
C134  C     C_3   0.405075 0.795665 0.478658 -0.654874
C135  C     C_1   0.624548 0.499832 0.124950 -0.071426
C136  C     C_3   0.594925 0.795665 0.521341 -0.654837
C137  C     C_3   0.212263 0.503683 0.625284 -0.655992
C138  C     C_3   0.787729 0.503192 0.374732 -0.655939
C139  C     C_3   0.712287 0.000562 0.625211 -0.655692
C140  C     C_3   0.287715 0.000505 0.374792 -0.655684
C141  C     C_3   0.204156 0.429723 0.647762 -0.619757
C142  C     C_3   0.795841 0.429409 0.351841 -0.619616
C143  C     C_3   0.704155 0.927758 0.650291 -0.619401
C144  C     C_3   0.295845 0.927721 0.349663 -0.619378
C145  C     C_3   0.296638 0.434999 0.858044 -0.634785
C146  C     C_1   0.875452 0.999829 0.875062 -0.071429
C147  C     C_3   0.703365 0.435364 0.141584 -0.634826
C148  C     C_3   0.796635 0.937321 0.860381 -0.634870
C149  C     C_3   0.203363 0.937363 0.139574 -0.634846
C150  C     C_3   0.208152 0.494830 0.794320 -0.784575
C151  C     C_3   0.791855 0.495329 0.205664 -0.784685
C152  C     C_3   0.708129 0.997973 0.794406 -0.785109
C153  C     C_3   0.291868 0.998031 0.205590 -0.785128
C154  C     C_1   0.124548 0.999830 0.124939 -0.071431
C155  C     C_R   0.518253 0.464785 0.675769 0.156394
C156  C     C_R   0.481746 0.464787 0.324230 0.156405
C157  C     C_R   0.018262 0.964786 0.675779 0.156361
C158  C     C_R   0.981739 0.964786 0.324222 0.156364
C159  C     C_R   0.499566 0.499733 0.633565 -0.161464
C160  C     C_R   0.998794 0.000020 0.913188 0.797602
C161  C     C_R   0.500434 0.499734 0.366436 -0.161464
C162  C     C_R   0.999566 0.999730 0.633565 -0.161518
C163  C     C_R   0.000434 0.999730 0.366434 -0.161514
C164  C     C_R   0.479804 0.534660 0.636163 0.179254
C165  C     C_R   0.520199 0.534659 0.363840 0.179260
C166  C     C_R   0.979794 0.034649 0.636155 0.179303
C167  C     C_R   0.020204 0.034651 0.363843 0.179303
C168  C     C_R   0.479683 0.535203 0.682524 0.035481
C169  C     C_R   0.520321 0.535202 0.317480 0.035481
C170  C     C_R   0.979675 0.035194 0.682518 0.035425
C171  C     C_R   0.001206 0.000020 0.086812 0.797609
C172  C     C_R   0.020321 0.035196 0.317478 0.035429
C173  C     C_R   0.495443 0.498524 0.722042 -0.043272
C174  C     C_R   0.504560 0.498524 0.277961 -0.043266
C175  C     C_R   0.995446 0.998521 0.722046 -0.043308
C176  C     C_R   0.004553 0.998521 0.277952 -0.043310
C177  C     C_R   0.420137 0.499984 0.920059 0.794279
C178  C     C_R   0.579863 0.499984 0.079940 0.794236
C179  C     C_R   0.920137 0.999984 0.920060 0.793995
C180  C     C_R   0.079863 0.999984 0.079940 0.793993
C181  C     C_R   0.511966 0.461408 0.715682 0.023491
C182  C     C_3   0.225045 0.473753 0.767559 0.344200
C183  C     C_R   0.488034 0.461409 0.284318 0.023492
C184  C     C_R   0.011977 0.961409 0.715695 0.023463
C185  C     C_R   0.988023 0.961408 0.284306 0.023465
C186  C     C_R   0.465332 0.572376 0.691287 -0.119241
C187  C     C_R   0.534677 0.572373 0.308722 -0.119222
C188  C     C_R   0.965315 0.072363 0.691272 -0.119202
C189  C     C_R   0.034678 0.072367 0.308722 -0.119198
C190  C     C_R   0.465511 0.574030 0.737541 0.130001
C191  C     C_R   0.534501 0.574026 0.262470 0.129998
C192  C     C_R   0.965495 0.074019 0.737526 0.129977
C193  C     C_3   0.774958 0.474003 0.232298 0.344202
C194  C     C_R   0.034498 0.074022 0.262466 0.129969
C195  C     C_R   0.477523 0.535877 0.773996 0.118213
C196  C     C_R   0.522484 0.535875 0.226011 0.118214
C197  C     C_R   0.977518 0.035871 0.773992 0.118097
C198  C     C_R   0.022478 0.035873 0.226004 0.118102
C199  C     C_R   0.494884 0.499117 0.768187 -0.014957
C200  C     C_R   0.505119 0.499117 0.231816 -0.014951
C201  C     C_R   0.994888 0.999115 0.768193 -0.014985
C202  C     C_R   0.005110 0.999116 0.231805 -0.014984
C203  C     C_R   0.512445 0.463220 0.809303 0.017402
C204  C     C_3   0.725038 0.975335 0.768455 0.344206
C205  C     C_R   0.487555 0.463220 0.190697 0.017413
C206  C     C_R   0.012459 0.963223 0.809319 0.017339
C207  C     C_R   0.987542 0.963222 0.190682 0.017341
C208  C     C_R   0.526001 0.425042 0.800221 0.254009
C209  C     C_R   0.473998 0.425043 0.199778 0.254024
C210  C     C_R   0.026025 0.925049 0.800247 0.253959
C211  C     C_R   0.973978 0.925047 0.199756 0.253958
C212  C     C_R   0.522081 0.422625 0.750086 0.114842
C213  C     C_R   0.477918 0.422626 0.249913 0.114854
C214  C     C_R   0.022103 0.922629 0.750110 0.114732
C215  C     C_3   0.274961 0.975365 0.231528 0.344199
C216  C     C_R   0.977899 0.922628 0.249892 0.114748
C217  C     C_R   0.473432 0.532981 0.816582 0.097824
C218  C     C_R   0.526574 0.532978 0.183423 0.097834
C219  C     C_R   0.973428 0.032974 0.816579 0.097814
C220  C     C_R   0.026569 0.032976 0.183418 0.097811
C221  C     C_R   0.496034 0.500103 0.862019 -0.082749
C222  C     C_R   0.503968 0.500103 0.137983 -0.082722
C223  C     C_R   0.996037 0.000103 0.862023 -0.082812
C224  C     C_R   0.003962 0.000103 0.137976 -0.082813
C225  C     C_3   0.274429 0.547897 0.772038 0.365863
C226  C     C_3   0.274366 0.476657 0.817383 -0.163652
C227  C     C_3   0.725570 0.547888 0.228239 0.365865
C228  C     C_3   0.774433 0.047800 0.770295 0.365869
C229  C     C_3   0.225567 0.047798 0.229738 0.365868
C230  C     C_R   0.515208 0.465838 0.858045 -0.199751
C231  C     C_R   0.484791 0.465839 0.141955 -0.199692
C232  C     C_R   0.015221 0.965842 0.858059 -0.200002
C233  C     C_R   0.984780 0.965841 0.141942 -0.199993
C234  C     C_R   0.000000 0.585385 0.500000 0.788072
C235  C     C_R   0.500000 0.085385 0.500000 0.787656
C236  C     C_R   0.079835 0.499921 0.579785 0.842780
Cu1   Cu    Cu3+1 0.500000 0.544470 0.000000 1.034215
Cu2   Cu    Cu3+1 0.541320 0.499970 0.541370 1.096426
Cu3   Cu    Cu3+1 0.958680 0.999970 0.458630 1.096388
Cu4   Cu    Cu3+1 0.041320 0.999970 0.541370 1.096388
Cu5   Cu    Cu3+1 0.000000 0.044470 0.000000 1.033469
Cu6   Cu    Cu3+1 0.500000 0.455530 0.000000 1.068323
Cu7   Cu    Cu3+1 0.000000 0.955530 0.000000 1.069544
Cu8   Cu    Cu3+1 0.999980 0.499850 0.455510 1.045388
Cu9   Cu    Cu3+1 0.000020 0.499850 0.544490 1.045439
Cu10  Cu    Cu3+1 0.499980 0.999850 0.455510 1.046015
Cu11  Cu    Cu3+1 0.500020 0.999850 0.544490 1.046017
Cu12  Cu    Cu3+1 0.458680 0.499970 0.458630 1.096430
H1    H     H_    0.217024 0.560627 0.750692 0.184197
H2    H     H_    0.468725 0.440561 0.107217 0.208620
H3    H     H_    0.270164 0.031609 0.360868 0.294103
H4    H     H_    0.213153 0.402499 0.678711 0.289557
H5    H     H_    0.169633 0.432341 0.613635 0.241436
H6    H     H_    0.213173 0.417750 0.623365 0.241329
H7    H     H_    0.786852 0.402311 0.320742 0.289591
H8    H     H_    0.830364 0.432035 0.385992 0.241605
H9    H     H_    0.786818 0.417243 0.376160 0.241332
H10   H     H_    0.713110 0.901340 0.682176 0.289730
H11   H     H_    0.669634 0.930408 0.616020 0.242181
H12   H     H_    0.713205 0.914578 0.626392 0.241291
H13   H     H_    0.031291 0.940568 0.892801 0.208676
H14   H     H_    0.286891 0.901318 0.317762 0.289732
H15   H     H_    0.330367 0.930371 0.383937 0.242198
H16   H     H_    0.286796 0.914520 0.373555 0.241283
H17   H     H_    0.288270 0.430766 0.885082 0.237672
H18   H     H_    0.287668 0.403914 0.832568 0.303150
H19   H     H_    0.331034 0.438431 0.890975 0.225359
H20   H     H_    0.711736 0.431336 0.114526 0.237655
H21   H     H_    0.712332 0.404183 0.166879 0.303176
H22   H     H_    0.668969 0.438790 0.108671 0.225309
H23   H     H_    0.788250 0.934387 0.887530 0.237530
H24   H     H_    0.968712 0.940566 0.107201 0.208677
H25   H     H_    0.787685 0.905646 0.836072 0.303284
H26   H     H_    0.831031 0.940710 0.893209 0.225000
H27   H     H_    0.211746 0.934454 0.112422 0.237520
H28   H     H_    0.212312 0.905677 0.163861 0.303283
H29   H     H_    0.168966 0.940749 0.106749 0.224989
H30   H     H_    0.221872 0.527496 0.816034 0.217568
H31   H     H_    0.173695 0.498133 0.759330 0.255391
H32   H     H_    0.216342 0.473543 0.831189 0.268760
H33   H     H_    0.778137 0.528042 0.184137 0.217573
H34   H     H_    0.826312 0.498628 0.240676 0.255355
H35   H     H_    0.078809 0.707325 0.505694 0.196009
H36   H     H_    0.783666 0.474208 0.168674 0.268758
H37   H     H_    0.721834 0.030915 0.814923 0.217554
H38   H     H_    0.673671 0.001239 0.759291 0.255256
H39   H     H_    0.716323 0.977744 0.832030 0.268759
H40   H     H_    0.278163 0.030977 0.185096 0.217554
H41   H     H_    0.326326 0.001295 0.240705 0.255256
H42   H     H_    0.283672 0.977822 0.167952 0.268762
H43   H     H_    0.921191 0.707325 0.494306 0.196044
H44   H     H_    0.578805 0.207325 0.505686 0.196215
H45   H     H_    0.421193 0.207324 0.494311 0.196218
H46   H     H_    0.048015 0.638330 0.498554 0.160102
H47   H     H_    0.951986 0.638330 0.501446 0.160146
H48   H     H_    0.548011 0.138330 0.498547 0.160385
H49   H     H_    0.782976 0.560825 0.249660 0.184174
H50   H     H_    0.451988 0.138330 0.501452 0.160389
H51   H     H_    0.560411 0.638479 0.531583 0.221756
H52   H     H_    0.439589 0.638479 0.468417 0.221756
H53   H     H_    0.060152 0.138462 0.530726 0.221943
H54   H     H_    0.939849 0.138462 0.469274 0.221945
H55   H     H_    0.283137 0.500460 0.852362 0.208495
H56   H     H_    0.716869 0.500867 0.147650 0.208490
H57   H     H_    0.783114 0.003020 0.852269 0.208432
H58   H     H_    0.216884 0.003067 0.147732 0.208425
H59   H     H_    0.464629 0.646097 0.733603 0.240728
H60   H     H_    0.717028 0.061829 0.748464 0.184061
H61   H     H_    0.425839 0.622619 0.729953 0.249491
H62   H     H_    0.480706 0.624297 0.801247 0.243981
H63   H     H_    0.535408 0.646094 0.266435 0.240729
H64   H     H_    0.574181 0.622603 0.270058 0.249492
H65   H     H_    0.519310 0.624301 0.198775 0.243993
H66   H     H_    0.964583 0.146087 0.733553 0.240687
H67   H     H_    0.925812 0.122594 0.729934 0.249645
H68   H     H_    0.980683 0.124297 0.801216 0.243831
H69   H     H_    0.035396 0.146089 0.266423 0.240692
H70   H     H_    0.074177 0.122604 0.270059 0.249646
H71   H     H_    0.282971 0.061850 0.251577 0.184059
H72   H     H_    0.019308 0.124295 0.198770 0.243835
H73   H     H_    0.412045 0.563405 0.757941 0.247905
H74   H     H_    0.426919 0.538021 0.822440 0.231261
H75   H     H_    0.451356 0.589605 0.832327 0.241029
H76   H     H_    0.587967 0.563386 0.242067 0.247892
H77   H     H_    0.573080 0.538017 0.177552 0.231235
H78   H     H_    0.548657 0.589603 0.167692 0.241045
H79   H     H_    0.912032 0.063378 0.757933 0.247831
H80   H     H_    0.926921 0.038011 0.822450 0.231172
H81   H     H_    0.951341 0.089599 0.832305 0.241009
H82   H     H_    0.455233 0.601596 0.663600 0.203870
H83   H     H_    0.087962 0.063385 0.242065 0.247829
H84   H     H_    0.073080 0.038011 0.177555 0.231171
H85   H     H_    0.048655 0.089599 0.167688 0.241012
H86   H     H_    0.504967 0.377087 0.679905 0.228513
H87   H     H_    0.554463 0.365214 0.756738 0.278767
H88   H     H_    0.504764 0.353282 0.732549 0.246848
H89   H     H_    0.495031 0.377088 0.320093 0.228513
H90   H     H_    0.445534 0.365216 0.243260 0.278764
H91   H     H_    0.495233 0.353283 0.267448 0.246849
H92   H     H_    0.004995 0.877084 0.679939 0.228501
H93   H     H_    0.544779 0.601592 0.336412 0.203870
H94   H     H_    0.054496 0.865225 0.756773 0.278815
H95   H     H_    0.004801 0.853282 0.732593 0.246832
H96   H     H_    0.995008 0.877084 0.320065 0.228503
H97   H     H_    0.945507 0.865224 0.243231 0.278807
H98   H     H_    0.995202 0.853281 0.267411 0.246831
H99   H     H_    0.483018 0.395990 0.564031 0.210114
H100  H     H_    0.430402 0.380881 0.498154 0.272218
H101  H     H_    0.463505 0.346434 0.566572 0.248154
H102  H     H_    0.516982 0.395992 0.435970 0.210110
H103  H     H_    0.569598 0.380881 0.501846 0.272221
H104  H     H_    0.955208 0.101580 0.663577 0.203975
H105  H     H_    0.536493 0.346435 0.433426 0.248152
H106  H     H_    0.983023 0.895988 0.564038 0.210111
H107  H     H_    0.930405 0.880883 0.498159 0.272231
H108  H     H_    0.963506 0.846432 0.566573 0.248143
H109  H     H_    0.016978 0.895989 0.435963 0.210113
H110  H     H_    0.069595 0.880883 0.501841 0.272238
H111  H     H_    0.036493 0.846433 0.433426 0.248136
H112  H     H_    0.919104 0.327425 0.505614 0.237578
H113  H     H_    0.874285 0.300619 0.434960 0.278741
H114  H     H_    0.903315 0.275199 0.508445 0.243825
H115  H     H_    0.044783 0.101585 0.336414 0.203977
H116  H     H_    0.080891 0.327420 0.494369 0.237562
H117  H     H_    0.125713 0.300620 0.565026 0.278809
H118  H     H_    0.096682 0.275194 0.491545 0.243797
H119  H     H_    0.418145 0.827479 0.503617 0.237543
H120  H     H_    0.373625 0.800637 0.432727 0.278466
H121  H     H_    0.402165 0.775266 0.506105 0.244067
H122  H     H_    0.581855 0.827480 0.496382 0.237542
H123  H     H_    0.626375 0.800637 0.567271 0.278472
H124  H     H_    0.597835 0.775267 0.493892 0.244067
H125  H     H_    0.218186 0.486176 0.599504 0.249415
H126  H     H_    0.531272 0.440558 0.892780 0.208633
H127  H     H_    0.178405 0.511361 0.592047 0.239653
H128  H     H_    0.229805 0.534906 0.640342 0.294116
H129  H     H_    0.781805 0.485503 0.400411 0.249414
H130  H     H_    0.821586 0.510875 0.408015 0.239710
H131  H     H_    0.770185 0.534399 0.359849 0.294114
H132  H     H_    0.718211 0.981920 0.600084 0.249366
H133  H     H_    0.678432 0.008267 0.591688 0.239931
H134  H     H_    0.729839 0.031670 0.639156 0.294103
H135  H     H_    0.281792 0.981842 0.399908 0.249359
H136  H     H_    0.321571 0.008210 0.408320 0.239933
O1    O     O_R   0.499980 0.537560 0.935110 -0.577335
O2    O     O_R   0.465140 0.499980 0.400260 -0.540831
O3    O     O_R   0.034860 0.999980 0.599740 -0.540873
O4    O     O_R   0.965140 0.999980 0.400260 -0.540872
O5    O     O_R   0.465120 0.564850 0.465070 -0.570267
O6    O     O_R   0.534880 0.564850 0.534930 -0.570270
O7    O     O_R   0.965120 0.064850 0.465070 -0.570196
O8    O     O_R   0.034880 0.064850 0.534930 -0.570200
O9    O     O_R   0.499970 0.462450 0.935080 -0.572701
O10   O     O_R   0.500030 0.462450 0.064920 -0.572708
O11   O     O_R   0.999970 0.962450 0.935080 -0.572519
O12   O     O_R   0.500020 0.537560 0.064890 -0.577301
O13   O     O_R   0.000030 0.962450 0.064920 -0.572523
O14   O     O_R   0.439720 0.537550 0.939720 -0.563932
O15   O     O_R   0.560280 0.537550 0.060280 -0.563999
O16   O     O_R   0.939720 0.037550 0.939720 -0.564347
O17   O     O_R   0.060280 0.037550 0.060280 -0.564356
O18   O     O_R   0.439710 0.462440 0.939690 -0.563154
O19   O     O_R   0.560290 0.462440 0.060310 -0.563030
O20   O     O_R   0.939710 0.962440 0.939690 -0.562371
O21   O     O_R   0.060290 0.962440 0.060310 -0.562358
O22   O     O_R   0.999990 0.564740 0.462430 -0.582734
O23   O     O_R   0.999980 0.037560 0.935110 -0.577499
O24   O     O_R   0.000010 0.564740 0.537570 -0.582666
O25   O     O_R   0.499990 0.064740 0.462430 -0.582709
O26   O     O_R   0.500010 0.064740 0.537570 -0.582700
O27   O     O_R   0.060270 0.499850 0.522700 -0.575885
O28   O     O_R   0.939730 0.499850 0.477300 -0.575815
O29   O     O_R   0.560270 0.999850 0.522700 -0.575799
O30   O     O_R   0.439730 0.999850 0.477300 -0.575793
O31   O     O_R   0.060290 0.499870 0.597820 -0.568603
O32   O     O_R   0.939710 0.499870 0.402180 -0.568580
O33   O     O_R   0.560290 0.999870 0.597820 -0.568176
O34   O     O_R   0.000020 0.037560 0.064890 -0.577496
O35   O     O_R   0.439710 0.999870 0.402180 -0.568175
O36   O     O_R   0.999980 0.434970 0.462420 -0.560655
O37   O     O_R   0.000020 0.434970 0.537580 -0.560699
O38   O     O_R   0.499980 0.934970 0.462420 -0.560543
O39   O     O_R   0.500020 0.934970 0.537580 -0.560551
O40   O     O_R   0.465090 0.435080 0.465060 -0.566983
O41   O     O_R   0.534910 0.435080 0.534940 -0.566981
O42   O     O_R   0.965090 0.935080 0.465060 -0.566959
O43   O     O_R   0.034910 0.935080 0.534940 -0.566954
O44   O     O_R   0.465080 0.499990 0.529910 -0.563466
O45   O     O_R   0.534920 0.499990 0.470090 -0.563467
O46   O     O_R   0.965080 0.999990 0.529910 -0.563437
O47   O     O_R   0.034920 0.999990 0.470090 -0.563440
O48   O     O_R   0.534860 0.499980 0.599740 -0.540834

loop_
_geom_bond_atom_site_label_1
_geom_bond_atom_site_label_2
_ccdc_geom_bond_type
Cu6   O19   S    
Br23  C107  S    
C130  H106  S    
Br28  C75   S    
C131  H111  S    
C42   C47   A    
C210  C214  A    
C120  H76   S    
C231  H2    S    
C189  C194  A    
C158  C185  A    
C209  C213  A    
Br22  C34   S    
C123  C212  S    
C153  H40   S    
Cu8   O22   S    
C106  C110  S    
C39   C43   A    
C4    O33   A    
C91   C94   A    
C38   C40   A    
C3    C97   S    
C123  H87   S    
C169  C174  A    
C55   C235  S    
C71   C140  S    
C43   C48   A    
C140  H3    S    
Cu1   O14   S    
C13   H57   S    
C141  H6    S    
Cu10  O25   S    
C12   O46   A    
Cu4   O3    S    
C78   C132  S    
Cu8   O27   S    
Cu10  O35   S    
Br31  C89   S    
C103  C228  S    
Br15  C209  S    
C132  H112  S    
C23   C34   A    
C46   C97   T    
Cu5   O17   S    
Cu7   O13   S    
C82   C86   A    
C10   O44   A    
C177  O14   A    
C125  H91   S    
C8    O40   A    
C139  H132  S    
C16   O8    A    
C1    O9    A    
Br32  C91   S    
C64   C72   A    
Cu5   O23   S    
C152  H38   S    
C173  C199  A    
C232  H13   S    
C50   C54   A    
C53   H50   S    
C161  C165  A    
Br40  C28   S    
C178  O15   A    
C222  C231  A    
Cu6   O9    S    
C176  C185  A    
Br20  C228  S    
Br21  C229  S    
C126  C214  S    
Br16  C210  S    
C2    C147  S    
C27   C38   A    
C35   C109  S    
C47   C49   A    
C120  H77   S    
Cu2   Cu12  S    
C56   H51   S    
C73   C87   A    
C45   C52   A    
Cu2   O41   S    
Cu12  O2    S    
C127  H98   S    
C153  H41   S    
C160  O11   A    
C128  H101  S    
C192  C197  A    
C189  H115  S    
C59   C62   A    
C100  C226  S    
C26   C33   A    
C130  H108  S    
C175  C184  A    
C131  H109  S    
C105  H1    S    
C140  H135  S    
C24   C215  S    
C4    C98   S    
C11   O45   A    
Cu3   O7    S    
Cu4   O8    S    
C42   H45   S    
C80   C133  S    
C195  C217  A    
Br12  C106  S    
C107  C228  S    
C29   C102  S    
C68   C99   T    
C147  H21   S    
Br10  C165  S    
C144  H14   S    
C186  H82   S    
Br24  C36   S    
C203  C230  A    
C167  C172  A    
C86   C93   A    
Br13  C167  S    
C203  C208  A    
C65   C76   A    
C13   C204  S    
C57   C98   T    
C8    O41   A    
C138  H130  S    
C119  H75   S    
C43   C50   A    
Cu4   O43   S    
C137  H125  S    
C104  C229  S    
Br11  C166  S    
C132  H114  S    
C67   C141  S    
Br14  C208  S    
C28   C100  S    
Cu7   O11   S    
C236  O31   A    
C128  H100  S    
C3    O32   A    
C105  C225  S    
C119  H73   S    
C233  H24   S    
C152  C204  S    
Br47  C229  S    
C89   C94   A    
C32   C49   A    
C92   C95   A    
C5    O35   A    
C180  O21   A    
C169  C187  A    
C170  C175  A    
C84   C91   A    
C34   C41   A    
C184  C214  A    
Cu5   O16   S    
C30   C70   S    
C69   C138  S    
C101  C103  S    
C121  H80   S    
C101  C146  T    
C142  H7    S    
C20   C26   A    
Br29  C76   S    
C44   C48   A    
C78   C83   A    
Cu11  O33   S    
C2    C102  S    
C145  H18   S    
C24   C149  S    
C179  O20   A    
C220  C224  A    
C58   H52   S    
C148  H25   S    
C126  H94   S    
C60   H54   S    
C1    O1    A    
C104  C113  S    
C176  C202  A    
Br30  C77   S    
C129  H105  S    
Cu1   O1    S    
Cu12  O44   S    
C63   C74   A    
Cu2   O6    S    
C197  C219  A    
C36   C42   A    
Cu10  O38   S    
C116  H63   S    
C198  C220  A    
C30   C103  S    
C117  H67   S    
C58   C63   A    
C151  H36   S    
C18   C129  S    
C7    C95   S    
C107  C111  S    
C144  H16   S    
C113  C154  T    
C71   C144  S    
C166  C170  A    
C56   C64   A    
C200  C205  A    
C154  C180  S    
C145  C226  S    
C118  H72   S    
C190  C195  A    
C143  H12   S    
C139  H133  S    
C15   C61   S    
C6    O37   A    
C150  H31   S    
C137  H127  S    
C118  H70   S    
C133  H117  S    
C112  O10   A    
C207  C233  A    
C116  C191  S    
Br25  C37   S    
C187  H93   S    
C24   H58   S    
C13   C103  S    
C51   H47   S    
C129  H103  S    
C39   H35   S    
C122  H83   S    
C75   C82   A    
C14   O4    A    
C107  H60   S    
C19   C27   A    
C45   C49   A    
C133  H116  S    
C76   C78   A    
Cu12  O5    S    
C197  C201  A    
C117  C192  S    
C69   C110  S    
C59   H53   S    
C19   C130  S    
C130  H107  S    
Br5   C155  S    
C70   C139  S    
C199  C203  A    
C60   C65   A    
C20   C131  S    
Cu1   O12   S    
Cu11  O39   S    
Cu3   O4    S    
C19   C22   A    
C115  H62   S    
C15   O6    A    
C149  H29   S    
C136  H123  S    
C127  H97   S    
C157  C162  A    
C208  C212  A    
C60   C62   A    
C26   C37   A    
C126  H92   S    
C230  H126  S    
C181  C212  A    
C205  C209  A    
C141  H5    S    
C53   C55   A    
C8    C21   S    
Cu11  O26   S    
C9    O43   A    
C134  H119  S    
C149  H28   S    
C47   C53   A    
C44   C51   A    
C31   C104  S    
C115  H61   S    
C58   C61   A    
C151  H34   S    
C81   C134  S    
C235  O26   A    
C168  C186  A    
C149  H27   S    
Br7   C157  S    
C2    C193  S    
C142  H9    S    
C50   H46   S    
C125  H90   S    
C141  H4    S    
C14   O47   A    
C194  C198  A    
C143  H10   S    
C93   C95   A    
Cu10  Cu11  S    
C67   C137  S    
C112  O12   A    
Br9   C164  S    
C28   C67   S    
C3    O28   A    
C186  C190  A    
Cu6   O10   S    
C217  C221  A    
C168  C173  A    
C205  C231  A    
C160  O23   A    
C174  C200  A    
C24   C104  S    
C31   C71   S    
C156  C161  A    
C120  H78   S    
Cu1   O15   S    
C9    C22   S    
Br17  C211  S    
C74   C81   A    
C79   C100  S    
Cu3   O42   S    
Cu6   O18   S    
Br44  C225  S    
C183  C213  A    
C201  C206  A    
C46   C110  S    
C182  C226  S    
C144  H15   S    
C2    H56   S    
C70   C111  S    
C71   C114  S    
Br27  C74   S    
C140  H136  S    
C121  C219  S    
C122  C220  S    
C102  C227  S    
C64   C75   A    
C211  C216  A    
C219  C223  A    
C33   C48   A    
C128  H99   S    
Br45  C227  S    
Br37  C29   S    
C52   C55   A    
C196  C200  A    
C72   C88   A    
C40   H43   S    
Br39  C31   S    
C119  C217  S    
C59   C66   A    
Br6   C156  S    
C83   C89   A    
Cu3   Cu4   S    
C142  H8    S    
Cu12  O40   S    
C7    O38   A    
C138  H131  S    
C206  C232  A    
C40   C44   A    
C12   O3    A    
Br1   C105  S    
C90   C135  T    
C70   C143  S    
Cu7   O20   S    
Cu8   O36   S    
C115  H59   S    
C223  C232  A    
C6    C94   S    
C178  O19   A    
C195  C199  A    
C134  H121  S    
C118  C194  S    
C172  C189  A    
C151  C193  S    
C224  C233  A    
C16   O7    A    
C187  C191  A    
Cu2   O48   S    
C152  H37   S    
C127  H96   S    
Br38  C30   S    
C83   C87   A    
C148  H23   S    
C139  H134  S    
C156  C183  A    
C170  C188  A    
C82   C136  S    
C121  H79   S    
C57   C111  S    
C17   C21   A    
Cu9   O28   S    
C196  C218  A    
C105  C109  S    
C145  H17   S    
C4    O29   A    
C136  H122  S    
C153  H42   S    
C51   C54   A    
C85   C92   A    
C173  C181  A    
C100  C225  S    
C52   H48   S    
C148  H26   S    
C126  H95   S    
C152  H39   S    
C131  H110  S    
C123  H88   S    
C146  C179  S    
C163  C167  A    
Cu10  O29   S    
C54   C234  S    
C116  H64   S    
C5    O30   A    
C147  H22   S    
C143  H11   S    
C117  H66   S    
C90   C102  S    
Br34  C108  S    
C67   C109  S    
C171  O34   A    
C10   C159  S    
C68   C114  S    
Cu8   Cu9   S    
C111  C204  S    
C29   C69   S    
C84   C87   A    
Br41  C29   S    
C35   C96   T    
C18   C21   A    
C206  C210  A    
Br33  C92   S    
Br43  C31   S    
Cu11  O30   S    
C5    C99   S    
C138  H129  S    
C17   C25   A    
C171  C224  S    
Cu8   O32   S    
Cu9   O24   S    
C150  H32   S    
Br36  C28   S    
C132  H113  S    
C158  C163  A    
C11   O2    A    
Br19  C227  S    
C18   C23   A    
C177  O18   A    
C96   C236  S    
C77   C80   A    
C14   C163  S    
C191  C196  A    
C234  O24   A    
C25   C36   A    
C125  C213  S    
Br48  C182  S    
C129  H102  S    
C175  C201  A    
C122  H84   S    
C106  H49   S    
C41   C45   A    
C226  H55   S    
Cu9   O31   S    
C179  O16   A    
C80   C84   A    
C135  C178  S    
Cu9   O37   S    
C23   C32   A    
C109  C182  S    
Cu2   O45   S    
C37   C39   A    
C207  C211  A    
C164  C168  A    
C188  H104  S    
Br3   C204  S    
C218  C222  A    
C121  H81   S    
C155  C181  A    
C66   C77   A    
C165  C169  A    
C27   C33   A    
C86   C88   A    
C122  H85   S    
C79   C124  T    
C162  C166  A    
C155  C159  A    
Cu1   Cu6   S    
Br46  C228  S    
C188  C192  A    
C63   C72   A    
C110  C193  S    
Br8   C158  S    
C145  H19   S    
C15   O5    A    
C127  C216  S    
C85   C88   A    
Cu3   O46   S    
Cu5   O34   S    
C136  H124  S    
C16   C62   S    
C13   C148  S    
Br18  C225  S    
Br26  C38   S    
C160  C223  S    
C65   C73   A    
C17   C128  S    
C124  C177  S    
C115  C190  S    
Br35  C93   S    
C185  C216  A    
C123  H86   S    
C174  C183  A    
Br42  C30   S    
C41   H44   S    
C108  H71   S    
C7    O39   A    
C159  C164  A    
C81   C85   A    
C9    O42   A    
C134  H120  S    
C172  C176  A    
Cu4   O47   S    
C147  H20   S    
Cu7   O21   S    
C117  H68   S    
C198  C202  A    
C202  C207  A    
C151  H33   S    
C235  O25   A    
C236  O27   A    
C153  C215  S    
C120  C218  S    
C150  C182  S    
C125  H89   S    
C112  C222  S    
C119  H74   S    
C6    O36   A    
C116  H65   S    
C108  C229  S    
C150  H30   S    
C137  H128  S    
C180  O17   A    
C118  H69   S    
C171  O13   A    
C133  H118  S    
C114  C215  S    
Br4   C215  S    
Cu5   Cu7   S    
C25   C32   A    
C221  C230  A    
C106  C227  S    
C234  O22   A    
Br2   C193  S    
C69   C142  S    
C66   C73   A    
C108  C114  S    
C11   C161  S    
C20   C22   A    
C10   O48   A    
C56   C61   A    
C157  C184  A    
C12   C162  S    
C1    C221  S    
