data_mof_unit_7621.cif
_audit_creation_date              2012-12-10T17:35:00-0500
_audit_creation_method            fapswitch 2.2
_symmetry_space_group_name_H-M    P1
_symmetry_Int_Tables_number       1
_space_group_crystal_system       triclinic
_cell_length_a                    12.355608
_cell_length_b                    13.095867
_cell_length_c                    13.874267
_cell_angle_alpha                 106.806896
_cell_angle_beta                  73.491583
_cell_angle_gamma                 117.108913
_cell_volume                      1882.1307019

loop_
_atom_site_label
_atom_site_type_symbol
_atom_type_description
_atom_site_fract_x
_atom_site_fract_y
_atom_site_fract_z
_atom_type_partial_charge
C1    C     C_R   0.143875 0.713999 0.502127 0.881248
C2    C     C_1   0.974310 0.507143 0.791881 -0.046242
C3    C     C_R   0.729999 0.974924 0.332601 -0.156528
C4    C     C_R   0.777436 0.158441 0.453372 -0.256709
C5    C     C_R   0.178192 0.928191 0.538370 0.308552
C6    C     C_R   0.262646 0.041449 0.574544 0.350289
C7    C     C_R   0.388753 0.066467 0.552487 -0.140089
C8    C     C_R   0.435183 0.983993 0.490395 0.079193
C9    C     C_R   0.349605 0.874326 0.449052 0.000577
C10   C     C_R   0.564087 0.012183 0.459500 0.016675
C11   C     C_R   0.603948 0.938153 0.374201 -0.133865
C12   C     C_R   0.983060 0.503185 0.686400 0.885775
C13   C     C_R   0.517391 0.832205 0.327646 0.435589
C14   C     C_R   0.390941 0.806076 0.359942 0.132768
C15   C     C_R   0.655690 0.113162 0.508000 0.342687
C16   C     C_R   0.815739 0.085282 0.366510 0.268325
C17   C     C_R   0.223134 0.839435 0.493666 -0.253720
C18   C     C_R   0.589025 0.581739 0.698414 -0.233645
C19   C     C_R   0.270277 0.382035 0.344808 0.054993
C20   C     C_R   0.368394 0.347902 0.304985 0.250566
C21   C     C_R   0.450595 0.368970 0.368394 0.366834
C22   C     C_R   0.445194 0.444647 0.465140 -0.162623
C23   C     C_R   0.856422 0.284474 0.481385 0.893385
C24   C     C_R   0.339291 0.474570 0.503483 0.111096
C25   C     C_R   0.538290 0.492245 0.528249 0.007557
C26   C     C_R   0.502080 0.526431 0.634098 0.078591
C27   C     C_R   0.382848 0.521241 0.672419 -0.126070
C28   C     C_R   0.327503 0.536509 0.606476 0.335749
C29   C     C_R   0.665670 0.513224 0.491875 0.132318
C30   C     C_R   0.712924 0.603908 0.658554 0.396048
C31   C     C_R   0.014876 0.493758 0.313324 0.782153
C32   C     C_1   0.017250 0.480401 0.207294 -0.040510
C33   C     C_2   0.008584 0.452949 0.013404 0.286150
C34   C     C_2   0.967397 0.518339 0.986145 0.233804
C35   C     C_1   0.969625 0.511493 0.880469 0.066134
C36   C     C_1   0.014788 0.467244 0.118587 0.094759
Cu1   Cu    Cu3+1 0.899780 0.525060 0.522890 1.094216
Cu2   Cu    Cu3+1 0.100220 0.474940 0.477110 1.067498
H1    H     H_    0.359422 0.552331 0.753667 0.209735
H2    H     H_    0.562327 0.613353 0.778970 0.179808
H3    H     H_    0.699076 0.489852 0.411852 0.198181
H4    H     H_    0.206604 0.360196 0.295874 0.226391
H5    H     H_    0.762115 0.922599 0.266141 0.237733
H6    H     H_    0.450373 0.154925 0.576568 0.247437
N1    N     N_R   0.748810 0.563010 0.557590 -0.182345
N2    N     N_R   0.250540 0.437620 0.443020 -0.223494
O1    O     O_R   0.025040 0.682470 0.528790 -0.510254
O2    O     O_R   0.194310 0.640150 0.490130 -0.520572
O3    O     O_R   0.903380 0.524130 0.659910 -0.561763
O4    O     O_R   0.072660 0.481800 0.621240 -0.568330
O5    O     O_R   0.805690 0.359850 0.509870 -0.540574
O6    O     O_R   0.974960 0.317530 0.471210 -0.517666
O7    O     O_R   0.927340 0.518200 0.378760 -0.567513
O8    O     O_R   0.096620 0.475870 0.340090 -0.598988
S1    S     S_3+6 0.910963 0.617013 0.077375 0.055057
O9    O     O_2   0.808522 0.552967 0.155539 -0.242559
O10   O     O_2   0.013463 0.711948 0.130494 -0.203696
O11   O     O_3   0.857755 0.677457 0.019936 -0.465303
H7    H     H_    0.779833 0.614024 0.000189 0.371693
N3    N     N_3   0.308619 0.723861 0.291352 -0.506267
H8    H     H_    0.276968 0.641725 0.308180 0.269000
H9    H     H_    0.233695 0.744289 0.299089 0.225520
N4    N     N_3   0.801315 0.669489 0.725216 -0.470182
H10   H     H_    0.774432 0.626088 0.786171 0.221709
H11   H     H_    0.795327 0.749902 0.756861 0.260082
S2    S     S_3+6 0.533112 0.277903 0.337676 0.041850
O12   O     O_2   0.561712 0.269250 0.432428 -0.360686
O13   O     O_2   0.456642 0.156639 0.288193 -0.195436
O14   O     O_3   0.666059 0.332910 0.256270 -0.481496
H12   H     H_    0.713599 0.288246 0.254182 0.358874
S3    S     S_3+6 0.382236 0.279177 0.174196 0.158379
O15   O     O_2   0.515012 0.304249 0.126392 -0.136601
O16   O     O_2   0.310011 0.149379 0.165628 -0.171779
O17   O     O_3   0.325648 0.328979 0.109378 -0.464060
H13   H     H_    0.238108 0.273291 0.110102 0.394960
S4    S     S_3+6 0.356263 0.686958 0.631662 0.053220
O18   O     O_2   0.239263 0.705557 0.674458 -0.257371
O19   O     O_2   0.440796 0.756401 0.708722 -0.243106
O20   O     O_3   0.428096 0.738632 0.523077 -0.523902
H14   H     H_    0.509183 0.733650 0.506866 0.357271
S5    S     S_3+6 0.053473 0.345650 0.923995 0.063371
O21   O     O_2   0.947324 0.258082 0.871288 -0.207988
O22   O     O_2   0.161271 0.402878 0.845733 -0.293471
O23   O     O_3   0.093859 0.277383 0.984417 -0.487419
H15   H     H_    0.122636 0.222942 0.929272 0.420830
S6    S     S_3+6 0.967097 0.126810 0.292684 0.046381
O24   O     O_2   0.058218 0.157483 0.359449 -0.209273
O25   O     O_2   0.978496 0.029635 0.206262 -0.196518
O26   O     O_3   0.999697 0.242074 0.242764 -0.565910
H16   H     H_    0.934571 0.215251 0.201776 0.354057
S7    S     S_3+6 0.566250 0.728343 0.232706 0.052727
O27   O     O_2   0.461509 0.611889 0.209829 -0.219528
O28   O     O_2   0.627941 0.775910 0.135339 -0.250377
O29   O     O_3   0.667112 0.707028 0.276177 -0.509116
H17   H     H_    0.745257 0.731257 0.226397 0.421502
S8    S     S_3+6 0.634303 0.159398 0.643850 0.041003
O30   O     O_2   0.747107 0.179573 0.680529 -0.252623
O31   O     O_2   0.617381 0.271797 0.673279 -0.275711
O32   O     O_3   0.510848 0.056358 0.700973 -0.461176
H18   H     H_    0.501564 0.091997 0.774599 0.411619
S9    S     S_3+6 0.027983 0.904493 0.526631 0.105853
O33   O     O_2   0.985929 0.809036 0.436774 -0.255013
O34   O     O_2   0.938925 0.870668 0.622749 -0.256499
O35   O     O_3   0.027532 0.025446 0.508056 -0.409274
H19   H     H_    0.939471 0.006847 0.511392 0.389566
S10   S     S_3+6 0.216837 0.154459 0.651002 0.109754
O36   O     O_2   0.091618 0.104206 0.715806 -0.185826
O37   O     O_2   0.308741 0.235761 0.719800 -0.242518
O38   O     O_3   0.212650 0.230762 0.574371 -0.482043
H20   H     H_    0.164038 0.275484 0.618293 0.387131

loop_
_geom_bond_atom_site_label_1
_geom_bond_atom_site_label_2
_ccdc_geom_bond_type
C2    C35   T    
S2    O13   D    
S1    O9    D    
N4    H11   S    
S9    O33   D    
C21   S2    S    
C30   N1    A    
C19   C20   A    
C18   C26   A    
S4    O20   S    
C2    C12   S    
C12   O3    A    
C19   N2    A    
C7    C8    A    
C3    H5    S    
C26   C27   A    
C32   C36   T    
S4    O19   D    
C10   C15   A    
C5    C6    A    
Cu1   O5    S    
S6    O25   D    
S2    O14   S    
Cu2   O6    S    
S10   O36   D    
S8    O32   S    
C33   C36   S    
N3    H9    S    
C34   C35   S    
C18   H2    S    
O23   H15   S    
O32   H18   S    
C27   H1    S    
C8    C9    A    
C22   C25   A    
S8    O31   D    
C20   S3    S    
C18   C30   A    
Cu1   O1    S    
Cu2   O2    S    
C19   H4    S    
Cu1   O7    S    
S2    O12   D    
C34   S1    S    
S9    O34   D    
C13   C14   A    
C13   S7    S    
C16   S6    S    
O29   H17   S    
O35   H19   S    
S5    O22   D    
S5    O21   D    
C25   C29   A    
C5    S9    S    
O17   H13   S    
S4    O18   D    
C15   S8    S    
S3    O16   D    
C4    C23   S    
S6    O24   D    
C1    O1    A    
O11   H7    S    
N4    H10   S    
C29   N1    A    
N3    H8    S    
C4    C16   A    
C9    C14   A    
Cu1   Cu2   S    
S7    O28   D    
Cu1   O3    S    
C23   O5    A    
C31   C32   S    
Cu2   O8    S    
S8    O30   D    
C33   C34   D    
C6    S10   S    
C7    H6    S    
C31   O7    A    
C9    C17   A    
S9    O35   S    
S1    O10   D    
C22   C24   A    
Cu1   N1    S    
C28   S4    S    
S7    O27   D    
S5    O23   S    
C29   H3    S    
C24   C28   A    
S6    O26   S    
S3    O17   S    
C12   O4    A    
C1    O2    A    
C6    C7    A    
Cu2   O4    S    
C14   N3    S    
C1    C17   S    
C24   N2    A    
C4    C15   A    
C25   C26   A    
S3    O15   D    
O38   H20   S    
S7    O29   S    
C11   C13   A    
C23   O6    A    
S10   O37   D    
C30   N4    S    
C31   O8    A    
O14   H12   S    
Cu2   N2    S    
C3    C11   A    
C10   C11   A    
O20   H14   S    
C5    C17   A    
C20   C21   A    
C8    C10   A    
S1    O11   S    
C27   C28   A    
O26   H16   S    
C21   C22   A    
C33   S5    S    
C3    C16   A    
S10   O38   S    
