data_mof_unit_35619.cif
_audit_creation_date              2012-12-10T18:59:18-0500
_audit_creation_method            fapswitch 2.2
_symmetry_space_group_name_H-M    P1
_symmetry_Int_Tables_number       1
_space_group_crystal_system       triclinic
_cell_length_a                    9.976784
_cell_length_b                    10.614211
_cell_length_c                    16.776737
_cell_angle_alpha                 86.857209
_cell_angle_beta                  95.19256
_cell_angle_gamma                 89.851034
_cell_volume                      1766.58123935

loop_
_atom_site_label
_atom_site_type_symbol
_atom_type_description
_atom_site_fract_x
_atom_site_fract_y
_atom_site_fract_z
_atom_type_partial_charge
C1    C     C_R   0.499717 0.260850 0.498609 0.880411
C2    C     C_R   0.079592 0.419625 0.551605 0.235822
C3    C     C_R   0.518353 0.501145 0.653114 0.875784
C4    C     C_R   0.481647 0.498856 0.346886 0.875788
C5    C     C_R   0.528348 0.522482 0.738299 -0.092590
C6    C     C_R   0.471651 0.477521 0.261701 -0.092577
C7    C     C_R   0.437584 0.609472 0.763967 -0.303834
C8    C     C_R   0.562410 0.390527 0.236032 -0.303848
C9    C     C_R   0.430477 0.626082 0.845061 0.201538
C10   C     C_R   0.569519 0.373921 0.154938 0.201541
C11   C     C_R   0.514446 0.552655 0.901075 0.268574
C12   C     C_R   0.500283 0.739150 0.501391 0.880409
C13   C     C_R   0.485556 0.447357 0.098924 0.268574
C14   C     C_R   0.613558 0.473724 0.875408 -0.207893
C15   C     C_R   0.386448 0.526292 0.124592 -0.207892
C16   C     C_R   0.621180 0.457242 0.794219 0.170732
C17   C     C_R   0.378825 0.542770 0.205781 0.170735
C18   C     C_R   0.419977 0.067787 0.437889 0.195320
C19   C     C_R   0.580023 0.932213 0.562110 0.195322
C20   C     C_3   0.672639 0.283030 0.130612 -0.905130
C21   C     C_3   0.327351 0.716969 0.869385 -0.905133
C22   C     C_3   0.723579 0.366244 0.769706 -0.916082
C23   C     C_R   0.421525 0.937765 0.441176 -0.249513
C24   C     C_3   0.276432 0.633772 0.230296 -0.916086
C25   C     C_3   0.337966 0.139351 0.369892 -0.874607
C26   C     C_3   0.662035 0.860649 0.630108 -0.874609
C27   C     C_3   0.128580 0.699547 0.414386 -0.812157
C28   C     C_3   0.871420 0.300454 0.585614 -0.812138
C29   C     C_3   0.854600 0.621467 0.305009 -0.786370
C30   C     C_3   0.145409 0.378544 0.694990 -0.786314
C31   C     C_R   0.578475 0.062235 0.558824 -0.249514
C32   C     C_R   0.500738 0.871667 0.502331 -0.066701
C33   C     C_R   0.499262 0.128333 0.497669 -0.066702
C34   C     C_R   0.064058 0.586244 0.452572 0.164503
C35   C     C_R   0.935942 0.413756 0.547428 0.164510
C36   C     C_R   0.920408 0.580374 0.448394 0.235835
H1    H     H_    0.630582 0.337231 0.279513 0.182403
H2    H     H_    0.331469 0.724443 0.935244 0.248245
H3    H     H_    0.344830 0.812433 0.841952 0.241749
H4    H     H_    0.224930 0.685739 0.847776 0.241709
H5    H     H_    0.779256 0.315694 0.822343 0.236906
H6    H     H_    0.672653 0.294254 0.732308 0.226876
H7    H     H_    0.798472 0.419066 0.736323 0.258565
H8    H     H_    0.220761 0.684330 0.177660 0.236909
H9    H     H_    0.201534 0.580953 0.263676 0.258557
H10   H     H_    0.327361 0.705756 0.267697 0.226876
H11   H     H_    0.403456 0.205998 0.338298 0.230842
H12   H     H_    0.369408 0.662763 0.720485 0.182408
H13   H     H_    0.291611 0.074995 0.325341 0.230429
H14   H     H_    0.255443 0.192531 0.393304 0.258850
H15   H     H_    0.596546 0.794002 0.661701 0.230843
H16   H     H_    0.744557 0.807470 0.606695 0.258850
H17   H     H_    0.708390 0.925005 0.674659 0.230428
H18   H     H_    0.061571 0.752979 0.368326 0.232917
H19   H     H_    0.158001 0.766178 0.461432 0.242859
H20   H     H_    0.217302 0.671956 0.385346 0.268282
H21   H     H_    0.841996 0.233825 0.538569 0.242857
H22   H     H_    0.938431 0.247020 0.631673 0.232904
H23   H     H_    0.681781 0.421692 0.919384 0.158902
H24   H     H_    0.782700 0.328045 0.614657 0.268279
H25   H     H_    0.750537 0.686241 0.397804 0.278976
H26   H     H_    0.758408 0.582102 0.279367 0.258994
H27   H     H_    0.935882 0.550887 0.300737 0.240673
H28   H     H_    0.876484 0.707623 0.268084 0.236049
H29   H     H_    0.249458 0.313750 0.602194 0.278966
H30   H     H_    0.241632 0.417834 0.720644 0.258971
H31   H     H_    0.123442 0.292407 0.731910 0.236038
H32   H     H_    0.064186 0.449187 0.699256 0.240667
H33   H     H_    0.318229 0.578330 0.080617 0.158902
H34   H     H_    0.362989 0.887478 0.395541 0.144708
H35   H     H_    0.637011 0.112522 0.604459 0.144708
H36   H     H_    0.668523 0.275560 0.064753 0.248245
H37   H     H_    0.775062 0.314255 0.152223 0.241709
H38   H     H_    0.655153 0.187567 0.158043 0.241749
N1    N     N_2   0.493444 0.553425 0.982770 -0.191598
N2    N     N_2   0.506558 0.446587 0.017229 -0.191597
N3    N     N_R   0.857210 0.499970 0.500020 -0.142123
N4    N     N_R   0.142790 0.500030 0.499980 -0.142118
N5    N     N_2   0.843626 0.654590 0.387037 -0.298059
N6    N     N_2   0.156374 0.345411 0.612963 -0.298061
O1    O     O_R   0.614620 0.316750 0.500010 -0.621888
O2    O     O_R   0.385380 0.683250 0.499990 -0.621888
O3    O     O_R   0.385290 0.316780 0.500000 -0.636507
O4    O     O_R   0.614710 0.683220 0.500000 -0.636507
O5    O     O_R   0.627460 0.498830 0.616130 -0.612237
O6    O     O_R   0.372540 0.501170 0.383870 -0.612237
O7    O     O_R   0.398130 0.498850 0.616130 -0.618331
O8    O     O_R   0.601870 0.501150 0.383870 -0.618343
Zn1   Zn    Zn3+2 0.653130 0.499980 0.500000 0.923992
Zn2   Zn    Zn3+2 0.346870 0.500020 0.500000 0.923994

loop_
_geom_bond_atom_site_label_1
_geom_bond_atom_site_label_2
_ccdc_geom_bond_type
C2    C35   A    
C29   H27   S    
C3    O5    A    
C19   C31   A    
C27   H18   S    
C1    C33   S    
C28   H21   S    
N4    Zn2   S    
C14   H23   S    
N3    Zn1   S    
C24   H9    S    
C36   N3    A    
C11   C14   A    
C27   H19   S    
C22   H5    S    
C4    O6    A    
C1    O1    A    
C12   O4    A    
C7    C9    A    
O3    Zn2   S    
C19   C26   S    
C25   H14   S    
C5    C16   A    
C21   H2    S    
C28   C35   S    
C10   C20   S    
C21   H3    S    
C31   C33   A    
C25   H11   S    
C30   H31   S    
O1    Zn1   S    
C31   H35   S    
C29   H28   S    
H29   N6    S    
C12   C32   S    
C23   H34   S    
C18   C25   S    
C19   C32   A    
C28   H24   S    
C27   C34   S    
C15   H33   S    
C17   C24   S    
C12   O2    A    
C18   C23   A    
C4    C6    S    
O6    Zn2   S    
C5    C7    A    
O5    Zn1   S    
C27   H20   S    
C6    C8    A    
C3    O7    A    
C35   N3    A    
N1    N2    D    
C2    N4    A    
C26   H16   S    
C22   H7    S    
C29   N5    S    
C13   N2    S    
C20   H38   S    
C9    C11   A    
C30   H30   S    
C36   N5    S    
C34   N4    A    
C13   C15   A    
C24   H8    S    
C14   C16   A    
C8    H1    S    
C26   H17   S    
C15   C17   A    
C6    C17   A    
C29   H26   S    
C16   C22   S    
C3    C5    S    
C10   C13   A    
C4    O8    A    
C28   H22   S    
C1    O3    A    
O2    Zn2   S    
C24   H10   S    
C7    H12   S    
C30   N6    S    
C11   N1    S    
C26   H15   S    
C23   C32   A    
C9    C21   S    
C22   H6    S    
C21   H4    S    
H25   N5    S    
C20   H37   S    
C34   C36   A    
C18   C33   A    
C25   H13   S    
C2    N6    S    
O8    Zn1   S    
C8    C10   A    
O4    Zn1   S    
O7    Zn2   S    
C20   H36   S    
C30   H32   S    
