data_mof_unit_23061.cif
_audit_creation_date              2013-03-05T15:55:07-0500
_audit_creation_method            fapswitch 2.2
_symmetry_space_group_name_H-M    P1
_symmetry_Int_Tables_number       1
_space_group_crystal_system       triclinic
_cell_length_a                    8.329114
_cell_length_b                    16.361676
_cell_length_c                    17.290425
_cell_angle_alpha                 98.934442
_cell_angle_beta                  97.14255
_cell_angle_gamma                 94.171074
_cell_volume                      2299.45005944

loop_
_atom_site_label
_atom_site_type_symbol
_atom_site_description
_atom_site_fract_x
_atom_site_fract_y
_atom_site_fract_z
_atom_type_partial_charge
P1    P     P_3+3 0.011660 0.422550 0.320180 0.466834
O1    O     O_2   0.836060 0.445790 0.307930 -0.370806
O2    O     O_3   0.108600 0.451610 0.405920 -0.369423
O3    O     O_3   0.604850 0.595390 0.356120 -0.397978
O4    O     O_2   0.736116 0.556443 0.228018 -0.436174
O5    O     O_3   0.985737 0.314521 0.313274 -0.578326
O6    O     O_3   0.572989 0.687385 0.231809 -0.556044
H1    H     H_    0.718150 0.731494 0.339054 0.190318
C1    C     C_3   0.627720 0.835374 0.293229 -0.659969
H2    H     H_    0.642669 0.874992 0.352338 0.184240
H3    H     H_    0.741465 0.848778 0.268928 0.273791
P2    P     P_3+3 0.650900 0.688870 0.561900 0.448514
P3    P     P_3+3 0.058778 0.747533 0.398048 0.479716
O7    O     O_2   0.818230 0.699530 0.538240 -0.366300
O8    O     O_3   0.027730 0.639010 0.395710 -0.329807
O9    O     O_2   0.941282 0.789736 0.450864 -0.415850
O10   O     O_3   0.675345 0.731382 0.663600 -0.629074
O11   O     O_3   0.005604 0.776933 0.304187 -0.539852
C2    C     C_3   0.031265 0.715493 0.240478 0.321515
H4    H     H_    0.953132 0.658371 0.240680 0.153120
C3    C     C_3   0.991949 0.744783 0.158693 -0.512083
C4    C     C_3   0.232593 0.721581 0.637024 0.333283
H5    H     H_    0.353149 0.705754 0.622978 0.082287
H6    H     H_    0.136452 0.699824 0.585948 0.105020
C5    C     C_3   0.236861 0.816206 0.655956 -0.603232
H7    H     H_    0.263973 0.843755 0.603755 0.168497
H8    H     H_    0.115822 0.834195 0.668780 0.204729
Ba1   Ba    Ba6+2 0.836100 0.536190 0.461710 1.549364
C6    C     C_3   0.908211 0.279684 0.237195 0.298406
H9    H     H_    0.985739 0.292168 0.191622 0.037038
H10   H     H_    0.788139 0.304126 0.224564 0.126235
C7    C     C_3   0.878462 0.186315 0.232867 -0.904193
H11   H     H_    0.995525 0.158242 0.239082 0.244399
H12   H     H_    0.806316 0.158047 0.175313 0.218585
H13   H     H_    0.811412 0.173011 0.281707 0.281535
C8    C     C_3   0.726271 0.678380 0.716492 0.297735
H14   H     H_    0.721989 0.612753 0.686984 0.090986
C9    C     C_3   0.613944 0.684122 0.781837 -0.494447
H15   H     H_    0.626081 0.630552 0.813969 0.217358
H16   H     H_    0.487758 0.681092 0.753986 0.260128
P4    P     P_3+3 0.178040 0.577520 0.679830 0.475283
O12   O     O_2   0.353650 0.554240 0.692110 -0.382113
O13   O     O_3   0.081100 0.548460 0.594090 -0.417935
O14   O     O_3   0.584850 0.404680 0.643890 -0.366482
O15   O     O_3   0.199867 0.686539 0.702811 -0.556925
P5    P     P_3+3 0.146111 0.253650 0.604304 0.461046
O16   O     O_3   0.621030 0.400630 0.459910 -0.361635
O17   O     O_3   0.161970 0.361060 0.604300 -0.350733
O18   O     O_2   0.279272 0.216934 0.558572 -0.410687
O19   O     O_3   0.207366 0.241178 0.702022 -0.501086
Ba2   Ba    Ba6+2 0.353720 0.463880 0.538300 1.563862
P6    P     P_3+3 0.575508 0.585332 0.253628 0.463337
C10   C     C_3   0.605281 0.744103 0.303943 0.288427
H17   H     H_    0.504362 0.737741 0.338877 0.090457
O20   O     O_3   0.568670 0.599440 0.540100 -0.406911
C11   C     C_3   0.372630 0.227346 0.296108 0.332316
H18   H     H_    0.270657 0.254339 0.323598 0.123676
C12   C     C_3   0.364147 0.134578 0.303690 -0.649832
H19   H     H_    0.352477 0.127618 0.365290 0.198913
H20   H     H_    0.252279 0.101380 0.267362 0.152601
P7    P     P_3+3 0.544542 0.295426 0.434283 0.447567
O21   O     O_2   0.371480 0.300500 0.461810 -0.370659
O22   O     O_3   0.524592 0.270777 0.330377 -0.582336
H21   H     H_    0.053734 0.705819 0.114821 0.135134
C13   C     C_3   0.087706 0.268044 0.747997 0.419470
H22   H     H_    0.035195 0.324177 0.730486 0.024221
H23   H     H_    0.990869 0.216441 0.741811 0.037146
C14   C     C_3   0.160165 0.291609 0.834889 -0.595045
H24   H     H_    0.261509 0.341603 0.841873 0.231975
H25   H     H_    0.064181 0.316004 0.868904 0.151457
P8    P     P_3+3 0.617476 0.409667 0.745751 0.475884
C15   C     C_3   0.635096 0.252469 0.710718 0.325436
H26   H     H_    0.760789 0.274294 0.704001 -0.042679
O23   O     O_2   0.489982 0.462834 0.781247 -0.383072
O24   O     O_3   0.571483 0.309505 0.765920 -0.523770
H27   H     H_    0.561106 0.246501 0.651734 0.116543
H28   H     H_    0.725043 0.131416 0.703263 0.105928
C16   C     C_3   0.638562 0.166214 0.736380 -0.423512
C17   C     C_2   0.298971 0.472634 0.264123 -0.196801
C18   C     C_3   0.403621 0.503964 0.206075 0.219507
C19   C     C_2   0.308809 0.524751 0.133050 -0.232417
C20   C     C_2   0.146974 0.503381 0.115466 0.014287
C21   C     C_2   0.058903 0.468851 0.176398 -0.316169
C22   C     C_1   0.136000 0.459466 0.246453 0.282328
C23   C     C_R   0.894988 0.460310 0.859653 -0.213485
C24   C     C_R   0.826423 0.455982 0.781109 0.215326
C25   C     C_R   0.074487 0.525577 0.751492 0.379174
C26   C     C_R   0.142701 0.531240 0.831340 -0.184238
C27   C     C_R   0.052756 0.499407 0.886327 0.178417
C28   C     C_2   0.057826 0.513938 0.036432 -0.043250
C29   C     C_2   0.130915 0.500452 0.969346 -0.213396
C30   C     C_R   0.917324 0.486900 0.727256 -0.486166
H29   H     H_    0.255729 0.484752 0.974266 0.123593
H30   H     H_    0.932978 0.443836 0.159759 0.121826
H31   H     H_    0.826143 0.431979 0.899307 0.127573
H32   H     H_    0.376268 0.552896 0.092585 0.140628
H33   H     H_    0.263932 0.561749 0.850936 0.151508
H34   H     H_    0.863545 0.483278 0.666455 0.175229
C31   C     C_R   0.372811 0.729065 0.468426 -0.333066
C32   C     C_R   0.529794 0.757412 0.507790 0.266816
C33   C     C_R   0.583752 0.842379 0.517694 -0.299364
C34   C     C_R   0.482209 0.899483 0.488306 0.144084
C35   C     C_R   0.324899 0.870013 0.450495 -0.374289
C36   C     C_R   0.269465 0.785734 0.441771 0.289424
C37   C     C_R   0.616100 0.150785 0.499151 -0.253080
C38   C     C_R   0.677682 0.229117 0.486860 0.234516
C39   C     C_R   0.719145 0.096767 0.532868 0.184163
N1    N     N_2   0.532867 0.985877 0.493284 -0.055688
N2    N     N_2   0.668052 0.011189 0.533318 -0.074221
C40   C     C_R   0.844572 0.254628 0.510308 -0.255618
H35   H     H_    0.489051 0.131104 0.480971 0.158278
H36   H     H_    0.244863 0.913026 0.428461 0.183114
C41   C     C_R   0.940543 0.207693 0.556555 0.190926
C42   C     C_R   0.879478 0.127845 0.565144 -0.356407
H37   H     H_    0.703658 0.863629 0.549301 0.176156
H38   H     H_    0.957222 0.089495 0.595889 0.159603
N3    N     N_3   0.359577 0.849345 0.723477 -0.151453
H39   H     H_    0.473386 0.848496 0.703929 0.159770
H40   H     H_    0.342869 0.911882 0.740843 0.187262
C43   C     C_2   0.895636 0.709614 0.754323 0.474951
H41   H     H_    0.957824 0.761507 0.735110 0.070623
O25   O     O_2   0.960402 0.681157 0.810211 -0.592001
N4    N     N_3   0.643202 0.761938 0.838690 -0.179723
H42   H     H_    0.744488 0.759176 0.880138 0.192619
H43   H     H_    0.666477 0.811968 0.809460 0.146540
C44   C     C_2   0.485230 0.860998 0.244159 0.708177
H44   H     H_    0.369961 0.864792 0.266989 -0.029534
O26   O     O_2   0.498653 0.879520 0.179410 -0.586116
N5    N     N_3   0.348091 0.235053 0.212355 -0.215430
H45   H     H_    0.230903 0.209589 0.187481 0.073696
H46   H     H_    0.352733 0.298232 0.208220 0.072437
C45   C     C_2   0.506833 0.093197 0.276689 0.702863
H47   H     H_    0.531261 0.091837 0.216339 0.028517
O27   O     O_2   0.594698 0.059850 0.321781 -0.596498
N6    N     N_3   0.217193 0.219399 0.865973 -0.160842
H48   H     H_    0.329537 0.209370 0.847271 0.219112
H49   H     H_    0.240027 0.235183 0.927553 0.120686
C46   C     C_2   0.476010 0.115797 0.713298 0.671258
H50   H     H_    0.416979 0.107821 0.652668 0.017590
O28   O     O_2   0.411222 0.081603 0.760873 -0.612962
N7    N     N_3   0.695639 0.172268 0.821066 -0.159734
H51   H     H_    0.616020 0.204049 0.854291 0.173298
H52   H     H_    0.808631 0.207135 0.834566 0.115533
C47   C     C_2   0.892395 0.542696 0.035368 0.472505
H53   H     H_    0.818271 0.529764 0.079982 0.025786
O29   O     O_2   0.840081 0.584857 0.987193 -0.560648
N8    N     N_3   0.381966 0.449497 0.334307 -0.144698
H54   H     H_    0.501819 0.440614 0.325781 0.179401
H55   H     H_    0.332776 0.390883 0.339687 0.130916
C48   C     C_2   0.203177 0.693794 0.247075 0.353048
H56   H     H_    0.288005 0.720531 0.213434 0.040947
O30   O     O_2   0.247130 0.644281 0.288930 -0.606101
N9    N     N_3   0.313202 0.643105 0.456073 -0.129098
H57   H     H_    0.295871 0.622426 0.508487 0.146455
H58   H     H_    0.385356 0.605930 0.423918 0.216674
N10   N     N_3   0.920202 0.325988 0.485085 -0.135822
H59   H     H_    0.029098 0.309306 0.465739 0.190742
H60   H     H_    0.855811 0.336248 0.432737 0.191603
N11   N     N_3   0.819388 0.732291 0.126571 -0.152344
H61   H     H_    0.754085 0.774954 0.157235 0.223525
H62   H     H_    0.772377 0.672622 0.131039 0.183974
C49   C     C_2   0.057692 0.833474 0.160042 0.668119
H63   H     H_    0.156146 0.846239 0.126753 0.016327
O31   O     O_2   0.002314 0.891327 0.198281 -0.556111

loop_
_geom_bond_atom_site_label_1
_geom_bond_atom_site_label_2
_geom_bond_distance
_ccdc_geom_bond_type
P8    O24   1.753141 S    
C25   C26   1.412449 A    
Ba1   O16   2.741546 S    
C44   H44   1.084781 S    
C3    N11   1.462716 S    
P4    O12   1.535749 D    
C2    H4    1.100053 S    
C15   H27   1.110619 S    
C19   C20   1.352084 D    
C28   C29   1.371275 D    
C30   H34   1.081212 S    
N6    H48   1.043161 S    
H28   C16   1.109892 S    
N1    N2    1.252108 D    
P1    C22   1.881183 S    
C37   C39   1.415489 A    
P5    O18   1.543925 D    
C33   C34   1.414922 A    
P3    O11   1.776533 S    
P2    Ba1   3.391438 S    
O2    Ba1   2.929813 S    
C2    C3    1.566748 S    
O6    P6    1.769068 S    
C49   H63   1.084973 S    
C6    C7    1.518420 S    
N7    H52   1.044778 S    
N11   H61   1.037399 S    
C23   C24   1.395301 A    
C9    H15   1.112339 S    
C18   C19   1.502664 S    
Ba1   Ba2   4.518235 S    
N4    H43   1.045382 S    
C12   H20   1.110228 S    
C2    C48   1.495077 S    
C11   H18   1.110006 S    
O14   P8    1.736529 S    
P1    O1    1.535418 D    
P7    O22   1.763208 S    
C3    H21   1.114123 S    
C15   C16   1.544877 S    
C14   H24   1.113421 S    
N10   H60   1.036657 S    
O17   Ba2   2.709586 S    
N8    H54   1.044247 S    
C12   C45   1.498543 S    
C45   H47   1.084889 S    
C13   H23   1.107380 S    
C4    C5    1.528759 S    
P2    O10   1.768558 S    
P1    Ba1   3.384641 S    
C44   O26   1.220360 D    
N11   H62   1.042959 S    
O4    P6    1.543782 D    
C34   N1    1.431771 S    
O10   C8    1.404179 S    
N9    H58   1.035121 S    
C1    H2    1.109530 S    
Ba2   O20   2.740952 S    
C11   N5    1.463423 S    
O12   Ba2   2.835076 S    
C31   C36   1.401149 A    
C37   H35   1.076375 S    
C25   C30   1.396549 A    
P4    O13   1.582184 S    
P7    O21   1.577008 D    
Ba2   O21   2.815119 S    
C15   O24   1.408413 S    
C16   C46   1.507890 S    
O3    Ba1   2.815576 S    
Ba1   O20   2.918912 S    
C43   O25   1.219938 D    
C39   N2    1.435005 S    
C49   O31   1.221006 D    
P4    C25   1.867531 S    
P5    O17   1.752768 S    
P1    O5    1.748588 S    
C7    H13   1.108646 S    
N4    H42   1.045269 S    
C47   O29   1.221271 D    
C16   N7    1.467938 S    
C19   H32   1.085134 S    
C23   C27   1.408559 A    
O11   C2    1.419675 S    
O16   Ba2   2.918065 S    
C12   H19   1.103915 S    
C10   H17   1.102401 S    
C21   H30   1.084576 S    
C35   H36   1.083138 S    
P1    O2    1.582185 S    
C7    H12   1.110504 S    
C39   C42   1.407515 A    
C6    H9    1.112187 S    
C29   H29   1.085173 S    
P8    C24   1.837522 S    
C21   C22   1.334869 D    
C13   C14   1.526701 S    
C4    O15   1.397791 S    
C11   O22   1.417720 S    
C5    H7    1.109525 S    
P3    C36   1.845374 S    
P7    C38   1.861158 S    
C1    H3    1.104347 S    
C40   C41   1.410396 A    
C46   O28   1.220772 D    
C17   N8    1.437327 S    
O14   Ba2   2.814947 S    
C45   O27   1.220433 D    
O3    P6    1.738709 S    
C20   C21   1.511282 S    
P3    O8    1.769082 S    
C33   H37   1.082454 S    
C48   O30   1.213844 D    
P3    O9    1.546995 D    
C1    C10   1.534046 S    
O6    C10   1.417692 S    
C8    C9    1.550294 S    
C43   H41   1.079807 S    
C41   C42   1.403537 A    
C38   C40   1.411987 A    
N6    H49   1.045760 S    
C8    H14   1.110979 S    
O2    Ba2   2.843100 S    
C3    C49   1.508946 S    
P5    C41   1.856614 S    
N8    H55   1.037437 S    
C48   H56   1.079428 S    
P6    C18   1.894238 S    
C14   N6    1.458001 S    
C26   H33   1.082882 S    
P2    O7    1.506250 D    
C15   H26   1.107138 S    
C5    N3    1.458671 S    
H1    C10   1.104573 S    
O16   P7    1.760258 S    
P8    O23   1.546500 D    
C42   H38   1.082929 S    
C5    H8    1.109340 S    
C37   C38   1.402477 A    
P5    O19   1.750574 S    
Ba1   O13   2.842488 S    
C1    C44   1.495529 S    
C20   C28   1.512693 S    
C31   C32   1.407272 A    
C47   H53   1.082169 S    
C7    H11   1.107990 S    
N3    H40   1.045059 S    
N5    H45   1.045023 S    
C6    H10   1.113007 S    
C24   C30   1.400729 A    
N7    H51   1.045143 S    
C9    H16   1.094594 S    
C23   H31   1.082395 S    
O13   Ba2   2.930663 S    
O8    Ba1   2.708989 S    
C17   C22   1.347657 D    
C31   N9    1.431413 S    
C27   C29   1.497658 S    
C32   C33   1.407137 A    
C11   C12   1.540957 S    
C4    H6    1.110365 S    
C34   C35   1.404937 A    
C8    C43   1.496940 S    
O19   C13   1.403819 S    
P2    C32   1.845600 S    
P2    O20   1.539775 S    
C40   N10   1.438644 S    
C46   H50   1.085241 S    
C17   C18   1.530455 S    
O5    C6    1.405195 S    
N10   H59   1.045064 S    
C26   C27   1.417964 A    
C14   H25   1.111209 S    
C13   H22   1.112818 S    
C9    N4    1.467407 S    
C35   C36   1.401032 A    
P4    O15   1.757086 S    
C4    H5    1.101471 S    
O1    Ba1   2.834737 S    
O7    Ba1   2.814938 S    
N9    H57   1.037926 S    
N3    H39   1.045522 S    
P4    Ba2   3.385203 S    
C28   C47   1.486957 S    
N5    H46   1.045467 S    
