data_mof_unit_29233.cif
_audit_creation_date              2012-10-26T17:13:11-0400
_audit_creation_method            fapswitch 2.2
_symmetry_space_group_name_H-M    P1
_symmetry_Int_Tables_number       1
_space_group_crystal_system       triclinic
_cell_length_a                    16.844529
_cell_length_b                    16.831038
_cell_length_c                    16.803877
_cell_angle_alpha                 68.684095
_cell_angle_beta                  68.558604
_cell_angle_gamma                 68.458989
_cell_volume                      3977.37111951

loop_
_atom_site_label
_atom_site_type_symbol
_atom_type_description
_atom_site_fract_x
_atom_site_fract_y
_atom_site_fract_z
_atom_type_partial_charge
C1    C     C_R   0.310347 0.009361 0.427755 0.005176
C2    C     C_R   0.691655 0.993473 0.565441 0.010678
C3    C     C_R   0.940486 0.453913 0.325186 0.010471
C4    C     C_R   0.968337 0.571898 0.701013 0.008361
C5    C     C_R   0.428754 0.298889 0.034738 0.012452
C6    C     C_R   0.544394 0.673768 0.065785 0.007710
C7    C     C_R   0.554522 0.042034 0.675078 0.009655
C8    C     C_R   0.449125 0.958820 0.320974 0.014065
C9    C     C_R   0.674050 0.543910 0.065680 0.008072
C10   C     C_R   0.298921 0.429055 0.034489 0.013093
C11   C     C_R   0.972574 0.699431 0.570153 0.010802
C12   C     C_R   0.938964 0.324864 0.455333 0.010779
C13   C     C_R   0.452236 0.998800 0.445707 -0.037810
C14   C     C_R   0.549462 0.012286 0.544284 -0.037953
C15   C     C_R   0.942822 0.464737 0.465731 -0.039860
C16   C     C_R   0.955874 0.563195 0.563735 -0.039221
C17   C     C_R   0.434335 0.434370 0.054508 -0.038265
C18   C     C_R   0.531725 0.531527 0.070406 -0.038206
C19   C     C_R   0.008613 0.833727 0.570708 0.827715
C20   C     C_R   0.969029 0.171832 0.436137 0.827221
C21   C     C_R   0.828737 0.564873 0.026635 0.797344
C22   C     C_R   0.165437 0.428590 0.994336 0.855768
C23   C     C_R   0.566054 0.024132 0.829095 0.835958
C24   C     C_R   0.435775 0.970678 0.171505 0.797066
C25   C     C_R   0.428555 0.165419 0.994387 0.841410
C26   C     C_R   0.565187 0.828681 0.026160 0.811379
C27   C     C_R   0.969428 0.435905 0.171871 0.799263
C28   C     C_R   0.007359 0.571014 0.834251 0.849714
C29   C     C_R   0.169707 0.981905 0.431508 0.843116
C30   C     C_R   0.832259 0.012665 0.569526 0.806434
C31   C     C_R   0.403773 0.988830 0.398270 0.070254
C32   C     C_R   0.598446 0.016570 0.594783 0.069126
C33   C     C_R   0.941366 0.414058 0.415061 0.070813
C34   C     C_R   0.966967 0.611237 0.611441 0.072934
C35   C     C_R   0.387538 0.387647 0.040061 0.071870
C36   C     C_R   0.583530 0.583204 0.067320 0.070538
C37   C     C_R   0.264780 0.980927 0.390195 -0.159700
C38   C     C_R   0.739798 0.005984 0.611323 -0.154751
C39   C     C_R   0.947378 0.401610 0.271592 -0.155677
C40   C     C_R   0.988529 0.616694 0.746056 -0.166020
C41   C     C_R   0.383267 0.253620 0.015453 -0.161864
C42   C     C_R   0.600588 0.730195 0.040392 -0.153855
C43   C     C_R   0.606109 0.028007 0.733144 -0.153391
C44   C     C_R   0.399934 0.956798 0.269695 -0.157233
C45   C     C_R   0.730541 0.599965 0.040571 -0.144386
C46   C     C_R   0.253622 0.383426 0.015316 -0.168179
C47   C     C_R   0.990308 0.745504 0.615986 -0.152495
C48   C     C_R   0.946734 0.271382 0.402287 -0.165478
C49   C     C_R   0.461029 0.076306 0.695431 -0.226808
C50   C     C_R   0.542304 0.928815 0.298561 -0.226519
C51   C     C_R   0.954094 0.740007 0.486151 -0.237196
C52   C     C_R   0.922589 0.294223 0.548978 -0.232336
C53   C     C_R   0.704565 0.450030 0.085378 -0.241376
C54   C     C_R   0.256428 0.511339 0.057014 -0.227130
C55   C     C_R   0.267163 0.054370 0.495654 -0.228908
C56   C     C_R   0.734123 0.954121 0.494033 -0.224001
C57   C     C_R   0.510739 0.256229 0.057531 -0.226990
C58   C     C_R   0.450499 0.704390 0.085831 -0.235125
C59   C     C_R   0.926896 0.546832 0.293506 -0.233095
C60   C     C_R   0.943250 0.491353 0.743887 -0.227506
C61   C     C_R   0.312172 0.950479 0.311980 0.058493
C62   C     C_R   0.700097 0.007088 0.700624 0.051338
C63   C     C_R   0.938765 0.313411 0.313639 0.062317
C64   C     C_R   0.989635 0.706974 0.706844 0.039705
C65   C     C_R   0.291465 0.291528 0.020910 0.060584
C66   C     C_R   0.693952 0.693035 0.017223 0.065816
C67   C     C_R   0.686407 0.948641 0.444910 0.102387
C68   C     C_R   0.314999 0.064405 0.542990 0.101745
C69   C     C_R   0.936858 0.442118 0.696256 0.099721
C70   C     C_R   0.934960 0.595051 0.340623 0.105267
C71   C     C_R   0.400246 0.655032 0.083751 0.105786
C72   C     C_R   0.558246 0.303140 0.067743 0.097326
C73   C     C_R   0.590291 0.935591 0.346931 0.103361
C74   C     C_R   0.412223 0.075434 0.643281 0.104736
C75   C     C_R   0.303375 0.558625 0.067584 0.097102
C76   C     C_R   0.655043 0.399891 0.083402 0.105320
C77   C     C_R   0.926268 0.343257 0.598513 0.101055
C78   C     C_R   0.949829 0.691577 0.437000 0.105647
C79   C     C_R   0.730550 0.912897 0.371878 -0.195936
C80   C     C_R   0.271323 0.102445 0.614887 -0.198251
C81   C     C_R   0.919874 0.358894 0.739015 -0.198132
C82   C     C_R   0.932342 0.684821 0.302921 -0.203843
C83   C     C_R   0.308915 0.690269 0.092126 -0.198711
C84   C     C_R   0.642034 0.260514 0.084012 -0.197846
C85   C     C_R   0.682933 0.906151 0.323265 -0.201873
C86   C     C_R   0.319421 0.107420 0.664858 -0.200085
C87   C     C_R   0.260865 0.642452 0.084090 -0.196503
C88   C     C_R   0.690087 0.308524 0.091709 -0.205745
C89   C     C_R   0.914997 0.309639 0.690419 -0.206143
C90   C     C_R   0.941048 0.732415 0.350384 -0.210290
C91   C     C_R   0.545300 0.971865 0.420135 0.026215
C92   C     C_R   0.456534 0.040560 0.569133 0.027388
C93   C     C_R   0.939930 0.427721 0.556021 0.029133
C94   C     C_R   0.951914 0.602202 0.475348 0.030662
C95   C     C_R   0.393552 0.521269 0.063314 0.028951
C96   C     C_R   0.569643 0.441835 0.071442 0.029512
C97   C     C_R   0.593653 0.978638 0.469230 0.026662
C98   C     C_R   0.407894 0.034304 0.519456 0.028588
C99   C     C_R   0.442067 0.569612 0.071556 0.028110
C100  C     C_R   0.521147 0.393408 0.063323 0.028868
C101  C     C_R   0.945910 0.477047 0.604986 0.028425
C102  C     C_R   0.944895 0.553453 0.426714 0.028564
Cu1   Cu    Cu3+1 0.995180 0.995180 0.424630 0.881683
Cu2   Cu    Cu3+1 0.004820 0.004820 0.575370 0.885897
Cu3   Cu    Cu3+1 0.995180 0.424630 0.995180 0.881809
Cu4   Cu    Cu3+1 0.004820 0.575370 0.004820 0.881230
Cu5   Cu    Cu3+1 0.424630 0.995180 0.995180 0.894768
Cu6   Cu    Cu3+1 0.575370 0.004820 0.004820 0.884566
H1    H     H_    0.425234 0.105386 0.750605 0.165154
H2    H     H_    0.578336 0.895559 0.246320 0.161180
H3    H     H_    0.935825 0.810199 0.458460 0.166220
H4    H     H_    0.901711 0.234675 0.586026 0.172053
H5    H     H_    0.766550 0.413945 0.101850 0.167998
H6    H     H_    0.185724 0.538289 0.073038 0.179425
H7    H     H_    0.196532 0.083680 0.511998 0.173560
H8    H     H_    0.804080 0.922026 0.478741 0.156526
H9    H     H_    0.537245 0.185465 0.073999 0.180182
H10   H     H_    0.414507 0.766323 0.102677 0.167202
H11   H     H_    0.905153 0.584745 0.234476 0.172678
H12   H     H_    0.922780 0.467336 0.814909 0.177512
O1    O     O_R   0.124540 0.978640 0.385460 -0.572964
O2    O     O_R   0.875460 0.021360 0.614540 -0.587435
O3    O     O_R   0.978640 0.385460 0.124540 -0.589958
O4    O     O_R   0.021360 0.614540 0.875460 -0.577810
O5    O     O_R   0.385460 0.124540 0.978640 -0.577660
O6    O     O_R   0.614540 0.875460 0.021360 -0.581885
O7    O     O_R   0.614540 0.021360 0.875460 -0.578708
O8    O     O_R   0.385460 0.978640 0.124540 -0.588505
O9    O     O_R   0.875460 0.614540 0.021360 -0.585739
O10   O     O_R   0.124540 0.385460 0.978640 -0.567861
O11   O     O_R   0.021360 0.875460 0.614540 -0.588196
O12   O     O_R   0.978640 0.124540 0.385460 -0.574946
O13   O     O_R   0.013780 0.867370 0.487190 -0.608640
O14   O     O_R   0.986220 0.132630 0.512810 -0.601953
O15   O     O_R   0.867370 0.487190 0.013780 -0.615231
O16   O     O_R   0.132630 0.512810 0.986220 -0.594359
O17   O     O_R   0.487190 0.013780 0.867370 -0.587455
O18   O     O_R   0.512810 0.986220 0.132630 -0.604352
O19   O     O_R   0.512810 0.132630 0.986220 -0.598759
O20   O     O_R   0.487190 0.867370 0.013780 -0.597346
O21   O     O_R   0.986220 0.512810 0.132630 -0.608429
O22   O     O_R   0.013780 0.487190 0.867370 -0.592046
O23   O     O_R   0.132630 0.986220 0.512810 -0.590594
O24   O     O_R   0.867370 0.013780 0.487190 -0.609139
C103  C     C_3   0.278748 0.894563 0.283286 -0.308782
C104  C     C_3   0.218371 0.948807 0.220777 -0.700542
H13   H     H_    0.204443 0.021217 0.210289 0.243343
H14   H     H_    0.249312 0.933449 0.155431 0.217855
H15   H     H_    0.154582 0.930840 0.248356 0.222858
H16   H     H_    0.335975 0.847230 0.250268 0.170604
H17   H     H_    0.244380 0.850616 0.342762 0.188434
C105  C     C_3   0.760577 0.964946 0.762749 -0.299465
C106  C     C_3   0.788317 0.031014 0.784280 -0.694516
H18   H     H_    0.766437 0.099734 0.743792 0.243035
H19   H     H_    0.760695 0.029875 0.855442 0.223564
H20   H     H_    0.861461 0.011967 0.771529 0.214984
H21   H     H_    0.732700 0.920053 0.823270 0.184808
H22   H     H_    0.818282 0.916356 0.734915 0.155739
C107  C     C_3   0.898616 0.273686 0.273427 -0.304268
C108  C     C_3   0.966911 0.213719 0.214110 -0.699965
H23   H     H_    0.958906 0.240219 0.145764 0.217807
H24   H     H_    0.035885 0.207251 0.211235 0.240996
H25   H     H_    0.956090 0.146675 0.239250 0.222650
H26   H     H_    0.853259 0.236064 0.327250 0.185406
H27   H     H_    0.853589 0.327574 0.235276 0.174479
C109  C     C_3   0.979003 0.764596 0.765744 -0.307166
C110  C     C_3   0.067327 0.765007 0.773874 -0.676008
H28   H     H_    0.122885 0.709933 0.751587 0.244697
H29   H     H_    0.084607 0.828238 0.734901 0.235286
H30   H     H_    0.061382 0.758056 0.843986 0.213302
H31   H     H_    0.938792 0.832284 0.747713 0.181725
H32   H     H_    0.933125 0.746468 0.831051 0.180562
C111  C     C_3   0.229981 0.230130 0.062130 -0.324285
C112  C     C_3   0.206338 0.206229 0.994956 -0.690848
H33   H     H_    0.238224 0.237947 0.925504 0.250667
H34   H     H_    0.227221 0.133318 0.005124 0.220531
H35   H     H_    0.133450 0.227086 0.005160 0.220837
H36   H     H_    0.259773 0.168231 0.107521 0.182151
H37   H     H_    0.168022 0.260312 0.107329 0.179639
C113  C     C_3   0.752369 0.750469 0.946497 -0.311908
C114  C     C_3   0.791527 0.794831 0.983839 -0.711292
H38   H     H_    0.766630 0.780775 0.057224 0.245219
H39   H     H_    0.864787 0.771748 0.966556 0.222232
H40   H     H_    0.774694 0.867570 0.955064 0.224733
H41   H     H_    0.805594 0.712055 0.901507 0.158937
H42   H     H_    0.712796 0.799412 0.901434 0.156715
H43   H     H_    0.283867 0.135232 0.721135 0.137934
H44   H     H_    0.718572 0.878297 0.266996 0.132887
H45   H     H_    0.942095 0.800850 0.318930 0.120932
H46   H     H_    0.903120 0.245018 0.724585 0.133341
H47   H     H_    0.755386 0.274578 0.102199 0.132135
H48   H     H_    0.190750 0.671752 0.089208 0.134018
H49   H     H_    0.199727 0.126532 0.633798 0.140973
H50   H     H_    0.801954 0.891238 0.351806 0.129768
H51   H     H_    0.671142 0.190343 0.089151 0.134461
H52   H     H_    0.275051 0.755578 0.102841 0.132588
H53   H     H_    0.925172 0.717747 0.236266 0.128276
H54   H     H_    0.911615 0.331354 0.809796 0.134932

loop_
_geom_bond_atom_site_label_1
_geom_bond_atom_site_label_2
_ccdc_geom_bond_type
C68   C80   A    
Cu4   O9    S    
C83   C87   A    
C9    C45   A    
C88   H47   S    
C18   C96   A    
C6    C58   A    
C11   C47   A    
C52   H4    S    
C63   C107  S    
C12   C48   A    
Cu1   O24   S    
C103  C104  S    
C7    C49   A    
C75   C95   A    
C110  H29   S    
C111  C112  S    
C78   C90   A    
C109  H32   S    
C80   H49   S    
C77   C89   A    
C79   H50   S    
C62   C105  S    
Cu4   O21   S    
C111  H36   S    
C57   H9    S    
C25   O19   A    
Cu5   O8    S    
C26   O20   A    
C72   C100  A    
C19   C47   S    
C58   C71   A    
Cu2   O2    S    
C3    C33   A    
C84   H51   S    
C29   O23   A    
C5    C35   A    
C50   H2    S    
C30   O24   A    
Cu3   O3    S    
C2    C32   A    
C26   O6    A    
C74   C92   A    
C83   H52   S    
C58   H10   S    
C25   O5    A    
C112  H33   S    
C80   C86   A    
Cu1   Cu2   S    
C16   C34   A    
C54   H6    S    
C71   C83   A    
C24   O8    A    
C30   O2    A    
C27   C39   S    
Cu2   O11   S    
C29   O1    A    
Cu5   O20   S    
C9    C36   A    
C64   C109  S    
Cu5   Cu6   S    
C10   C35   A    
C17   C95   A    
C7    C43   A    
C106  H19   S    
C4    C34   A    
Cu1   O12   S    
C76   C88   A    
C104  H14   S    
C103  H16   S    
C1    C37   A    
Cu3   O15   S    
C81   C89   A    
C85   H44   S    
Cu4   O16   S    
C3    C39   A    
C86   H43   S    
C57   C72   A    
C13   C91   A    
C20   O12   A    
C10   C54   A    
C12   C52   A    
C53   H5    S    
C55   C68   A    
C110  H30   S    
C21   C45   S    
C114  H39   S    
C1    C31   A    
C19   O11   A    
C105  H22   S    
C21   O15   A    
C59   H11   S    
C92   C98   A    
C108  H25   S    
C4    C40   A    
C67   C79   A    
C73   C91   A    
C46   C65   A    
C50   C73   A    
C93   C101  A    
C110  H28   S    
C27   O3    A    
C48   C63   A    
C41   C65   A    
C24   O18   A    
C114  H38   S    
C38   C62   A    
C71   C99   A    
C74   C86   A    
C107  H27   S    
C22   O16   A    
C108  H24   S    
Cu5   O17   S    
Cu5   O5    S    
C8    C44   A    
C28   C40   S    
C10   C46   A    
C104  H15   S    
C2    C38   A    
C107  C108  S    
C61   C103  S    
C89   H46   S    
C14   C92   A    
C4    C60   A    
C28   O4    A    
C56   H8    S    
Cu2   O23   S    
C112  H34   S    
C103  H17   S    
C91   C97   A    
C106  H20   S    
C112  H35   S    
C21   O9    A    
C72   C84   A    
Cu2   O14   S    
C82   H53   S    
C69   C81   A    
C75   C87   A    
C22   C46   S    
C81   H54   S    
C109  C110  S    
C24   C44   S    
C53   C76   A    
C9    C53   A    
C18   C99   A    
C25   C41   S    
C52   C77   A    
Cu1   O1    S    
C8    C50   A    
Cu3   O22   S    
C113  C114  S    
C26   C42   S    
C14   C97   A    
C23   O7    A    
C104  H13   S    
C73   C85   A    
C114  H40   S    
C5    C41   A    
C105  H21   S    
C51   H3    S    
C7    C32   A    
C20   C48   S    
C65   C111  S    
C107  H26   S    
C8    C31   A    
C23   O17   A    
C11   C34   A    
C15   C102  A    
C84   C88   A    
C14   C32   A    
C40   C64   A    
C15   C93   A    
Cu6   O19   S    
C37   C61   A    
C47   C64   A    
Cu3   O10   S    
C69   C101  A    
C44   C61   A    
C19   O13   A    
C56   C67   A    
C39   C63   A    
Cu3   Cu4   S    
C16   C94   A    
C82   C90   A    
C5    C57   A    
C113  H42   S    
C20   O14   A    
C108  H23   S    
Cu1   O13   S    
C49   H1    S    
C2    C56   A    
C76   C96   A    
Cu6   O18   S    
C13   C31   A    
C55   H7    S    
C70   C102  A    
C13   C98   A    
C66   C113  S    
C60   C69   A    
C78   C94   A    
C96   C100  A    
C77   C93   A    
C27   O21   A    
C79   C85   A    
C6    C36   A    
C60   H12   S    
C95   C99   A    
Cu6   O7    S    
C1    C55   A    
C70   C82   A    
C17   C100  A    
C68   C98   A    
C51   C78   A    
C11   C51   A    
C113  H41   S    
C67   C97   A    
C59   C70   A    
C54   C75   A    
C16   C101  A    
C109  H31   S    
C28   O22   A    
C105  C106  S    
C94   C102  A    
C6    C42   A    
C29   C37   S    
C45   C66   A    
C42   C66   A    
Cu4   O4    S    
C111  H37   S    
C49   C74   A    
C17   C35   A    
C30   C38   S    
Cu6   O6    S    
C12   C33   A    
C23   C43   S    
C18   C36   A    
C15   C33   A    
C22   O10   A    
C43   C62   A    
C87   H48   S    
C106  H18   S    
C90   H45   S    
C3    C59   A    
