data_mof_unit_41750.cif
_audit_creation_date              2012-12-10T17:36:47-0500
_audit_creation_method            fapswitch 2.2
_symmetry_space_group_name_H-M    P1
_symmetry_Int_Tables_number       1
_space_group_crystal_system       triclinic
_cell_length_a                    10.622957
_cell_length_b                    12.317944
_cell_length_c                    13.201506
_cell_angle_alpha                 116.861179
_cell_angle_beta                  77.709238
_cell_angle_gamma                 101.025986
_cell_volume                      1496.76595623

loop_
_atom_site_label
_atom_site_type_symbol
_atom_type_description
_atom_site_fract_x
_atom_site_fract_y
_atom_site_fract_z
_atom_type_partial_charge
C1    C     C_R   0.513065 0.854615 0.286480 0.780402
C2    C     C_3   0.021852 0.028339 0.607099 -0.192153
C3    C     C_3   0.934191 0.916469 0.535190 0.327803
C4    C     C_3   0.876784 0.998712 0.501870 -0.046223
C5    C     C_R   0.308136 0.279091 0.015107 0.275264
C6    C     C_R   0.450795 0.228286 0.834591 -0.112689
C7    C     C_R   0.606427 0.813273 0.086930 -0.240377
C8    C     C_R   0.624943 0.737442 0.970666 -0.123593
C9    C     C_R   0.568393 0.616499 0.928279 0.237973
C10   C     C_R   0.493600 0.568066 0.005444 0.034315
C11   C     C_R   0.458323 0.652030 0.121059 0.052833
C12   C     C_R   0.740205 0.999720 0.500780 0.802507
C13   C     C_R   0.449936 0.441471 0.973506 0.052301
C14   C     C_R   0.353361 0.404493 0.048351 0.083843
C15   C     C_R   0.304548 0.493300 0.154358 -0.167945
C16   C     C_R   0.356631 0.614564 0.190430 -0.198971
C17   C     C_R   0.505020 0.349708 0.872440 -0.189270
C18   C     C_R   0.354421 0.192469 0.907044 -0.212555
C19   C     C_R   0.522869 0.772579 0.163170 -0.099571
C20   C     C_R   0.706856 0.343309 0.326125 0.176549
C21   C     C_R   0.323452 0.759321 0.644222 0.104838
C22   C     C_R   0.282306 0.660727 0.672169 -0.215190
C23   C     C_R   0.481285 0.145321 0.713495 0.819897
C24   C     C_R   0.346704 0.555906 0.615233 -0.134499
C25   C     C_R   0.454573 0.548809 0.529757 0.039885
C26   C     C_R   0.491957 0.651708 0.503222 0.301055
C27   C     C_R   0.527154 0.444504 0.470497 -0.038049
C28   C     C_R   0.633584 0.444174 0.384320 0.095737
C29   C     C_R   0.665680 0.544808 0.358453 -0.188947
C30   C     C_R   0.597339 0.645908 0.416924 -0.142679
C31   C     C_R   0.500100 0.340537 0.494230 0.073967
C32   C     C_R   0.675501 0.245444 0.355499 0.055434
C33   C     C_R   0.259849 0.000565 0.499835 0.796287
C34   C     C_3   0.978997 0.972103 0.394542 -0.203031
C35   C     C_3   0.037570 0.888949 0.427965 -0.194582
C36   C     C_3   0.123361 0.001546 0.499670 -0.040109
C37   C     C_3   0.067378 0.084703 0.466124 -0.098234
C38   C     C_3   0.963174 0.111214 0.573497 -0.192105
Cu1   Cu    Cu3+1 0.529830 0.098270 0.475420 0.965576
Cu2   Cu    Cu3+1 0.470170 0.901730 0.524580 0.954563
H1    H     H_    0.070602 0.797967 0.368585 0.157252
H2    H     H_    0.656257 0.905206 0.116989 0.181313
H3    H     H_    0.682776 0.773994 0.912586 0.201224
H4    H     H_    0.312827 0.678959 0.272349 0.172503
H5    H     H_    0.730885 0.167550 0.311820 0.157813
H6    H     H_    0.421133 0.332762 0.557767 0.142320
H7    H     H_    0.272591 0.840140 0.688359 0.135661
H8    H     H_    0.310211 0.482314 0.640174 0.148433
H9    H     H_    0.200067 0.665429 0.737973 0.162489
H10   H     H_    0.632504 0.718532 0.392200 0.203310
H11   H     H_    0.124906 0.153864 0.437666 0.167978
H12   H     H_    0.042259 0.051143 0.693982 0.163208
H13   H     H_    0.312850 0.097796 0.878746 0.178633
H14   H     H_    0.227505 0.469953 0.211771 0.208108
N1    N     N_R   0.575030 0.246270 0.438190 -0.209909
N2    N     N_R   0.425760 0.754330 0.561190 -0.211167
O1    O     O_R   0.537510 0.972500 0.318130 -0.577608
O2    O     O_R   0.487140 0.806530 0.359650 -0.614707
O3    O     O_R   0.708330 0.082950 0.479220 -0.577458
O4    O     O_R   0.657960 0.916980 0.520740 -0.569818
O5    O     O_R   0.512860 0.193470 0.640350 -0.560300
O6    O     O_R   0.462490 0.027500 0.681870 -0.581333
O7    O     O_R   0.342040 0.083020 0.479260 -0.588941
O8    O     O_R   0.291670 0.917050 0.520780 -0.590918
H15   H     H_    0.591797 0.370014 0.821929 0.198344
Br1   Br    Br    0.575474 0.539625 0.764295 -0.553836
H16   H     H_    0.746054 0.547934 0.293580 0.197093
Br2   Br    Br    0.850032 0.333005 0.206449 -0.486085
H17   H     H_    0.958666 0.949051 0.307586 0.160603
H18   H     H_    0.930020 0.202056 0.633124 0.162929
Br3   Br    Br    0.844470 0.795448 0.588835 -0.486665
Br4   Br    Br    0.181985 0.219776 0.111662 -0.490723

loop_
_geom_bond_atom_site_label_1
_geom_bond_atom_site_label_2
_ccdc_geom_bond_type
C38   H18   S    
Cu2   O4    S    
C34   C37   S    
C32   H5    S    
C35   C36   S    
C8    H3    S    
C7    C8    A    
C11   C19   A    
C29   C30   A    
C36   C37   S    
C5    Br4   S    
C37   H11   S    
C15   C16   A    
Cu1   O1    S    
C33   C36   S    
Cu2   O6    S    
C34   C35   S    
C7    H2    S    
C9    Br1   S    
C18   H13   S    
C29   H16   S    
C12   O3    A    
C23   O6    A    
Cu1   N1    S    
C8    C9    A    
Cu2   N2    S    
C31   H6    S    
C4    C12   S    
C9    C10   A    
C16   H4    S    
C32   N1    A    
C30   H10   S    
C13   C14   A    
C6    C18   A    
Cu1   O5    S    
C4    C34   S    
C1    C19   S    
Cu2   O2    S    
C27   C31   A    
C24   H8    S    
C15   H14   S    
C24   C25   A    
Cu1   Cu2   S    
C5    C18   A    
C20   C28   A    
C25   C26   A    
C3    Br3   S    
C37   C38   S    
C1    O1    A    
C11   C16   A    
C2    C38   S    
C3    C35   S    
C33   O7    A    
Cu1   O3    S    
C34   H17   S    
C5    C14   A    
C2    H12   S    
C22   H9    S    
C4    C38   S    
C26   C30   A    
C7    C19   A    
C22   C24   A    
C3    C4    S    
C20   C32   A    
C2    C36   S    
C6    C17   A    
C28   C29   A    
C20   Br2   S    
C10   C13   A    
C26   N2    A    
C21   N2    A    
C25   C27   A    
Cu1   O7    S    
C17   H15   S    
Cu2   O8    S    
C13   C17   A    
C2    C3    S    
C1    O2    A    
C33   O8    A    
C6    C23   S    
C35   H1    S    
C10   C11   A    
C12   O4    A    
C23   O5    A    
C27   C28   A    
C14   C15   A    
C31   N1    A    
C21   C22   A    
C21   H7    S    
