data_mof_unit_47612.cif
_audit_creation_date              2012-12-10T17:21:42-0500
_audit_creation_method            fapswitch 2.2
_symmetry_space_group_name_H-M    P1
_symmetry_Int_Tables_number       1
_space_group_crystal_system       triclinic
_cell_length_a                    10.760326
_cell_length_b                    10.834181
_cell_length_c                    9.578486
_cell_angle_alpha                 90.124114
_cell_angle_beta                  90.060158
_cell_angle_gamma                 92.28608
_cell_volume                      1115.76131342

loop_
_atom_site_label
_atom_site_type_symbol
_atom_type_description
_atom_site_fract_x
_atom_site_fract_y
_atom_site_fract_z
_atom_type_partial_charge
C1    C     C_R   0.508884 0.262662 0.500623 0.788711
C2    C     C_3   0.878167 0.500693 0.501284 0.024814
C3    C     C_3   0.931569 0.614838 0.585463 -0.205956
C4    C     C_3   0.929180 0.507874 0.348996 -0.400334
C5    C     C_R   0.566390 0.114819 0.757779 -0.155512
C6    C     C_R   0.547423 0.053857 0.884347 -0.251420
C7    C     C_R   0.477967 0.943013 0.887774 -0.119231
C8    C     C_R   0.437528 0.886688 0.763596 0.419588
C9    C     C_R   0.477070 0.938026 0.632819 -0.029039
C10   C     C_R   0.520781 0.062144 0.631403 0.067425
C11   C     C_R   0.516346 0.128020 0.503506 -0.104801
C12   C     C_R   0.260072 0.501169 0.499920 0.799570
C13   C     C_R   0.501177 0.063134 0.377693 -0.186945
C14   C     C_R   0.488950 0.935730 0.378036 -0.187643
C15   C     C_R   0.478619 0.871420 0.504469 -0.121098
C16   C     C_R   0.663900 0.665113 0.144615 -0.140546
C17   C     C_R   0.743497 0.746182 0.072543 -0.211219
C18   C     C_R   0.743520 0.746060 0.928748 -0.201773
C19   C     C_R   0.663889 0.664925 0.856312 -0.107104
C20   C     C_R   0.580462 0.581158 0.925435 0.225845
C21   C     C_R   0.580448 0.581181 0.075037 0.119756
C22   C     C_R   0.422994 0.422076 0.074280 0.498730
C23   C     C_R   0.490202 0.737160 0.500868 0.780302
C24   C     C_R   0.423589 0.422676 0.925165 -0.139386
C25   C     C_R   0.739874 0.499015 0.500082 0.754421
C26   C     C_3   0.068931 0.378498 0.562304 -0.422938
C27   C     C_3   0.925021 0.378739 0.567933 -0.175670
C28   C     C_3   0.076255 0.614645 0.585849 0.219604
C29   C     C_3   0.071669 0.512262 0.348966 -0.434062
C30   C     C_3   0.122196 0.501741 0.500440 0.034117
Cu1   Cu    Cu3+1 0.499990 0.499990 0.640660 0.973830
Cu2   Cu    Cu3+1 0.500010 0.500010 0.359340 0.975779
H1    H     H_    0.110382 0.361427 0.666733 0.172322
H2    H     H_    0.896143 0.591083 0.294648 0.192738
H3    H     H_    0.115019 0.699762 0.534010 0.115869
H4    H     H_    0.500445 0.110595 0.278264 0.173151
H5    H     H_    0.620198 0.201106 0.760102 0.186943
H6    H     H_    0.581333 0.095703 0.980562 0.163207
H7    H     H_    0.453259 0.901791 0.987368 0.154941
H8    H     H_    0.487064 0.887704 0.278671 0.162967
H9    H     H_    0.097180 0.300405 0.495161 0.168357
H10   H     H_    0.672644 0.672383 0.254580 0.209520
H11   H     H_    0.806005 0.809242 0.129051 0.167042
H12   H     H_    0.805904 0.809127 0.872531 0.168875
H13   H     H_    0.672186 0.672252 0.746418 0.193426
H14   H     H_    0.361593 0.359887 0.867798 0.137592
H15   H     H_    0.886961 0.298700 0.506069 0.129378
H16   H     H_    0.896885 0.608723 0.694600 0.156939
H17   H     H_    0.106816 0.600320 0.300726 0.180829
H18   H     H_    0.104428 0.435264 0.283038 0.222107
H19   H     H_    0.894461 0.425871 0.288058 0.193998
N1    N     N_R   0.501200 0.501210 0.147910 -0.209896
N2    N     N_R   0.501250 0.501290 0.852040 -0.199416
O1    O     O_R   0.499990 0.319640 0.618810 -0.598010
O2    O     O_R   0.500000 0.319660 0.381240 -0.532611
O3    O     O_R   0.317680 0.499970 0.618790 -0.534690
O4    O     O_R   0.317700 0.499990 0.381210 -0.548247
O5    O     O_R   0.500000 0.680340 0.618760 -0.567464
O6    O     O_R   0.500010 0.680360 0.381190 -0.608167
O7    O     O_R   0.682300 0.500010 0.618790 -0.604622
O8    O     O_R   0.682320 0.500030 0.381210 -0.608476
C31   C     C_1   0.887348 0.732778 0.530185 0.160576
N3    N     N_1   0.852374 0.824871 0.487030 -0.301173
O9    O     O_3   0.349902 0.790865 0.774500 -0.674111
H20   H     H_    0.303944 0.784618 0.684881 0.337418
O10   O     O_3   0.344161 0.342305 0.147206 -0.709850
H21   H     H_    0.294203 0.291360 0.079909 0.289258
C32   C     C_1   0.882017 0.359374 0.713202 0.232814
N4    N     N_1   0.848527 0.344393 0.826925 -0.301762
O11   O     O_3   0.122480 0.617332 0.723638 -0.699083
H22   H     H_    0.084266 0.546367 0.775353 0.339495

loop_
_geom_bond_atom_site_label_1
_geom_bond_atom_site_label_2
_ccdc_geom_bond_type
Cu1   O7    S    
C19   C20   A    
C23   O5    A    
C2    C4    S    
C1    O1    A    
C6    H6    S    
C16   C21   A    
C25   O7    A    
C5    H5    S    
Cu1   O3    S    
C2    C25   S    
C9    C10   A    
C3    H16   S    
C26   H1    S    
C28   O11   S    
C4    C29   S    
C1    C11   S    
C2    C27   S    
C24   H14   S    
O9    H20   S    
C31   N3    T    
C15   C23   S    
O10   H21   S    
C1    O2    A    
C5    C10   A    
C29   H17   S    
C13   C14   A    
Cu1   N2    S    
C23   O6    A    
C11   C13   A    
C26   C27   S    
C29   C30   S    
Cu2   O4    S    
C8    O9    S    
C12   O4    A    
C20   N2    A    
Cu1   O5    S    
C28   C30   S    
C3    C28   S    
C12   O3    A    
Cu2   O8    S    
C26   C30   S    
C6    C7    A    
C2    C3    S    
C29   H18   S    
Cu1   O1    S    
C9    C15   A    
C5    C6    A    
C4    H2    S    
C16   C17   A    
C10   C11   A    
C4    H19   S    
C14   H8    S    
C16   H10   S    
C18   H12   S    
C7    C8    A    
O11   H22   S    
C20   C21   A    
C28   H3    S    
C13   H4    S    
C17   C18   A    
C18   C19   A    
C3    C31   S    
C27   H15   S    
C17   H11   S    
C7    H7    S    
C14   C15   A    
C22   O10   S    
C22   C24   A    
C25   O8    A    
C27   C32   S    
Cu2   O2    S    
Cu2   O6    S    
C22   N1    A    
C24   N2    A    
C32   N4    T    
C12   C30   S    
C21   N1    A    
Cu2   N1    S    
C19   H13   S    
Cu1   Cu2   S    
C26   H9    S    
C8    C9    A    
