data_mof_unit_16631.cif
_audit_creation_date              2013-03-05T15:40:28-0500
_audit_creation_method            fapswitch 2.2
_symmetry_space_group_name_H-M    P1
_symmetry_Int_Tables_number       1
_space_group_crystal_system       triclinic
_cell_length_a                    7.47425
_cell_length_b                    8.695233
_cell_length_c                    13.382231
_cell_angle_alpha                 94.480844
_cell_angle_beta                  77.30883
_cell_angle_gamma                 103.444676
_cell_volume                      824.879635029

loop_
_atom_site_label
_atom_site_type_symbol
_atom_site_description
_atom_site_fract_x
_atom_site_fract_y
_atom_site_fract_z
_atom_type_partial_charge
O1    O     O_R   0.383920 0.714220 0.492660 -0.547892
O2    O     O_R   0.685730 0.742660 0.511730 -0.584836
C1    C     C_R   0.545410 0.800158 0.503198 0.877890
O3    O     O_R   0.275440 0.478800 0.636790 -0.530081
O4    O     O_R   0.577250 0.507240 0.655860 -0.552798
C2    C     C_R   0.399387 0.495931 0.694488 0.780570
Cu1   Cu    Cu3+1 0.321300 0.483160 0.488710 1.019742
Cu2   Cu    Cu3+1 0.678700 0.516840 0.511290 1.022525
O5    O     O_R   0.314270 0.257340 0.488270 -0.586746
O6    O     O_R   0.616080 0.285780 0.507340 -0.587678
O7    O     O_R   0.422750 0.492760 0.344140 -0.594548
O8    O     O_R   0.724560 0.521200 0.363210 -0.613920
C3    C     C_R   0.454533 0.199849 0.496925 0.859174
C4    C     C_R   0.601470 0.511294 0.305953 0.807727
C5    C     C_R   0.873311 0.685967 0.054648 0.611504
H1    H     H_    0.942472 0.671899 0.200499 0.179210
H2    H     H_    0.893612 0.792990 0.869603 0.215864
C6    C     C_R   0.661873 0.538024 0.195736 -0.134479
C7    C     C_R   0.157872 0.396752 0.847238 -0.119649
C8    C     C_R   0.103800 0.365878 0.950965 -0.128169
C9    C     C_R   0.231213 0.416042 0.014821 -0.135547
C10   C     C_R   0.415592 0.504161 0.976340 0.125314
C11   C     C_R   0.460939 0.553294 0.873470 0.080981
C12   C     C_R   0.556337 0.545461 0.036393 0.002802
C13   C     C_R   0.732543 0.646536 0.996320 0.003063
C14   C     C_R   0.763813 0.709854 0.899777 -0.114249
C15   C     C_R   0.629046 0.666055 0.840010 -0.127628
C16   C     C_R   0.527810 0.488235 0.135038 -0.237052
C17   C     C_R   0.837217 0.632747 0.154301 -0.279216
C18   C     C_R   0.336509 0.488378 0.806846 -0.087652
H3    H     H_    0.399755 0.407059 0.168169 0.158674
H4    H     H_    0.061729 0.343638 0.798041 0.191937
H5    H     H_    0.179682 0.385692 0.094076 0.124552
H6    H     H_    0.964279 0.297129 0.981482 0.150593
H7    H     H_    0.658306 0.722639 0.767280 0.180120
C19   C     C_2   0.570496 0.968364 0.504947 -0.354505
H8    H     H_    0.706041 0.040426 0.514264 0.184172
C20   C     C_2   0.429465 0.031651 0.495211 -0.323493
H9    H     H_    0.294011 0.959625 0.485764 0.202488
N1    N     N_2   0.947230 0.542220 0.528320 0.024413
N2    N     N_2   0.052770 0.457780 0.471680 -0.201990
H10   H     H_    0.003812 0.405523 0.408268 0.188907
N3    N     N_R   0.991365 0.593501 0.622239 0.290359
O9    O     O_R   0.053908 0.743848 0.638573 -0.390623
O10   O     O_R   0.916676 0.503643 0.700613 -0.375906
F1    F     F_    0.043236 0.780717 0.016696 -0.673924

loop_
_geom_bond_atom_site_label_1
_geom_bond_atom_site_label_2
_geom_bond_distance
_ccdc_geom_bond_type
O4    Cu2   1.917314 S    
N3    O9    1.300549 A    
C11   C15   1.410348 A    
N2    H10   1.029255 S    
C4    C6    1.464756 S    
C7    C8    1.386905 A    
Cu2   O8    1.937284 S    
C8    H6    1.082928 S    
N1    N3    1.383295 S    
C19   C20   1.331248 D    
O2    C1    1.291631 A    
H1    C17   1.083178 S    
Cu1   Cu2   2.699993 S    
C6    C17   1.397685 A    
C9    C10   1.417824 A    
C8    C9    1.390530 A    
Cu1   O7    1.917314 S    
N3    O10   1.300039 A    
C14   C15   1.388302 A    
O4    C2    1.299758 A    
C1    C19   1.429659 S    
O3    Cu1   1.937284 S    
H2    C14   1.083592 S    
Cu2   O6    1.953310 S    
N1    N2    1.286668 D    
C2    C18   1.475323 S    
O8    C4    1.305186 A    
C5    C17   1.394872 A    
Cu1   N2    2.028814 S    
C20   H9    1.087302 S    
O7    C4    1.297807 A    
C10   C12   1.425531 A    
C5    C13   1.408932 A    
C9    H5    1.076966 S    
C7    H4    1.081277 S    
C11   C18   1.421297 A    
C6    C16   1.397215 A    
C12   C13   1.421121 A    
O3    C2    1.307196 A    
Cu1   O5    1.951591 S    
O5    C3    1.291698 A    
C10   C11   1.418464 A    
C19   H8    1.087498 S    
Cu2   N1    2.028815 S    
C5    F1    1.358358 S    
C15   H7    1.080953 S    
C13   C14   1.394827 A    
O1    Cu1   1.953310 S    
C7    C18   1.401831 A    
C16   H3    1.076637 S    
O2    Cu2   1.951591 S    
C3    C20   1.429619 S    
C12   C16   1.401897 A    
O1    C1    1.293861 A    
O6    C3    1.293742 A    
