data_mof_unit_31270.cif
_audit_creation_date              2012-12-10T16:34:43-0500
_audit_creation_method            fapswitch 2.2
_symmetry_space_group_name_H-M    P1
_symmetry_Int_Tables_number       1
_space_group_crystal_system       triclinic
_cell_length_a                    28.239306
_cell_length_b                    18.484301
_cell_length_c                    17.059943
_cell_angle_alpha                 89.717137
_cell_angle_beta                  60.75314
_cell_angle_gamma                 89.594802
_cell_volume                      7769.62247285

loop_
_atom_site_label
_atom_site_type_symbol
_atom_type_description
_atom_site_fract_x
_atom_site_fract_y
_atom_site_fract_z
_atom_type_partial_charge
C1    C     C_R   0.700508 0.265381 0.676636 0.916598
C2    C     C_R   0.299395 0.734428 0.323374 0.909630
C3    C     C_R   0.299403 0.265655 0.323498 0.905533
C4    C     C_R   0.700633 0.734277 0.676497 0.899635
C5    C     C_R   0.200512 0.765390 0.676635 0.916519
C6    C     C_R   0.799400 0.234439 0.323373 0.909709
C7    C     C_R   0.799403 0.765655 0.323498 0.905533
C8    C     C_R   0.200633 0.234277 0.676497 0.899631
C9    C     C_R   0.905964 0.501222 0.481770 0.069410
C10   C     C_R   0.094081 0.498800 0.518094 0.069652
C11   C     C_R   0.405964 0.001222 0.481769 0.069413
C12   C     C_R   0.594082 0.998800 0.518093 0.069649
C13   C     C_R   0.071540 0.378230 0.583267 -0.229832
C14   C     C_R   0.928492 0.621803 0.416623 -0.230230
C15   C     C_R   0.881701 0.383452 0.554095 -0.237468
C16   C     C_R   0.118348 0.616578 0.445781 -0.237311
C17   C     C_R   0.571540 0.878230 0.583266 -0.229817
C18   C     C_R   0.428493 0.121803 0.416622 -0.230248
C19   C     C_R   0.381702 0.883451 0.554094 -0.237413
C20   C     C_R   0.618348 0.116578 0.445780 -0.237378
C21   C     C_R   0.721958 0.261921 0.951676 0.178950
C22   C     C_R   0.277378 0.736725 0.048772 0.184037
C23   C     C_R   0.278376 0.263209 0.047509 0.173825
C24   C     C_R   0.721947 0.736204 0.952207 0.180506
C25   C     C_R   0.221942 0.761923 0.951701 0.178845
C26   C     C_R   0.777373 0.236746 0.048788 0.184141
C27   C     C_R   0.778376 0.763211 0.047509 0.173812
C28   C     C_R   0.221947 0.236203 0.952206 0.180510
C29   C     C_R   0.758407 0.313433 0.951459 -0.119938
C30   C     C_R   0.241146 0.685030 0.048609 -0.105522
C31   C     C_R   0.285634 0.197432 0.002238 -0.150031
C32   C     C_R   0.714725 0.802002 0.997413 -0.157057
C33   C     C_R   0.258173 0.813609 0.951878 -0.120106
C34   C     C_R   0.740924 0.185225 0.049017 -0.105331
C35   C     C_R   0.785632 0.697432 0.002240 -0.150032
C36   C     C_R   0.214725 0.302001 0.997414 -0.157075
C37   C     C_R   0.786062 0.300861 0.999525 -0.159821
C38   C     C_R   0.213444 0.697638 0.000612 -0.151849
C39   C     C_R   0.257508 0.183974 0.955200 -0.099442
C40   C     C_R   0.742829 0.815444 0.044485 -0.112406
C41   C     C_R   0.285837 0.801028 0.999926 -0.159744
C42   C     C_R   0.713231 0.197824 0.001002 -0.152024
C43   C     C_R   0.757506 0.683975 0.955202 -0.099442
C44   C     C_R   0.242829 0.315442 0.044486 -0.112420
C45   C     C_R   0.648229 0.329008 0.943468 0.066046
C46   C     C_R   0.351371 0.670151 0.056812 0.062023
C47   C     C_R   0.351512 0.330587 0.056753 0.067849
C48   C     C_R   0.648712 0.668977 0.943052 0.063486
C49   C     C_R   0.148181 0.828949 0.943521 0.066028
C50   C     C_R   0.851331 0.170106 0.056859 0.062038
C51   C     C_R   0.851512 0.830587 0.056753 0.067845
C52   C     C_R   0.148713 0.168976 0.943051 0.063489
C53   C     C_R   0.619273 0.349166 0.897559 -0.109078
C54   C     C_R   0.380553 0.650514 0.102524 -0.108629
C55   C     C_R   0.380499 0.349964 0.102748 -0.106449
C56   C     C_R   0.619597 0.649860 0.897181 -0.106157
C57   C     C_R   0.119250 0.849138 0.897581 -0.109052
C58   C     C_R   0.880534 0.150491 0.102544 -0.108657
C59   C     C_R   0.880499 0.849965 0.102748 -0.106434
C60   C     C_R   0.119598 0.149860 0.897180 -0.106173
C61   C     C_R   0.634067 0.321564 0.813958 -0.294958
C62   C     C_R   0.365833 0.678343 0.185994 -0.292699
C63   C     C_R   0.365752 0.321892 0.186250 -0.297981
C64   C     C_R   0.634286 0.678063 0.813756 -0.295889
C65   C     C_R   0.134065 0.821563 0.813960 -0.294968
C66   C     C_R   0.865832 0.178342 0.185997 -0.292686
C67   C     C_R   0.865752 0.821892 0.186250 -0.297981
C68   C     C_R   0.134286 0.178063 0.813756 -0.295886
C69   C     C_R   0.677241 0.274596 0.773404 -0.112577
C70   C     C_R   0.322427 0.724920 0.226701 -0.119234
C71   C     C_R   0.322792 0.275096 0.226601 -0.111980
C72   C     C_R   0.677335 0.724714 0.773354 -0.118621
C73   C     C_R   0.177247 0.774606 0.773402 -0.112619
C74   C     C_R   0.822437 0.224937 0.226698 -0.119200
C75   C     C_R   0.822792 0.775096 0.226601 -0.111982
C76   C     C_R   0.177335 0.224713 0.773354 -0.118619
C77   C     C_R   0.703206 0.247084 0.821645 -0.081311
C78   C     C_R   0.296124 0.751791 0.178640 -0.078782
C79   C     C_R   0.297171 0.247970 0.178036 -0.076344
C80   C     C_R   0.703070 0.751589 0.821899 -0.073081
C81   C     C_R   0.203215 0.747102 0.821643 -0.081181
C82   C     C_R   0.796142 0.251824 0.178632 -0.078903
C83   C     C_R   0.797170 0.747972 0.178037 -0.076342
C84   C     C_R   0.203071 0.251588 0.821899 -0.073078
C85   C     C_R   0.696771 0.127764 0.517231 0.911630
C86   C     C_R   0.303241 0.872241 0.482736 0.908344
C87   C     C_R   0.308875 0.129607 0.464327 0.899004
C88   C     C_R   0.691132 0.870401 0.535641 0.895070
C89   C     C_R   0.196771 0.627764 0.517231 0.911603
C90   C     C_R   0.803241 0.372241 0.482736 0.908373
C91   C     C_R   0.808875 0.629607 0.464327 0.899002
C92   C     C_R   0.191132 0.370401 0.535641 0.895072
C93   C     C_R   0.690376 0.278282 0.904966 -0.029420
C94   C     C_R   0.308995 0.720499 0.095448 -0.027249
C95   C     C_R   0.309717 0.279686 0.094753 -0.028206
C96   C     C_R   0.690572 0.719763 0.905021 -0.026137
C97   C     C_R   0.190356 0.778265 0.904993 -0.029340
C98   C     C_R   0.808984 0.220500 0.095468 -0.027343
C99   C     C_R   0.809717 0.779687 0.094753 -0.028207
C100  C     C_R   0.190573 0.219762 0.905021 -0.026134
C101  C     C_R   0.075978 0.097433 0.932363 0.912694
C102  C     C_R   0.924044 0.902523 0.067617 0.912770
C103  C     C_R   0.924145 0.097727 0.067361 0.914630
C104  C     C_R   0.075810 0.902191 0.932672 0.914730
C105  C     C_R   0.575978 0.597433 0.932363 0.912630
C106  C     C_R   0.424044 0.402523 0.067617 0.912836
C107  C     C_R   0.424157 0.597742 0.067349 0.914636
C108  C     C_R   0.575823 0.402207 0.932659 0.914729
C109  C     C_R   0.572022 0.117292 0.435842 0.103846
C110  C     C_R   0.428034 0.882735 0.564006 0.102093
C111  C     C_R   0.476704 0.120112 0.421508 0.110521
C112  C     C_R   0.523342 0.879918 0.578352 0.109525
C113  C     C_R   0.072021 0.617292 0.435843 0.103836
C114  C     C_R   0.928033 0.382736 0.564008 0.102115
C115  C     C_R   0.976703 0.620112 0.421509 0.110516
C116  C     C_R   0.023341 0.379918 0.578353 0.109533
C117  C     C_R   0.561126 0.175885 0.394220 -0.192807
C118  C     C_R   0.438932 0.824140 0.605618 -0.192239
C119  C     C_R   0.513636 0.177537 0.387742 -0.202219
C120  C     C_R   0.486415 0.822490 0.612108 -0.199303
C121  C     C_R   0.061125 0.675886 0.394222 -0.192690
C122  C     C_R   0.938931 0.324141 0.605621 -0.192341
C123  C     C_R   0.013636 0.677538 0.387744 -0.202218
C124  C     C_R   0.986415 0.322491 0.612109 -0.199311
C125  C     C_R   0.488265 0.060115 0.460917 0.029506
C126  C     C_R   0.511787 0.939911 0.538929 0.029576
C127  C     C_R   0.535651 0.059056 0.468978 0.032053
C128  C     C_R   0.464403 0.940970 0.530865 0.032740
C129  C     C_R   0.988265 0.560116 0.460919 0.029508
C130  C     C_R   0.011786 0.439912 0.538930 0.029575
C131  C     C_R   0.035651 0.559056 0.468979 0.032038
C132  C     C_R   0.964403 0.440970 0.530866 0.032748
C133  C     C_R   0.952816 0.500861 0.491385 -0.048420
C134  C     C_R   0.047235 0.499164 0.508464 -0.048559
C135  C     C_R   0.452816 0.000861 0.491384 -0.048419
C136  C     C_R   0.547236 0.999164 0.508463 -0.048561
C137  C     C_R   0.872342 0.439919 0.506710 0.046618
C138  C     C_R   0.127701 0.560102 0.493170 0.045630
C139  C     C_R   0.108146 0.436693 0.550998 0.060484
C140  C     C_R   0.891889 0.563331 0.448887 0.060079
C141  C     C_R   0.372342 0.939919 0.506709 0.046602
C142  C     C_R   0.627701 0.060102 0.493169 0.045655
C143  C     C_R   0.608146 0.936693 0.550998 0.060480
C144  C     C_R   0.391889 0.063331 0.448886 0.060083
C145  C     C_R   0.830563 0.437988 0.482820 -0.117570
C146  C     C_R   0.169467 0.562025 0.517093 -0.117426
C147  C     C_R   0.158871 0.435858 0.549945 -0.116140
C148  C     C_R   0.841153 0.564158 0.449970 -0.114901
C149  C     C_R   0.330563 0.937988 0.482820 -0.117562
C150  C     C_R   0.669467 0.062024 0.517093 -0.117429
C151  C     C_R   0.658871 0.935858 0.549945 -0.116141
C152  C     C_R   0.341153 0.064158 0.449970 -0.114897
C153  C     C_R   0.815109 0.500129 0.456311 -0.268351
C154  C     C_R   0.184917 0.499882 0.543603 -0.267062
C155  C     C_R   0.315109 0.000129 0.456312 -0.268382
C156  C     C_R   0.684917 0.999882 0.543603 -0.267054
H1    H     H_    0.994329 0.276182 0.643268 0.145870
H2    H     H_    0.005720 0.723847 0.356587 0.144149
H3    H     H_    0.911166 0.278981 0.631811 0.166832
H4    H     H_    0.088895 0.721045 0.368021 0.164154
H5    H     H_    0.494330 0.776181 0.643266 0.145878
H6    H     H_    0.505721 0.223846 0.356585 0.144148
H7    H     H_    0.411166 0.778980 0.631808 0.166917
H8    H     H_    0.588896 0.221043 0.368018 0.164086
H9    H     H_    0.780034 0.499700 0.446257 0.206668
H10   H     H_    0.219984 0.500310 0.553680 0.206758
H11   H     H_    0.280034 0.999700 0.446257 0.206662
H12   H     H_    0.719983 0.000310 0.553682 0.206753
H13   H     H_    0.079186 0.332415 0.615382 0.162211
H14   H     H_    0.920832 0.667627 0.384537 0.162258
H15   H     H_    0.852795 0.340370 0.585879 0.178811
H16   H     H_    0.147250 0.659671 0.414027 0.179946
H17   H     H_    0.579186 0.832415 0.615381 0.162212
H18   H     H_    0.420832 0.167627 0.384536 0.162257
H19   H     H_    0.352796 0.840369 0.585878 0.178854
H20   H     H_    0.647250 0.159671 0.414027 0.179888
H21   H     H_    0.684824 0.157980 0.002650 0.134308
H22   H     H_    0.314048 0.841039 0.998625 0.135927
H23   H     H_    0.236982 0.366709 0.078595 0.132260
H24   H     H_    0.763351 0.632712 0.921088 0.130437
H25   H     H_    0.185209 0.657651 0.001951 0.134317
H26   H     H_    0.814446 0.340729 0.997913 0.135895
H27   H     H_    0.736983 0.866711 0.078592 0.132269
H28   H     H_    0.263354 0.132712 0.921084 0.130430
H29   H     H_    0.765169 0.363490 0.914272 0.130866
H30   H     H_    0.234566 0.634837 0.085482 0.129355
H31   H     H_    0.313184 0.156792 0.003115 0.134097
H32   H     H_    0.687192 0.842656 0.996509 0.135456
H33   H     H_    0.264758 0.863808 0.915013 0.130884
H34   H     H_    0.734167 0.135174 0.086211 0.129359
H35   H     H_    0.813182 0.656792 0.003119 0.134104
H36   H     H_    0.187191 0.342654 0.996512 0.135453
H37   H     H_    0.613671 0.340180 0.777667 0.191483
H38   H     H_    0.386473 0.660184 0.222073 0.191693
H39   H     H_    0.386052 0.340001 0.222587 0.188610
H40   H     H_    0.613876 0.660154 0.777514 0.188850
H41   H     H_    0.113677 0.840189 0.777661 0.191487
H42   H     H_    0.886476 0.160187 0.222071 0.191692
H43   H     H_    0.886053 0.840001 0.222587 0.188609
H44   H     H_    0.113876 0.160155 0.777514 0.188849
O1    O     O_R   0.746490 0.236330 0.638080 -0.621452
O2    O     O_R   0.253510 0.763670 0.361920 -0.620724
O3    O     O_R   0.253510 0.236330 0.361920 -0.603419
O4    O     O_R   0.746490 0.763670 0.638080 -0.603020
O5    O     O_R   0.246490 0.736330 0.638080 -0.621417
O6    O     O_R   0.753510 0.263670 0.361920 -0.620756
O7    O     O_R   0.753510 0.736330 0.361920 -0.603421
O8    O     O_R   0.246490 0.263670 0.638080 -0.603020
O9    O     O_R   0.674170 0.186160 0.516270 -0.642022
O10   O     O_R   0.325830 0.813840 0.483730 -0.641215
O11   O     O_R   0.325830 0.186160 0.483730 -0.635410
O12   O     O_R   0.674170 0.813840 0.516270 -0.634470
O13   O     O_R   0.174170 0.686160 0.516270 -0.642022
O14   O     O_R   0.825830 0.313840 0.483730 -0.641219
O15   O     O_R   0.825830 0.686160 0.483730 -0.635413
O16   O     O_R   0.174170 0.313840 0.516270 -0.634468
O17   O     O_R   0.739960 0.127620 0.525000 -0.616955
O18   O     O_R   0.260040 0.872380 0.475000 -0.615940
O19   O     O_R   0.260040 0.127620 0.475000 -0.613926
O20   O     O_R   0.739960 0.872380 0.525000 -0.612512
O21   O     O_R   0.239960 0.627620 0.525000 -0.616963
O22   O     O_R   0.760040 0.372380 0.475000 -0.615922
O23   O     O_R   0.760040 0.627620 0.475000 -0.613927
O24   O     O_R   0.239960 0.372380 0.525000 -0.612511
O25   O     O_R   0.680700 0.294870 0.629350 -0.634164
O26   O     O_R   0.319300 0.705130 0.370650 -0.632510
O27   O     O_R   0.319300 0.294870 0.370650 -0.640764
O28   O     O_R   0.680700 0.705130 0.629350 -0.639271
O29   O     O_R   0.180700 0.794870 0.629350 -0.634154
O30   O     O_R   0.819300 0.205130 0.370650 -0.632520
O31   O     O_R   0.819300 0.794870 0.370650 -0.640764
O32   O     O_R   0.180700 0.205130 0.629350 -0.639270
O33   O     O_R   0.062020 0.072840 0.007170 -0.640606
O34   O     O_R   0.937980 0.927160 0.992830 -0.640772
O35   O     O_R   0.937980 0.072840 0.992830 -0.641491
O36   O     O_R   0.062020 0.927160 0.007170 -0.641543
O37   O     O_R   0.562020 0.572840 0.007170 -0.640624
O38   O     O_R   0.437980 0.427160 0.992830 -0.640756
O39   O     O_R   0.437980 0.572840 0.992830 -0.641504
O40   O     O_R   0.562020 0.427160 0.007170 -0.641533
O41   O     O_R   0.947860 0.073950 0.109290 -0.615934
O42   O     O_R   0.052140 0.926050 0.890710 -0.616180
O43   O     O_R   0.052140 0.073950 0.890710 -0.617413
O44   O     O_R   0.947860 0.926050 0.109290 -0.617644
O45   O     O_R   0.447860 0.573950 0.109290 -0.615938
O46   O     O_R   0.552140 0.426050 0.890710 -0.616177
O47   O     O_R   0.552140 0.573950 0.890710 -0.617435
O48   O     O_R   0.447860 0.426050 0.109290 -0.617621
Zn1   Zn    Zn3+2 0.792340 0.208750 0.507670 0.983659
Zn2   Zn    Zn3+2 0.207660 0.791250 0.492330 0.987197
Zn3   Zn    Zn3+2 0.207660 0.208750 0.492330 0.992156
Zn4   Zn    Zn3+2 0.792340 0.791250 0.507670 0.994838
Zn5   Zn    Zn3+2 0.292340 0.708750 0.507670 0.983688
Zn6   Zn    Zn3+2 0.707660 0.291250 0.492330 0.987173
Zn7   Zn    Zn3+2 0.707660 0.708750 0.492330 0.992150
Zn8   Zn    Zn3+2 0.292340 0.291250 0.507670 0.994844
Zn9   Zn    Zn3+2 0.505960 0.500000 0.080520 0.927464
Zn10  Zn    Zn3+2 0.494040 0.500000 0.919480 0.927303
Zn11  Zn    Zn3+2 0.005960 0.000000 0.080520 0.927453
Zn12  Zn    Zn3+2 0.994040 0.000000 0.919480 0.927321
N1    N     N_3   0.635987 0.358566 0.029198 -0.448272
H45   H     H_    0.596332 0.345141 0.077235 0.210701
H46   H     H_    0.641592 0.414582 0.023689 0.200991
N2    N     N_3   0.363593 0.640422 0.971170 -0.444186
H47   H     H_    0.358247 0.584362 0.976716 0.201934
H48   H     H_    0.403142 0.654137 0.922966 0.212437
N3    N     N_3   0.363503 0.360985 0.971318 -0.447774
H49   H     H_    0.403132 0.347293 0.923034 0.215365
H50   H     H_    0.357885 0.417062 0.977199 0.199822
N4    N     N_3   0.636801 0.638410 0.028368 -0.443229
H51   H     H_    0.642297 0.582317 0.022378 0.200821
H52   H     H_    0.597234 0.652209 0.076809 0.217280
N5    N     N_3   0.135877 0.858419 0.029322 -0.448333
H53   H     H_    0.096208 0.844981 0.077283 0.210695
H54   H     H_    0.141490 0.914434 0.023899 0.201011
N6    N     N_3   0.863494 0.140295 0.971283 -0.444121
H55   H     H_    0.858153 0.084235 0.976911 0.201920
H56   H     H_    0.903031 0.153993 0.923009 0.212442
N7    N     N_3   0.863502 0.860986 0.971318 -0.447762
H57   H     H_    0.903131 0.847293 0.923034 0.215365
H58   H     H_    0.857885 0.917063 0.977199 0.199827
N8    N     N_3   0.136802 0.138408 0.028366 -0.443232
H59   H     H_    0.142298 0.082315 0.022377 0.200824
H60   H     H_    0.097235 0.152207 0.076809 0.217282
C157  C     C_2   0.742416 0.185631 0.786822 0.931201
O49   O     O_2   0.786118 0.189263 0.785200 -0.645812
O50   O     O_R   0.729043 0.123555 0.755430 -0.779721
H61   H     H_    0.758816 0.085508 0.733033 0.347471
C158  C     C_2   0.255982 0.812120 0.213481 0.932877
O51   O     O_2   0.267345 0.868188 0.238197 -0.614785
O52   O     O_R   0.205471 0.804891 0.217900 -0.820753
H62   H     H_    0.181936 0.849718 0.242546 0.336693
C159  C     C_2   0.258589 0.186369 0.212626 0.935023
O53   O     O_2   0.214828 0.190047 0.214355 -0.626974
O54   O     O_R   0.272608 0.124110 0.243748 -0.790959
H63   H     H_    0.243218 0.085962 0.266029 0.348986
C160  C     C_2   0.742120 0.812629 0.787563 0.934464
O55   O     O_2   0.729976 0.868308 0.762373 -0.623841
O56   O     O_R   0.792477 0.806569 0.784166 -0.802267
H64   H     H_    0.815136 0.851894 0.760006 0.340259
C161  C     C_2   0.242477 0.685709 0.786776 0.931087
O57   O     O_2   0.286201 0.689445 0.785058 -0.645823
O58   O     O_R   0.229130 0.623578 0.755443 -0.779729
H65   H     H_    0.258940 0.585581 0.733004 0.347430
C162  C     C_2   0.756061 0.312227 0.213424 0.932966
O59   O     O_2   0.767452 0.368235 0.238211 -0.614736
O60   O     O_R   0.705577 0.305143 0.217714 -0.820788
H66   H     H_    0.682088 0.350010 0.242336 0.336740
C163  C     C_2   0.758587 0.686372 0.212627 0.935026
O61   O     O_2   0.714825 0.690054 0.214359 -0.626982
O62   O     O_R   0.772605 0.624111 0.243746 -0.790941
H67   H     H_    0.743214 0.585964 0.266028 0.348978
C164  C     C_2   0.242122 0.312627 0.787562 0.934454
O63   O     O_2   0.229977 0.368308 0.762376 -0.623826
O64   O     O_R   0.292480 0.306564 0.784161 -0.802266
H68   H     H_    0.315140 0.351888 0.760001 0.340248

loop_
_geom_bond_atom_site_label_1
_geom_bond_atom_site_label_2
_ccdc_geom_bond_type
C160  O56   S    
O52   H62   S    
C34   C42   A    
C14   H14   S    
C16   C113  A    
C110  C118  A    
O33   Zn11  S    
C161  O57   D    
O34   Zn12  S    
C27   C99   S    
N8    H59   S    
C38   H25   S    
C54   C107  S    
C13   C139  A    
C117  C119  A    
C108  O46   A    
C30   C38   A    
C33   H33   S    
C91   O15   A    
C109  C127  A    
C155  H11   S    
C2    O2    A    
C111  C125  A    
O40   Zn9   S    
C125  C135  A    
C143  C151  A    
C49   N5    S    
C19   C141  A    
C92   C147  S    
C82   C98   A    
C130  C134  A    
C44   H23   S    
C73   C81   A    
C17   H17   S    
O22   Zn6   S    
C43   H24   S    
C115  C123  A    
C84   C100  A    
C92   O24   A    
C127  C136  A    
C128  C135  A    
C112  C120  A    
C27   C35   A    
C21   C29   A    
C81   C161  S    
C23   C31   A    
C24   C32   A    
O58   H65   S    
C146  C154  A    
C51   N7    S    
C129  C133  A    
C82   C162  S    
C63   C71   A    
C102  O34   A    
O20   Zn4   S    
N4    H52   S    
C36   C44   A    
C102  O44   A    
C148  C153  A    
O18   Zn2   S    
C90   O14   A    
O24   Zn8   S    
C47   N3    S    
C57   C104  S    
C48   C96   A    
C59   C102  S    
C16   C138  A    
C77   C157  S    
C85   O9    A    
C24   C96   S    
C149  C155  A    
C157  O50   S    
C79   C159  S    
C53   C108  S    
C21   C93   S    
C78   C94   A    
C23   C95   S    
O43   Zn12  S    
N7    H58   S    
C118  C120  A    
C121  C123  A    
C49   C97   A    
C21   C42   A    
C116  C130  A    
C88   O12   A    
C31   H31   S    
C125  C127  A    
C24   C43   A    
C105  O37   A    
C10   C138  A    
C110  C128  A    
C15   C137  A    
C9    C133  A    
C69   C77   A    
O11   Zn8   S    
C45   C93   A    
C71   C79   A    
C62   C70   A    
C89   O21   A    
N1    H45   S    
C9    C140  A    
C164  O64   S    
C156  H12   S    
C66   C74   A    
C8    C76   S    
C49   C57   A    
C111  C119  A    
C86   O18   A    
C52   C60   A    
C59   C67   A    
C53   C61   A    
O35   Zn12  S    
C162  O60   S    
C55   C63   A    
C56   C64   A    
C35   C43   A    
C39   H28   S    
C40   H27   S    
C13   H13   S    
C48   N4    S    
C22   C94   S    
O17   Zn1   S    
C2    O26   A    
O25   Zn6   S    
C163  O62   S    
O21   Zn5   S    
C50   C98   A    
C34   H34   S    
C28   C36   A    
C7    O7    A    
C52   C100  A    
O10   Zn5   S    
C159  O53   D    
C25   C38   A    
C45   N1    S    
C46   C94   A    
C27   C40   A    
N7    H57   S    
O14   Zn1   S    
C158  O51   D    
C11   C141  A    
C60   C68   A    
C66   H42   S    
C80   C160  S    
O3    Zn3   S    
C18   H18   S    
C25   C97   S    
C14   C140  A    
O1    Zn1   S    
C87   C152  S    
C6    O30   A    
C88   C151  S    
C67   C75   A    
C122  C124  A    
C61   H37   S    
O5    Zn5   S    
C103  O35   A    
C22   C30   A    
C153  H9    S    
C36   H36   S    
C87   O11   A    
N3    H49   S    
O27   Zn8   S    
C68   C76   A    
N8    H60   S    
C12   C143  A    
O12   Zn7   S    
C72   C80   A    
C20   H20   S    
C138  C146  A    
O16   Zn3   S    
C64   H40   S    
N5    H54   S    
C29   H29   S    
C5    C73   S    
C19   H19   S    
C6    O6    A    
C126  C136  A    
C104  O36   A    
C113  C121  A    
N6    H55   S    
C12   C136  A    
C83   C99   A    
C25   C33   A    
O41   Zn11  S    
C3    O3    A    
C131  C134  A    
C1    O1    A    
C76   C84   A    
C109  C117  A    
C7    O31   A    
C137  C145  A    
C90   C145  S    
C67   H43   S    
C22   C41   A    
C14   C115  A    
C85   C150  S    
C105  O47   A    
C9    C137  A    
O26   Zn5   S    
C121  H4    S    
C126  C128  A    
C122  H3    S    
O30   Zn1   S    
O45   Zn9   S    
C112  C126  A    
O64   H68   S    
O19   Zn3   S    
C114  C132  A    
C74   C82   A    
C119  H6    S    
C5    O5    A    
C6    C74   S    
C161  O58   S    
C117  H8    S    
C118  H7    S    
C55   C106  S    
O60   H66   S    
C50   C58   A    
O54   H63   S    
C54   C62   A    
C28   C39   A    
C107  O39   A    
C1    C69   S    
C23   C44   A    
C88   O20   A    
C3    C71   S    
O56   H64   S    
C79   C95   A    
C157  O49   D    
C11   C135  A    
O9    Zn6   S    
O28   Zn7   S    
O50   H61   S    
C152  C155  A    
C124  H1    S    
C46   C54   A    
C15   H15   S    
O32   Zn3   S    
C151  C156  A    
C18   C111  A    
C84   C164  S    
C101  O33   A    
O15   Zn4   S    
C63   H39   S    
C10   C139  A    
C91   O23   A    
C3    O27   A    
C4    C72   S    
O47   Zn10  S    
C78   C158  S    
C89   O13   A    
C1    O25   A    
C116  C124  A    
C86   O10   A    
C57   C65   A    
C26   C37   A    
C17   C143  A    
C33   C41   A    
C142  C150  A    
C18   C144  A    
N3    H50   S    
C75   C83   A    
C164  O63   D    
C104  O42   A    
C37   H26   S    
C77   C93   A    
C12   C142  A    
C92   O16   A    
C4    O28   A    
C56   C105  S    
C13   C116  A    
C83   C163  S    
N2    H48   S    
C162  O59   D    
C106  O38   A    
C29   C37   A    
N4    H51   S    
C154  H10   S    
C106  O48   A    
C2    C70   S    
C144  C152  A    
O62   H67   S    
C70   C78   A    
C160  O55   D    
O39   Zn10  S    
C130  C132  A    
C140  C148  A    
C141  C149  A    
C163  O61   D    
C139  C147  A    
C30   H30   S    
C90   O22   A    
C4    O4    A    
C42   H21   S    
C46   N2    S    
C65   C73   A    
C8    O8    A    
C147  C154  A    
O7    Zn7   S    
C85   O17   A    
C103  O41   A    
C58   C66   A    
C108  O40   A    
C132  C133  A    
C87   O19   A    
C80   C96   A    
C11   C144  A    
O29   Zn2   S    
C145  C153  A    
C28   C100  S    
C32   C40   A    
C150  C156  A    
O44   Zn11  S    
O31   Zn4   S    
C91   C148  S    
C26   C34   A    
C51   C99   A    
C89   C146  S    
C32   H32   S    
C20   C142  A    
C41   H22   S    
C86   C149  S    
N1    H46   S    
N2    H47   S    
C7    C75   S    
C52   N8    S    
O48   Zn9   S    
O4    Zn4   S    
O46   Zn10  S    
C16   H16   S    
N5    H53   S    
C15   C114  A    
O13   Zn2   S    
C35   H35   S    
C120  H5    S    
C26   C98   S    
C65   H41   S    
O2    Zn2   S    
N6    H56   S    
C5    O29   A    
C51   C59   A    
C60   C101  S    
O6    Zn6   S    
C17   C112  A    
C47   C55   A    
C115  C129  A    
C19   C110  A    
C61   C69   A    
C48   C56   A    
O36   Zn11  S    
C47   C95   A    
C113  C131  A    
O42   Zn12  S    
C107  O45   A    
C10   C134  A    
C123  H2    S    
C68   H44   S    
C159  O54   S    
O37   Zn9   S    
C8    O32   A    
C81   C97   A    
C158  O52   S    
C31   C39   A    
O38   Zn10  S    
C64   C72   A    
C101  O43   A    
C45   C53   A    
C20   C109  A    
C114  C122  A    
O23   Zn7   S    
C50   N6    S    
C62   H38   S    
C58   C103  S    
O8    Zn8   S    
C129  C131  A    
