data_mof_unit_39710.cif
_audit_creation_date              2012-12-11T15:07:38-0500
_audit_creation_method            fapswitch 2.2
_symmetry_space_group_name_H-M    P1
_symmetry_Int_Tables_number       1
_space_group_crystal_system       triclinic
_cell_length_a                    21.670245
_cell_length_b                    7.208011
_cell_length_c                    18.584266
_cell_angle_alpha                 90.007059
_cell_angle_beta                  95.948535
_cell_angle_gamma                 90.00745
_cell_volume                      2887.219752

loop_
_atom_site_label
_atom_site_type_symbol
_atom_type_description
_atom_site_fract_x
_atom_site_fract_y
_atom_site_fract_z
_atom_type_partial_charge
O1    O     O_R   0.449650 0.506500 0.414480 -0.531002
O2    O     O_R   0.550350 0.006500 0.585520 -0.530982
O3    O     O_R   0.432010 0.173150 0.560250 -0.539934
O4    O     O_R   0.567990 0.673150 0.439750 -0.539948
C1    C     C_R   0.416178 0.344613 0.581068 0.683713
C2    C     C_R   0.583819 0.844616 0.418930 0.683707
O5    O     O_R   0.442320 0.176650 0.413480 -0.535348
O6    O     O_R   0.557680 0.676650 0.586520 -0.535354
O7    O     O_R   0.560730 0.008380 0.437700 -0.537285
O8    O     O_R   0.439270 0.508380 0.562300 -0.537303
C3    C     C_R   0.428520 0.345275 0.387567 0.674685
C4    C     C_R   0.571481 0.845313 0.612431 0.674698
O9    O     O_3   0.538840 0.339860 0.508120 -0.371913
O10   O     O_3   0.461160 0.839860 0.491880 -0.371924
V1    V     V_3+5 0.492800 0.064220 0.498490 1.417198
V2    V     V_3+5 0.507200 0.564220 0.501510 1.417128
C5    C     C_R   0.872844 0.937965 0.688672 -0.158253
C6    C     C_R   0.127231 0.439668 0.311319 -0.158247
H1    H     H_    0.960902 0.959289 0.751717 0.109466
H2    H     H_    0.039175 0.460971 0.248290 0.109536
H3    H     H_    0.791846 0.918652 0.572005 0.126073
H4    H     H_    0.208256 0.421223 0.427976 0.126069
H5    H     H_    0.893670 0.945246 0.638176 0.112576
H6    H     H_    0.106433 0.447755 0.361816 0.112576
C7    C     C_R   0.886350 0.938974 0.819600 -0.031867
C8    C     C_R   0.113670 0.439162 0.180391 -0.031888
C9    C     C_R   0.584829 0.839443 0.745507 -0.160661
C10   C     C_R   0.415126 0.338145 0.254500 -0.160641
C11   C     C_R   0.620446 0.847719 0.812098 -0.119615
C12   C     C_R   0.379493 0.345908 0.187910 -0.119618
C13   C     C_R   0.684593 0.870453 0.816043 -0.158029
C14   C     C_R   0.315368 0.369137 0.183958 -0.158041
C15   C     C_R   0.715232 0.885369 0.752685 0.076739
C16   C     C_R   0.284767 0.385096 0.247308 0.076741
C17   C     C_R   0.678179 0.876626 0.684164 0.069078
C18   C     C_R   0.321840 0.376941 0.315827 0.069083
C19   C     C_R   0.781304 0.907667 0.755048 0.073119
C20   C     C_R   0.218714 0.407832 0.244941 0.073115
C21   C     C_R   0.808389 0.918775 0.688710 0.138734
C22   C     C_R   0.191666 0.419983 0.311277 0.138753
C23   C     C_R   0.771209 0.909972 0.622605 -0.200819
C24   C     C_R   0.228865 0.411746 0.377379 -0.200836
C25   C     C_R   0.707258 0.889655 0.620249 -0.191289
C26   C     C_R   0.292797 0.390988 0.379737 -0.191323
C27   C     C_R   0.821771 0.918958 0.820564 -0.213179
C28   C     C_R   0.178229 0.418594 0.179425 -0.213191
C29   C     C_R   0.911340 0.946993 0.753403 -0.172625
C30   C     C_R   0.088719 0.448218 0.246593 -0.172673
C31   C     C_R   0.612651 0.853952 0.681181 -0.077267
C32   C     C_R   0.387346 0.353742 0.318817 -0.077297
H7    H     H_    0.804802 0.912613 0.873000 0.092447
H8    H     H_    0.195172 0.411498 0.126989 0.092473
H9    H     H_    0.535040 0.821929 0.744105 0.100339
H10   H     H_    0.464895 0.320146 0.255905 0.100348
H11   H     H_    0.708863 0.875155 0.869591 0.107960
H12   H     H_    0.291080 0.373355 0.130414 0.107964
H13   H     H_    0.598069 0.836368 0.861367 0.118556
H14   H     H_    0.401840 0.333720 0.138648 0.118558
H15   H     H_    0.680702 0.883340 0.567631 0.109778
H16   H     H_    0.319369 0.385134 0.432352 0.109859
C33   C     C_R   0.635839 0.010441 0.322729 -0.210785
C34   C     C_R   0.364162 0.510440 0.677276 -0.210796
C35   C     C_R   0.633088 0.856345 0.368942 -0.077671
C36   C     C_R   0.366906 0.356333 0.631054 -0.077712
C37   C     C_R   0.677659 0.715291 0.367034 -0.214041
C38   C     C_R   0.322327 0.215263 0.632951 -0.213991
C39   C     C_R   0.725148 0.729316 0.321067 0.053838
C40   C     C_R   0.274835 0.229283 0.678916 0.053830
C41   C     C_R   0.727709 0.883611 0.275101 0.058353
C42   C     C_R   0.272277 0.383603 0.724885 0.058332
C43   C     C_R   0.682183 0.023811 0.275396 0.100167
C44   C     C_R   0.317813 0.523814 0.724602 0.100172
C45   C     C_R   0.769240 0.588791 0.319527 -0.194548
C46   C     C_R   0.230741 0.088727 0.680456 -0.194513
C47   C     C_R   0.817663 0.600598 0.274859 0.156183
C48   C     C_R   0.182317 0.100530 0.725123 0.156209
C49   C     C_R   0.823630 0.762994 0.231430 0.057328
C50   C     C_R   0.176348 0.262958 0.768549 0.057318
C51   C     C_R   0.775645 0.898309 0.228905 -0.026552
C52   C     C_R   0.224338 0.398306 0.771076 -0.026555
C53   C     C_R   0.775432 0.050179 0.180636 0.104965
C54   C     C_R   0.224556 0.550203 0.819348 0.104967
C55   C     C_R   0.729129 0.186454 0.180454 -0.165228
C56   C     C_R   0.270868 0.686486 0.819542 -0.165216
C57   C     C_R   0.683536 0.174902 0.228132 -0.195307
C58   C     C_R   0.316468 0.674919 0.771874 -0.195294
C59   C     C_R   0.874860 0.797068 0.190270 0.130060
C60   C     C_R   0.125120 0.297025 0.809713 0.129993
C61   C     C_R   0.870331 0.937596 0.136081 -0.088212
C62   C     C_R   0.129654 0.437597 0.863902 -0.088232
C63   C     C_R   0.820988 0.063650 0.132686 -0.276823
C64   C     C_R   0.178997 0.563685 0.867293 -0.276811
H17   H     H_    0.601282 0.119219 0.322748 0.124811
H18   H     H_    0.398727 0.619223 0.677268 0.124824
H19   H     H_    0.676054 0.595836 0.402243 0.130125
H20   H     H_    0.323929 0.095795 0.597738 0.130129
H21   H     H_    0.765303 0.466736 0.352905 0.133672
H22   H     H_    0.234679 0.966648 0.647081 0.133658
H23   H     H_    0.818564 0.174743 0.093146 0.134271
H24   H     H_    0.181424 0.674806 0.906834 0.134281
H25   H     H_    0.728767 0.304043 0.144078 0.128446
H26   H     H_    0.271235 0.804086 0.855925 0.128434
H27   H     H_    0.648967 0.283659 0.227604 0.126334
H28   H     H_    0.351048 0.783672 0.772417 0.126317
O11   O     O_R   0.060820 0.290050 0.937800 -0.530967
O12   O     O_R   0.939180 0.790050 0.062200 -0.530955
O13   O     O_R   0.057690 0.616620 0.086540 -0.536288
O14   O     O_R   0.942310 0.116620 0.913460 -0.536293
C65   C     C_R   0.071657 0.448455 0.112491 0.683937
C66   C     C_R   0.928350 0.948420 0.887506 0.683921
O15   O     O_R   0.068010 0.619890 0.939770 -0.541889
O16   O     O_R   0.931990 0.119890 0.060230 -0.541884
O17   O     O_R   0.949640 0.787940 0.914460 -0.532564
O18   O     O_R   0.050360 0.287940 0.085540 -0.532560
C67   C     C_R   0.083032 0.451179 0.917472 0.703833
C68   C     C_R   0.916962 0.951179 0.082520 0.703839
O19   O     O_3   0.961210 0.453080 0.991940 -0.372967
O20   O     O_3   0.038790 0.953080 0.008060 -0.372973
V3    V     V_3+5 0.007200 0.728820 0.001500 1.406943
V4    V     V_3+5 0.992800 0.228820 0.998500 1.406910
C69   C     C_3   0.856425 0.427718 0.269547 -0.765089
H29   H     H_    0.833954 0.304415 0.291476 0.211618
H30   H     H_    0.861583 0.395898 0.212117 0.217436
H31   H     H_    0.902157 0.441854 0.301629 0.202914
C70   C     C_3   0.143556 0.927620 0.730437 -0.765132
H32   H     H_    0.166026 0.804314 0.708511 0.211611
H33   H     H_    0.138397 0.895839 0.787866 0.217432
H34   H     H_    0.097823 0.941697 0.698355 0.202900
C71   C     C_3   0.938002 0.712759 0.212434 -0.747057
H35   H     H_    0.946357 0.702086 0.272144 0.197207
H36   H     H_    0.942502 0.576384 0.185909 0.206324
H37   H     H_    0.976152 0.803314 0.197643 0.195861
C72   C     C_3   0.061976 0.212632 0.787561 -0.746885
H38   H     H_    0.053612 0.201902 0.727853 0.197221
H39   H     H_    0.057479 0.076270 0.814088 0.206290
H40   H     H_    0.023826 0.303159 0.802359 0.195863

loop_
_geom_bond_atom_site_label_1
_geom_bond_atom_site_label_2
_ccdc_geom_bond_type
C38   C40   A    
C35   C37   A    
O12   V3    S    
C9    C11   A    
C56   H26   S    
O14   V4    S    
O1    C3    A    
C58   H28   S    
C2    O7    A    
C4    C31   S    
O3    V1    S    
C46   H22   S    
H4    C24   S    
O5    C3    A    
C5    H5    S    
C46   C48   A    
C6    H6    S    
O15   V3    S    
C48   C50   A    
C60   C72   S    
C50   C52   A    
C27   H7    S    
C40   C46   A    
C28   H8    S    
C54   C64   A    
C41   C43   A    
C5    C21   A    
C33   C35   A    
C6    C22   A    
O20   V3    S    
C69   H31   S    
C34   C36   A    
O17   V3    S    
C10   C32   A    
C37   C39   A    
C17   C31   A    
C70   H34   S    
C13   C15   A    
O11   V4    S    
C39   C45   A    
C61   C63   A    
C17   C25   A    
C7    C29   A    
C16   C18   A    
C57   H27   S    
C25   H15   S    
C71   H37   S    
C33   C43   A    
O5    V1    S    
C61   C68   S    
O2    C4    A    
O6    V2    S    
C43   C57   A    
C48   C70   S    
C23   C25   A    
C24   C26   A    
O13   V3    S    
C53   C55   A    
C49   C51   A    
C19   C21   A    
C20   C28   A    
C38   H20   S    
C42   C52   A    
C12   C14   A    
C52   C54   A    
O19   V4    S    
C51   C53   A    
C10   H10   S    
C16   C20   A    
C42   C44   A    
C15   C19   A    
C1    C36   S    
O12   C68   A    
C39   C41   A    
C36   C38   A    
C2    C35   S    
O4    V2    S    
C45   H21   S    
C72   H40   S    
C72   H38   S    
C62   C64   A    
C66   O17   A    
O6    C4    A    
C34   C44   A    
O1    V2    S    
C62   C67   S    
C70   H33   S    
O2    V1    S    
C47   C49   A    
C8    C65   S    
C69   H29   S    
H2    C30   S    
C7    C66   S    
H3    C23   S    
C65   O18   A    
O4    C2    A    
C55   C57   A    
C11   H13   S    
C54   C56   A    
C34   H18   S    
C70   H32   S    
C41   C51   A    
C45   C47   A    
C19   C27   A    
C7    C27   A    
O16   C68   A    
C18   C32   A    
C64   H24   S    
O16   V4    S    
C71   H35   S    
C50   C60   A    
C55   H25   S    
C47   C69   S    
O11   C67   A    
C5    C29   A    
C60   C62   A    
O3    C1    A    
C6    C30   A    
C44   C58   A    
C9    H9    S    
C8    C30   A    
C21   C23   A    
C13   H11   S    
C59   C71   S    
C10   C12   A    
O7    V1    S    
C1    O8    A    
C11   C13   A    
C3    C32   S    
O8    V2    S    
C20   C22   A    
O13   C65   A    
C26   H16   S    
C12   H14   S    
C22   C24   A    
C15   C17   A    
O14   C66   A    
H1    C29   S    
C69   H30   S    
C18   C26   A    
C8    C28   A    
C53   C63   A    
C37   H19   S    
C49   C59   A    
C40   C42   A    
O9    V2    S    
C72   H39   S    
C59   C61   A    
O10   V1    S    
C56   C58   A    
O15   C67   A    
C63   H23   S    
C33   H17   S    
C14   H12   S    
O18   V4    S    
C9    C31   A    
C14   C16   A    
C71   H36   S    
