data_mof_unit_57605.cif
_audit_creation_date              2012-12-11T15:08:30-0500
_audit_creation_method            fapswitch 2.2
_symmetry_space_group_name_H-M    P1
_symmetry_Int_Tables_number       1
_space_group_crystal_system       triclinic
_cell_length_a                    26.847008
_cell_length_b                    7.12215
_cell_length_c                    11.978847
_cell_angle_alpha                 89.99998
_cell_angle_beta                  102.955198
_cell_angle_gamma                 90.0
_cell_volume                      2232.15434204

loop_
_atom_site_label
_atom_site_type_symbol
_atom_type_description
_atom_site_fract_x
_atom_site_fract_y
_atom_site_fract_z
_atom_type_partial_charge
O1    O     O_R   0.437360 0.505910 0.042120 -0.539918
O2    O     O_R   0.562640 0.005910 0.957880 -0.539918
O3    O     O_R   0.542480 0.176660 0.157100 -0.542848
O4    O     O_R   0.457520 0.676660 0.842900 -0.542848
C1    C     C_R   0.556123 0.344332 0.197593 0.690759
C2    C     C_R   0.443877 0.844332 0.802406 0.690759
O5    O     O_R   0.436520 0.176250 0.054800 -0.538130
O6    O     O_R   0.563480 0.676250 0.945200 -0.538130
O7    O     O_R   0.455920 0.005040 0.854840 -0.537444
O8    O     O_R   0.544080 0.505040 0.145160 -0.537444
C3    C     C_R   0.417472 0.344425 0.062980 0.687677
C4    C     C_R   0.582528 0.844425 0.937020 0.687678
O9    O     O_3   0.506490 0.338900 0.934520 -0.375378
O10   O     O_3   0.493510 0.838900 0.065480 -0.375378
V1    V     V_3+5 0.498800 0.064400 0.012150 1.423507
V2    V     V_3+5 0.501200 0.564400 0.987850 1.423507
C5    C     C_R   0.683365 0.849566 0.765527 -0.166291
C6    C     C_R   0.316634 0.349567 0.234472 -0.166291
H1    H     H_    0.601538 0.836032 0.725024 0.106333
H2    H     H_    0.398462 0.336034 0.274976 0.106333
H3    H     H_    0.776070 0.881616 0.730274 0.135421
H4    H     H_    0.223930 0.381617 0.269726 0.135421
H5    H     H_    0.685092 0.848104 0.675953 0.132963
H6    H     H_    0.314908 0.348105 0.324047 0.132963
C7    C     C_R   0.632490 0.850646 0.907053 -0.059777
C8    C     C_R   0.367510 0.350646 0.092947 -0.059777
C9    C     C_R   0.870438 0.841135 0.214358 -0.374838
C10   C     C_R   0.129562 0.341135 0.785642 -0.374838
C11   C     C_R   0.825676 0.827467 0.255595 0.399352
C12   C     C_R   0.174324 0.327466 0.744405 0.399352
C13   C     C_R   0.777529 0.831945 0.177681 0.384915
C14   C     C_R   0.222471 0.331944 0.822319 0.384914
C15   C     C_R   0.773913 0.854988 0.056661 -0.099037
C16   C     C_R   0.226087 0.354987 0.943339 -0.099037
C17   C     C_R   0.820806 0.870631 0.018868 -0.019674
C18   C     C_R   0.179194 0.370630 0.981132 -0.019674
C19   C     C_R   0.726440 0.856717 0.970320 0.112190
C20   C     C_R   0.273560 0.356717 0.029680 0.112190
C21   C     C_R   0.728251 0.860280 0.852162 0.124177
C22   C     C_R   0.271749 0.360280 0.147838 0.124177
C23   C     C_R   0.774655 0.876649 0.819955 -0.227978
C24   C     C_R   0.225345 0.376649 0.180045 -0.227978
C25   C     C_R   0.819916 0.886146 0.901448 -0.117868
C26   C     C_R   0.180084 0.386146 0.098552 -0.117868
C27   C     C_R   0.676975 0.857296 0.994349 -0.196232
C28   C     C_R   0.323025 0.357295 0.005651 -0.196232
C29   C     C_R   0.635791 0.843498 0.792879 -0.180767
C30   C     C_R   0.364209 0.343499 0.207120 -0.180767
C31   C     C_R   0.868410 0.862190 0.098312 -0.122633
C32   C     C_R   0.131590 0.362190 0.901688 -0.122632
H7    H     H_    0.670367 0.866240 0.078625 0.164095
H8    H     H_    0.329633 0.366239 0.921375 0.164095
H9    H     H_    0.907586 0.828278 0.271998 0.115242
H10   H     H_    0.092413 0.328278 0.728002 0.115242
H11   H     H_    0.854706 0.899014 0.870605 0.139199
H12   H     H_    0.145294 0.399014 0.129394 0.139199
C33   C     C_R   0.093458 0.862330 0.307328 -0.107895
C34   C     C_R   0.906542 0.362330 0.692672 -0.107895
C35   C     C_R   0.410687 0.849510 0.687891 -0.032631
C36   C     C_R   0.589313 0.349510 0.312108 -0.032631
C37   C     C_R   0.109322 0.896983 0.511453 -0.173010
C38   C     C_R   0.890678 0.396983 0.488547 -0.173010
C39   C     C_R   0.075629 0.895315 0.405783 -0.272490
C40   C     C_R   0.924371 0.395315 0.594217 -0.272490
C41   C     C_R   0.146061 0.832654 0.312910 0.317946
C42   C     C_R   0.853939 0.332654 0.687090 0.317947
C43   C     C_R   0.182234 0.840307 0.421790 -0.031011
C44   C     C_R   0.817766 0.340307 0.578210 -0.031011
C45   C     C_R   0.161857 0.873117 0.520391 0.113688
C46   C     C_R   0.838143 0.373118 0.479609 0.113688
C47   C     C_R   0.237194 0.822048 0.438723 0.055048
C48   C     C_R   0.762806 0.322048 0.561277 0.055048
C49   C     C_R   0.269321 0.851822 0.550618 0.037180
C50   C     C_R   0.730679 0.351822 0.449382 0.037180
C51   C     C_R   0.246053 0.882692 0.643328 -0.150276
C52   C     C_R   0.753946 0.382693 0.356671 -0.150276
C53   C     C_R   0.193707 0.885160 0.628853 -0.097320
C54   C     C_R   0.806292 0.385161 0.371147 -0.097320
C55   C     C_R   0.261778 0.775825 0.349606 -0.203381
C56   C     C_R   0.738222 0.275825 0.650393 -0.203381
C57   C     C_R   0.314420 0.775817 0.364929 -0.234341
C58   C     C_R   0.685580 0.275816 0.635071 -0.234341
C59   C     C_R   0.345701 0.808809 0.471877 0.147920
C60   C     C_R   0.654299 0.308808 0.528123 0.147920
C61   C     C_R   0.323888 0.844777 0.567112 0.078298
C62   C     C_R   0.676112 0.344777 0.432888 0.078298
C63   C     C_R   0.398889 0.797995 0.484883 -0.165848
C64   C     C_R   0.601111 0.297994 0.515117 -0.165848
C65   C     C_R   0.431155 0.816031 0.592599 -0.179123
C66   C     C_R   0.568845 0.316030 0.407401 -0.179122
C67   C     C_R   0.357854 0.867316 0.675491 -0.223146
C68   C     C_R   0.642146 0.367316 0.324509 -0.223145
H13   H     H_    0.177923 0.906091 0.703764 0.119272
H14   H     H_    0.822077 0.406092 0.296236 0.119272
H15   H     H_    0.344908 0.891679 0.753032 0.109352
H16   H     H_    0.655092 0.391680 0.246968 0.109351
H17   H     H_    0.472034 0.800088 0.602095 0.102504
H18   H     H_    0.527966 0.300087 0.397904 0.102504
H19   H     H_    0.330880 0.743713 0.292323 0.143824
H20   H     H_    0.669120 0.243712 0.707677 0.143824
H21   H     H_    0.094289 0.921928 0.586953 0.123310
H22   H     H_    0.905711 0.421929 0.413046 0.123310
H23   H     H_    0.035294 0.918814 0.400705 0.120846
H24   H     H_    0.964706 0.418814 0.599295 0.120846
H25   H     H_    0.267122 0.903258 0.729950 0.142595
H26   H     H_    0.732878 0.403258 0.270050 0.142594
H27   H     H_    0.242449 0.732557 0.266293 0.205967
H28   H     H_    0.757551 0.232557 0.733707 0.205967
H29   H     H_    0.415470 0.769612 0.412002 0.115312
H30   H     H_    0.584530 0.269610 0.587998 0.115312
O11   O     O_R   0.955980 0.206520 0.854760 -0.527713
O12   O     O_R   0.044020 0.706520 0.145240 -0.527713
O13   O     O_R   0.063490 0.536770 0.945200 -0.539093
O14   O     O_R   0.936510 0.036770 0.054800 -0.539093
C69   C     C_R   0.082682 0.368844 0.937648 0.719194
C70   C     C_R   0.917318 0.868844 0.062352 0.719194
O15   O     O_R   0.957530 0.536190 0.842880 -0.556791
O16   O     O_R   0.042470 0.036190 0.157120 -0.556791
O17   O     O_R   0.937350 0.707210 0.042130 -0.544609
O18   O     O_R   0.062650 0.207210 0.957870 -0.544609
C71   C     C_R   0.943107 0.367877 0.803370 0.736099
C72   C     C_R   0.056893 0.867877 0.196630 0.736099
O19   O     O_3   0.993540 0.373870 0.065440 -0.378417
O20   O     O_3   0.006460 0.873870 0.934560 -0.378417
V3    V     V_3+5 0.001200 0.648440 0.987860 1.405716
V4    V     V_3+5 0.998800 0.148440 0.012140 1.405716
O21   O     O_3   0.159353 0.775353 0.213279 -0.571706
C73   C     C_3   0.168103 0.933400 0.149065 0.051661
H31   H     H_    0.201025 0.015847 0.197329 0.137780
H32   H     H_    0.134203 0.026495 0.127424 0.135184
C74   C     C_3   0.180446 0.866267 0.037614 -0.673053
H33   H     H_    0.147794 0.784945 0.987150 0.230933
H34   H     H_    0.187726 0.987402 0.985631 0.183168
H35   H     H_    0.215085 0.776266 0.055847 0.216199
O22   O     O_3   0.840647 0.275353 0.786720 -0.571706
C75   C     C_3   0.831897 0.433400 0.850934 0.051661
H36   H     H_    0.798975 0.515847 0.802670 0.137780
H37   H     H_    0.865797 0.526495 0.872576 0.135184
C76   C     C_3   0.819553 0.366267 0.962386 -0.673053
H38   H     H_    0.852206 0.284944 0.012850 0.230933
H39   H     H_    0.812274 0.487402 0.014369 0.183168
H40   H     H_    0.784914 0.276267 0.944153 0.216199
O23   O     O_3   0.735398 0.784885 0.220348 -0.556068
C77   C     C_3   0.721366 0.939511 0.280639 -0.234723
H41   H     H_    0.715600 0.068257 0.226688 0.101936
H42   H     H_    0.749480 0.966288 0.362163 0.190267
H43   H     H_    0.684381 0.907064 0.303039 0.161498
O24   O     O_3   0.264602 0.284883 0.779652 -0.556068
C78   C     C_3   0.278634 0.439509 0.719361 -0.234724
H44   H     H_    0.284400 0.568256 0.773311 0.101936
H45   H     H_    0.250520 0.466286 0.637836 0.190267
H46   H     H_    0.315619 0.407062 0.696961 0.161497
O25   O     O_3   0.826678 0.784697 0.369662 -0.541392
C79   C     C_3   0.866674 0.875490 0.447772 0.089572
H47   H     H_    0.871892 0.022537 0.421454 0.116799
H48   H     H_    0.902989 0.796614 0.455587 0.126004
C80   C     C_3   0.853961 0.878626 0.565331 -0.676205
H49   H     H_    0.851276 0.733686 0.597080 0.217688
H50   H     H_    0.884335 0.954236 0.627081 0.187136
H51   H     H_    0.816769 0.949701 0.560270 0.213329
O26   O     O_3   0.173322 0.284696 0.630338 -0.541392
C81   C     C_3   0.133326 0.375489 0.552228 0.089572
H52   H     H_    0.128107 0.522537 0.578545 0.116799
H53   H     H_    0.097011 0.296613 0.544413 0.126005
C82   C     C_3   0.146039 0.378626 0.434669 -0.676204
H54   H     H_    0.148725 0.233686 0.402920 0.217688
H55   H     H_    0.115665 0.454236 0.372919 0.187136
H56   H     H_    0.183231 0.449701 0.439730 0.213329

loop_
_geom_bond_atom_site_label_1
_geom_bond_atom_site_label_2
_ccdc_geom_bond_type
C59   C63   A    
C82   H54   S    
C9    C11   A    
C48   C50   A    
C23   C25   A    
C45   C53   A    
C42   C44   A    
O1    C3    A    
C74   H35   S    
O2    C4    A    
C73   H31   S    
C2    O7    A    
C47   C55   A    
O26   C81   S    
C61   C67   A    
O3    V1    S    
O22   C75   S    
C21   C23   A    
O5    C3    A    
C80   H49   S    
C50   C52   A    
C6    H6    S    
C41   O21   S    
O20   V4    S    
C20   C22   A    
C52   C54   A    
C78   H45   S    
C5    C21   A    
O14   V4    S    
C76   H40   S    
H1    C29   S    
O19   V3    S    
C77   H42   S    
C46   C54   A    
C27   H7    S    
C37   C45   A    
O23   C77   S    
C28   H8    S    
C68   H16   S    
C38   C46   A    
C32   C69   S    
O16   C72   A    
C53   H13   S    
C37   C39   A    
O15   C71   A    
C38   C40   A    
C33   C72   S    
C10   C32   A    
C34   C42   A    
C35   C65   A    
O11   C71   A    
C41   C43   A    
C17   C31   A    
C13   C15   A    
C39   H23   S    
C17   C25   A    
C7    C29   A    
C79   H48   S    
C8    C30   A    
C64   H30   S    
O5    V1    S    
O6    V2    S    
C11   C13   A    
C49   C51   A    
C24   C26   A    
C77   H43   S    
C57   C59   A    
C14   O24   S    
C33   C39   A    
C81   H53   S    
C36   C68   A    
C34   C40   A    
C60   C64   A    
O24   C78   S    
C79   C80   S    
C56   C58   A    
C78   H46   S    
C47   C49   A    
C10   H10   S    
C75   H36   S    
O19   V4    S    
C35   C67   A    
C57   H19   S    
C3    C8    S    
C74   H34   S    
C15   C19   A    
C48   C56   A    
C73   H32   S    
C44   C48   A    
C43   C45   A    
C14   C16   A    
O4    V2    S    
C37   H21   S    
O12   C72   A    
C81   C82   S    
C26   H12   S    
O14   C70   A    
O6    C4    A    
O11   V4    S    
O12   V3    S    
C55   H27   S    
O1    V2    S    
C5    H5    S    
C50   C62   A    
O2    V1    S    
C51   C53   A    
C49   C61   A    
C79   H47   S    
H2    C30   S    
O18   V4    S    
H3    C23   S    
O17   V3    S    
O4    C2    A    
C59   C61   A    
C64   C66   A    
C51   H25   S    
C80   H51   S    
C58   C60   A    
C63   C65   A    
C18   C26   A    
C19   C27   A    
C74   H33   S    
C73   C74   S    
C7    C27   A    
C18   C32   A    
C75   H37   S    
C11   O25   S    
C81   H52   S    
C25   H11   S    
C40   H24   S    
C6    C22   A    
C34   C71   S    
C52   H26   S    
C1    C36   S    
C16   C20   A    
C58   H20   S    
C2    C35   S    
C5    C29   A    
C33   C41   A    
C77   H41   S    
O3    C1    A    
C6    C30   A    
C80   H50   S    
C76   H38   S    
C9    H9    S    
C63   H29   S    
C36   C66   A    
C82   H56   S    
C56   H28   S    
C55   C57   A    
C70   O17   A    
C4    C7    S    
C10   C12   A    
O7    V1    S    
C1    O8    A    
C19   C21   A    
O8    V2    S    
C78   H44   S    
C75   C76   S    
C12   C14   A    
C76   H39   S    
H4    C24   S    
C54   H14   S    
C22   C24   A    
C15   C17   A    
C16   C18   A    
C43   C47   A    
C13   O23   S    
C20   C28   A    
C8    C28   A    
C67   H15   S    
C42   O22   S    
C9    C31   A    
C31   C70   S    
O13   V3    S    
C82   H55   S    
C69   O18   A    
O9    V2    S    
C65   H17   S    
C44   C46   A    
O10   V1    S    
C60   C62   A    
C62   C68   A    
O16   V4    S    
C12   O26   S    
O13   C69   A    
O25   C79   S    
O15   V3    S    
C66   H18   S    
O21   C73   S    
O20   V3    S    
C38   H22   S    
