data_mof_unit_24553.cif
_audit_creation_date              2012-12-10T19:25:48-0500
_audit_creation_method            fapswitch 2.2
_symmetry_space_group_name_H-M    P1
_symmetry_Int_Tables_number       1
_space_group_crystal_system       triclinic
_cell_length_a                    9.774458
_cell_length_b                    10.503501
_cell_length_c                    16.743044
_cell_angle_alpha                 89.142703
_cell_angle_beta                  85.869479
_cell_angle_gamma                 89.100055
_cell_volume                      1714.10064067

loop_
_atom_site_label
_atom_site_type_symbol
_atom_type_description
_atom_site_fract_x
_atom_site_fract_y
_atom_site_fract_z
_atom_type_partial_charge
C1    C     C_R   0.499303 0.742208 0.497427 0.912913
C2    C     C_R   0.500415 0.257462 0.502439 0.917970
C3    C     C_3   0.397827 0.964916 0.456768 0.593854
C4    C     C_3   0.599321 0.033158 0.542999 0.591637
C5    C     C_3   0.519072 0.046466 0.423983 -0.340248
C6    C     C_3   0.477966 0.952061 0.575399 -0.316879
C7    C     C_3   0.500512 0.122128 0.502235 -0.106524
C8    C     C_3   0.497516 0.876949 0.497420 -0.091115
C9    C     C_3   0.376739 0.041969 0.534018 -0.299306
C10   C     C_3   0.620506 0.956835 0.465393 -0.323535
C11   C     C_3   0.947098 0.612893 0.514655 -0.132322
C12   C     C_3   0.052764 0.386901 0.485644 -0.170233
C13   C     C_3   0.051492 0.575979 0.447003 0.325863
C14   C     C_3   0.948251 0.424754 0.553332 0.317938
C15   C     C_3   0.040000 0.535976 0.568950 -0.129414
C16   C     C_3   0.959954 0.464469 0.430959 -0.155888
C17   C     C_R   0.481500 0.503869 0.653000 0.876931
C18   C     C_R   0.518212 0.506717 0.346944 0.863977
C19   C     C_R   0.470050 0.531597 0.738082 -0.063341
C20   C     C_R   0.526174 0.548091 0.263146 -0.060191
C21   C     C_R   0.588254 0.556300 0.777272 -0.203251
C22   C     C_R   0.405732 0.589735 0.229891 -0.205635
C23   C     C_R   0.577181 0.596532 0.855765 -0.214711
C24   C     C_R   0.411281 0.648058 0.155561 -0.215738
C25   C     C_R   0.447418 0.613129 0.896356 0.168383
C26   C     C_R   0.536102 0.655581 0.109202 0.169806
C27   C     C_R   0.327725 0.589570 0.856976 0.238612
C28   C     C_R   0.659019 0.616564 0.142216 0.244571
C29   C     C_R   0.340226 0.547779 0.778191 -0.277392
C30   C     C_R   0.653309 0.564902 0.219996 -0.271105
C31   C     C_2   0.435844 0.631700 0.982872 -0.228249
C32   C     C_2   0.534010 0.683774 0.023287 -0.240565
H1    H     H_    0.689619 0.544984 0.747319 0.176156
H2    H     H_    0.306256 0.579022 0.261394 0.166003
H3    H     H_    0.898867 0.707981 0.524870 0.121148
H4    H     H_    0.102712 0.292429 0.475988 0.151461
H5    H     H_    0.078060 0.565003 0.626761 0.129364
H6    H     H_    0.921531 0.435820 0.373171 0.137131
H7    H     H_    0.747706 0.536344 0.245906 0.153606
H8    H     H_    0.247967 0.530613 0.748019 0.152123
H9    H     H_    0.622589 0.727945 0.992141 0.176471
H10   H     H_    0.349705 0.585007 0.014999 0.181521
H11   H     H_    0.316159 0.681887 0.132710 0.147385
H12   H     H_    0.670953 0.609232 0.885039 0.146546
H13   H     H_    0.533693 0.089386 0.363022 0.152473
H14   H     H_    0.460966 0.908003 0.635865 0.147440
H15   H     H_    0.279238 0.081604 0.562028 0.149294
H16   H     H_    0.718652 0.917087 0.438107 0.165452
N1    N     N_3   0.136700 0.499970 0.500060 -0.115435
N2    N     N_3   0.863300 0.500030 0.499940 -0.111291
O1    O     O_R   0.383390 0.686040 0.500000 -0.593675
O2    O     O_R   0.616610 0.313960 0.500000 -0.607126
O3    O     O_R   0.616650 0.686050 0.499970 -0.641029
O4    O     O_R   0.383350 0.313950 0.500030 -0.632317
O5    O     O_R   0.369590 0.500020 0.615820 -0.624574
O6    O     O_R   0.630410 0.499980 0.384180 -0.618506
O7    O     O_R   0.602840 0.500020 0.615790 -0.612877
O8    O     O_R   0.397160 0.499980 0.384210 -0.640958
Zn1   Zn    Zn3+2 0.344250 0.499990 0.500020 0.939415
Zn2   Zn    Zn3+2 0.655750 0.500010 0.499980 0.942044
N3    N     N_2   0.194745 0.604688 0.896848 -0.329805
H17   H     H_    0.121474 0.546858 0.875614 0.221034
C33   C     C_3   0.147480 0.735500 0.903952 -0.815282
H18   H     H_    0.135858 0.778112 0.843589 0.243117
H19   H     H_    0.220547 0.792535 0.935917 0.256793
H20   H     H_    0.046340 0.738796 0.938679 0.244335
N4    N     N_2   0.787546 0.626182 0.097087 -0.326800
H21   H     H_    0.866033 0.653026 0.131003 0.223732
C34   C     C_3   0.825105 0.515241 0.049770 -0.823309
H22   H     H_    0.841773 0.431572 0.089535 0.242067
H23   H     H_    0.921545 0.533774 0.012520 0.246500
H24   H     H_    0.743749 0.493329 0.009279 0.255719
O9    O     O_3   0.294625 0.914820 0.412089 -0.643283
C35   C     C_3   0.210114 0.013033 0.383027 0.096286
H25   H     H_    0.194042 0.991405 0.319669 0.165737
H26   H     H_    0.256190 0.109658 0.382658 0.114211
C36   C     C_3   0.070748 0.015085 0.431335 -0.350078
H27   H     H_    0.033175 0.916474 0.441439 0.252689
H28   H     H_    0.082192 0.057422 0.490727 0.190150
C37   C     C_3   0.963901 0.092148 0.388174 -0.979577
H29   H     H_    0.005124 0.185793 0.367532 0.257499
H30   H     H_    0.871617 0.108881 0.429499 0.288884
H31   H     H_    0.933514 0.039227 0.335462 0.265471
O10   O     O_3   0.703390 0.076534 0.589525 -0.667234
C38   C     C_3   0.786902 0.973626 0.613821 0.058363
H32   H     H_    0.895640 0.001917 0.602518 0.159766
H33   H     H_    0.775384 0.884210 0.580200 0.134934
C39   C     C_3   0.758488 0.946205 0.703448 -0.322418
H34   H     H_    0.776786 0.033227 0.737780 0.224894
H35   H     H_    0.649714 0.919176 0.716129 0.218080
C40   C     C_3   0.850356 0.837976 0.731538 -0.979210
H36   H     H_    0.832220 0.749426 0.698622 0.265832
H37   H     H_    0.826866 0.819536 0.796527 0.267462
H38   H     H_    0.960080 0.863821 0.721429 0.261091
N5    N     N_2   0.110800 0.668913 0.390736 -0.283798
H39   H     H_    0.214047 0.658391 0.376481 0.281641
C41   C     C_3   0.030155 0.701266 0.324122 -0.870051
H40   H     H_    0.077351 0.782675 0.289930 0.253911
H41   H     H_    0.924106 0.729410 0.346067 0.255954
H42   H     H_    0.026851 0.618871 0.283504 0.227842
N6    N     N_2   0.885116 0.342034 0.614472 -0.291539
H43   H     H_    0.813227 0.283976 0.592890 0.298562
C42   C     C_3   0.980091 0.274735 0.662866 -0.821819
H44   H     H_    0.922005 0.221193 0.711456 0.248017
H45   H     H_    0.047487 0.342814 0.690842 0.242636
H46   H     H_    0.043926 0.206481 0.625644 0.226932

loop_
_geom_bond_atom_site_label_1
_geom_bond_atom_site_label_2
_ccdc_geom_bond_type
C25   C31   S    
C33   H19   S    
C26   C32   S    
N6    H43   S    
C31   H10   S    
O5    Zn1   S    
C27   C29   A    
C1    C8    S    
O9    C35   S    
C39   H35   S    
C2    C7    S    
C6    C9    S    
C12   N1    S    
C20   C30   A    
C36   H27   S    
C15   N1    S    
C35   H26   S    
C13   N5    S    
C19   C21   A    
C16   N2    S    
C4    C7    S    
C36   C37   S    
C21   H1    S    
C34   H23   S    
N3    C33   S    
C1    O3    A    
C15   H5    S    
O2    Zn2   S    
C11   C15   S    
C18   O8    A    
C12   C16   S    
C35   C36   S    
C32   H9    S    
C12   H4    S    
C27   N3    S    
C17   O5    A    
C18   O6    A    
C36   H28   S    
C33   H20   S    
N6    C42   S    
C34   H22   S    
C37   H31   S    
C41   H41   S    
O3    Zn2   S    
C41   H40   S    
O4    Zn1   S    
C38   H33   S    
C22   H2    S    
C35   H25   S    
N4    H21   S    
C28   N4    S    
O10   C38   S    
C37   H30   S    
C3    C8    S    
C2    O4    A    
C40   H36   S    
C5    C7    S    
C14   N6    S    
C6    C8    S    
O8    Zn1   S    
C38   H32   S    
C5    H13   S    
C23   H12   S    
O6    Zn2   S    
N4    C34   S    
C34   H24   S    
C3    C9    S    
C40   H37   S    
C31   C32   D    
C4    O10   S    
C39   C40   S    
C42   H45   S    
C1    O1    A    
C2    O2    A    
C13   N1    S    
C4    C6    S    
C12   C14   S    
C9    H15   S    
C21   C23   A    
C10   H16   S    
C22   C24   A    
O1    Zn1   S    
C4    C10   S    
C19   C29   A    
C42   H44   S    
C41   H42   S    
C38   C39   S    
C7    C9    S    
C6    H14   S    
C24   C26   A    
C20   C22   A    
C37   H29   S    
C3    C5    S    
N5    C41   S    
C25   C27   A    
C26   C28   A    
N1    Zn1   S    
N2    Zn2   S    
C28   C30   A    
C5    C10   S    
C11   N2    S    
C40   H38   S    
C11   C13   S    
C14   N2    S    
C29   H8    S    
C11   H3    S    
C17   C19   S    
C30   H7    S    
C42   H46   S    
C18   C20   S    
C23   C25   A    
N3    H17   S    
C3    O9    S    
C33   H18   S    
O7    Zn2   S    
C39   H34   S    
C8    C10   S    
C13   C16   S    
C16   H6    S    
N5    H39   S    
C24   H11   S    
C14   C15   S    
C17   O7    A    
