data_mof_unit_20945.cif
_audit_creation_date              2012-12-10T16:50:20-0500
_audit_creation_method            fapswitch 2.2
_symmetry_space_group_name_H-M    P1
_symmetry_Int_Tables_number       1
_space_group_crystal_system       triclinic
_cell_length_a                    23.535392
_cell_length_b                    8.765477
_cell_length_c                    7.515937
_cell_angle_alpha                 103.461917
_cell_angle_beta                  94.082439
_cell_angle_gamma                 94.409526
_cell_volume                      1497.10587995

loop_
_atom_site_label
_atom_site_type_symbol
_atom_type_description
_atom_site_fract_x
_atom_site_fract_y
_atom_site_fract_z
_atom_type_partial_charge
C1    C     C_R   0.496964 0.200284 0.454132 0.873834
C2    C     C_R   0.503035 0.799716 0.545868 0.873834
C3    C     C_R   0.245123 0.574336 0.676388 0.124099
C4    C     C_R   0.754877 0.425664 0.323612 0.124098
C5    C     C_R   0.304977 0.587762 0.670274 0.327790
C6    C     C_R   0.695023 0.412238 0.329726 0.327790
C7    C     C_R   0.329114 0.511929 0.509508 -0.139542
C8    C     C_R   0.670886 0.488071 0.490492 -0.139542
C9    C     C_R   0.292999 0.439378 0.351039 -0.260254
C10   C     C_R   0.707001 0.560623 0.648961 -0.260255
C11   C     C_R   0.234045 0.438591 0.352053 -0.123741
C12   C     C_R   0.765955 0.561410 0.647947 -0.123741
C13   C     C_R   0.209560 0.503461 0.513568 0.282429
C14   C     C_R   0.790440 0.496540 0.486432 0.282430
C15   C     C_2   0.487257 0.033116 0.435540 -0.063409
C16   C     C_2   0.512743 0.966884 0.564460 -0.063409
C17   C     C_R   0.391375 0.505360 0.503297 0.840226
C18   C     C_R   0.608625 0.494640 0.496703 0.840226
C19   C     C_R   0.884859 0.637852 0.533018 0.590449
C20   C     C_R   0.115141 0.362148 0.466981 0.590449
C21   C     C_R   0.875488 0.356493 0.460540 0.582756
C22   C     C_R   0.124512 0.643507 0.539460 0.582756
C23   C     C_R   0.935147 0.352955 0.452973 -0.097457
C24   C     C_R   0.064853 0.647045 0.547027 -0.097457
C25   C     C_R   0.969893 0.498453 0.498682 -0.071508
C26   C     C_R   0.030107 0.501548 0.501318 -0.071508
C27   C     C_R   0.944556 0.641272 0.541987 -0.060305
C28   C     C_R   0.055443 0.358728 0.458013 -0.060305
C29   C     C_R   0.961470 0.210916 0.401246 0.392059
C30   C     C_R   0.038530 0.789084 0.598753 0.392059
C31   C     C_R   0.020868 0.215448 0.405815 -0.136901
C32   C     C_R   0.979132 0.784553 0.594184 -0.136902
Cu1   Cu    Cu3+1 0.506340 0.517380 0.684380 0.975067
Cu2   Cu    Cu3+1 0.493660 0.482620 0.315620 0.975067
H1    H     H_    0.039915 0.105392 0.365201 0.234277
H2    H     H_    0.960084 0.894608 0.634799 0.234277
H3    H     H_    0.310369 0.383135 0.225180 0.183082
H4    H     H_    0.689631 0.616865 0.774820 0.183082
H5    H     H_    0.207036 0.385677 0.226654 0.176327
H6    H     H_    0.792964 0.614323 0.773345 0.176327
N1    N     N_R   0.851685 0.497068 0.492143 -0.477392
N2    N     N_R   0.148315 0.502932 0.507857 -0.477392
N3    N     N_2   0.484110 0.456420 0.038520 -0.053566
N4    N     N_2   0.515890 0.543580 0.961480 -0.053567
O1    O     O_R   0.504120 0.286130 0.619770 -0.605400
O2    O     O_R   0.495880 0.713870 0.380230 -0.605400
O3    O     O_R   0.493410 0.256770 0.308360 -0.566391
O4    O     O_R   0.506590 0.743230 0.691640 -0.566391
O5    O     O_R   0.423230 0.514630 0.655730 -0.562569
O6    O     O_R   0.576770 0.485370 0.344270 -0.562569
O7    O     O_R   0.412530 0.485280 0.344320 -0.598473
O8    O     O_R   0.587470 0.514720 0.655680 -0.598473
O9    O     O_2   0.860015 0.774230 0.564223 -0.468505
O10   O     O_2   0.139985 0.225770 0.435776 -0.468505
O11   O     O_2   0.841180 0.221852 0.438838 -0.438165
O12   O     O_2   0.158820 0.778148 0.561162 -0.438165
Cl1   Cl    Cl    0.923336 0.023378 0.316976 -0.521779
Cl2   Cl    Cl    0.076664 0.976622 0.683023 -0.521779
C33   C     C_3   0.220245 0.633458 0.857064 -0.663640
H7    H     H_    0.226583 0.764153 0.898166 0.280656
H8    H     H_    0.173993 0.595586 0.851460 0.213028
H9    H     H_    0.241938 0.585129 0.965117 0.229570
C34   C     C_3   0.779755 0.366542 0.142936 -0.663640
H10   H     H_    0.826007 0.404414 0.148540 0.213028
H11   H     H_    0.773417 0.235847 0.101834 0.280656
H12   H     H_    0.758061 0.414871 0.034882 0.229570
Cl3   Cl    Cl    0.348164 0.712860 0.858674 -0.660397
Cl4   Cl    Cl    0.651836 0.287140 0.141326 -0.660397
C35   C     C_3   0.442494 0.944870 0.282534 -0.715936
H13   H     H_    0.418037 0.026801 0.221772 0.229624
H14   H     H_    0.463331 0.870799 0.169710 0.273608
H15   H     H_    0.410620 0.871285 0.336549 0.244140
C36   C     C_3   0.557505 0.055130 0.717466 -0.715936
H16   H     H_    0.581963 0.973199 0.778228 0.229624
H17   H     H_    0.589380 0.128715 0.663451 0.244140
H18   H     H_    0.536668 0.129201 0.830290 0.273608
C37   C     C_3   0.429561 0.380380 0.949183 -0.320987
H19   H     H_    0.412999 0.297693 0.028938 0.153920
H20   H     H_    0.398240 0.468163 0.951044 0.216686
H21   H     H_    0.432562 0.306465 0.811322 0.182693
C38   C     C_3   0.570439 0.619620 0.050817 -0.320988
H22   H     H_    0.601760 0.531837 0.048956 0.216686
H23   H     H_    0.587001 0.702307 0.971062 0.153920
H24   H     H_    0.567438 0.693534 0.188678 0.182693

loop_
_geom_bond_atom_site_label_1
_geom_bond_atom_site_label_2
_ccdc_geom_bond_type
C34   H11   S    
Cu1   O1    S    
C36   H16   S    
C5    Cl3   S    
C17   O7    A    
C38   H22   S    
C18   O8    A    
C37   H19   S    
C2    O2    A    
Cu1   O8    S    
C4    C34   S    
Cu2   O7    S    
C6    C8    A    
C23   C29   A    
C24   C26   A    
Cu1   O5    S    
C15   C16   D    
C35   H14   S    
C7    C17   S    
C1    C15   S    
C2    C16   S    
C3    C13   A    
C19   O9    S    
C6    Cl4   S    
C34   H12   S    
C33   H7    S    
C36   H17   S    
C13   N2    S    
C38   H23   S    
C37   H20   S    
C15   C35   S    
Cu2   O6    S    
C33   H8    S    
C16   C36   S    
C20   O10   S    
N4    C38   S    
C21   N1    A    
C17   O5    A    
C5    C7    A    
C1    O3    A    
C22   O12   S    
C20   C28   A    
C2    O4    A    
C25   C26   A    
C8    C18   S    
C12   H6    S    
C35   H15   S    
N3    N4    D    
C9    H3    S    
Cu1   Cu2   S    
C11   H5    S    
C9    C11   A    
C10   C12   A    
C14   N1    S    
Cu2   O2    S    
C4    C6    A    
C12   C14   A    
C21   C23   A    
C36   H18   S    
C31   H1    S    
N3    C37   S    
C32   H2    S    
C38   H24   S    
C19   C27   A    
C18   O6    A    
C21   O11   S    
C37   H21   S    
C7    C9    A    
C33   H9    S    
C27   C32   A    
Cu1   N4    S    
C28   C31   A    
Cu2   N3    S    
C29   Cl1   S    
C3    C5    A    
C20   N2    A    
C25   C27   A    
C26   C28   A    
C10   H4    S    
C29   C31   A    
C30   C32   A    
C11   C13   A    
C1    O1    A    
C22   N2    A    
C30   Cl2   S    
C22   C24   A    
C23   C25   A    
C4    C14   A    
C35   H13   S    
C24   C30   A    
C34   H10   S    
C8    C10   A    
Cu1   O4    S    
Cu2   O3    S    
C19   N1    A    
C3    C33   S    
