data_mof_unit_14023.cif
_audit_creation_date              2012-12-10T18:09:52-0500
_audit_creation_method            fapswitch 2.2
_symmetry_space_group_name_H-M    P1
_symmetry_Int_Tables_number       1
_space_group_crystal_system       triclinic
_cell_length_a                    10.646314
_cell_length_b                    12.643831
_cell_length_c                    13.152606
_cell_angle_alpha                 82.40741
_cell_angle_beta                  90.881015
_cell_angle_gamma                 102.377992
_cell_volume                      1714.00477534

loop_
_atom_site_label
_atom_site_type_symbol
_atom_type_description
_atom_site_fract_x
_atom_site_fract_y
_atom_site_fract_z
_atom_type_partial_charge
C1    C     C_R   0.480760 0.439066 0.690967 0.881924
C2    C     C_R   0.470019 0.447998 0.973002 0.006786
C3    C     C_R   0.437404 0.468149 0.869161 0.098751
C4    C     C_R   0.741729 0.500663 0.500030 0.843386
C5    C     C_R   0.468667 0.530017 0.036046 0.131656
C6    C     C_R   0.416482 0.622199 0.999713 0.157152
C7    C     C_R   0.367735 0.632439 0.900957 -0.207761
C8    C     C_R   0.377551 0.556187 0.836424 -0.154826
C9    C     C_R   0.519623 0.523498 0.134090 -0.237458
C10   C     C_R   0.452643 0.687710 0.164711 -0.141218
C11   C     C_R   0.467285 0.400324 0.800383 -0.207414
C12   C     C_3   0.121487 0.501093 0.497525 0.028004
C13   C     C_R   0.321821 0.089258 0.344901 -0.197365
C14   C     C_R   0.637139 0.798638 0.641412 0.123406
C15   C     C_R   0.647680 0.898458 0.678089 -0.227251
C16   C     C_R   0.513125 0.560842 0.308951 0.860439
C17   C     C_R   0.591123 0.977345 0.626478 -0.139991
C18   C     C_R   0.526632 0.960289 0.534233 0.038866
C19   C     C_R   0.508761 0.854930 0.502523 0.104888
C20   C     C_R   0.471523 0.041587 0.476917 -0.204042
C21   C     C_R   0.385573 0.012429 0.396637 -0.059799
C22   C     C_R   0.364668 0.907183 0.369136 0.666249
C23   C     C_3   0.063399 0.470618 0.393841 -0.350264
C24   C     C_R   0.426902 0.830452 0.420687 -0.238177
C25   C     C_R   0.499060 0.151859 0.494699 0.722409
C26   C     C_R   0.345456 0.194022 0.371912 -0.131492
C27   C     C_R   0.258211 0.500140 0.498804 0.838224
C28   C     C_3   0.907896 0.416014 0.585613 -0.415448
C29   C     C_3   0.052463 0.417046 0.586418 -0.529127
C30   C     C_3   0.918524 0.471967 0.393180 -0.168084
C31   C     C_3   0.957941 0.615616 0.517348 -0.383106
C32   C     C_3   0.878711 0.502059 0.498085 0.026600
C33   C     C_2   0.882461 0.544389 0.301104 0.405795
C34   C     C_3   0.100597 0.616856 0.511732 0.528167
C35   C     C_2   0.699906 0.717909 0.702694 0.422473
C36   C     C_R   0.411488 0.701678 0.063724 -0.141225
C37   C     C_R   0.502966 0.596243 0.200323 -0.075309
C38   C     C_R   0.501911 0.301486 0.837563 -0.282981
C39   C     C_R   0.515018 0.273322 0.942145 0.699390
C40   C     C_R   0.502354 0.346602 0.009490 -0.298131
F1    F     F_    0.155783 0.693250 0.430622 -0.620140
F2    F     F_    0.546755 0.177016 0.978052 -0.652342
F3    F     F_    0.284231 0.878301 0.291517 -0.619080
F4    F     F_    0.596698 0.193902 0.554537 -0.698068
H1    H     H_    0.853081 0.332845 0.574930 0.243370
H2    H     H_    0.336370 0.566266 0.760960 0.151721
H3    H     H_    0.296429 0.254203 0.333173 0.163664
H4    H     H_    0.254181 0.068735 0.284509 0.219335
H5    H     H_    0.593961 0.048139 0.664344 0.219780
H6    H     H_    0.698490 0.915276 0.748197 0.204896
H7    H     H_    0.405054 0.750911 0.397683 0.243276
H8    H     H_    0.093493 0.438574 0.661248 0.170425
H9    H     H_    0.066717 0.333771 0.578649 0.223357
H10   H     H_    0.865174 0.387412 0.385553 0.134985
H11   H     H_    0.075257 0.387392 0.383054 0.156564
H12   H     H_    0.116717 0.527584 0.329288 0.226615
H13   H     H_    0.934223 0.681914 0.460937 0.253385
H14   H     H_    0.934464 0.633158 0.594788 0.111644
H15   H     H_    0.145745 0.642707 0.583987 0.067204
H16   H     H_    0.798051 0.514186 0.257465 0.043424
H17   H     H_    0.731032 0.655011 0.669488 0.114628
H18   H     H_    0.439164 0.744892 0.215739 0.190418
H19   H     H_    0.323586 0.700239 0.873031 0.152958
H20   H     H_    0.370968 0.771888 0.037039 0.174163
H21   H     H_    0.568589 0.459470 0.162789 0.146621
H22   H     H_    0.522846 0.247653 0.785530 0.204006
H23   H     H_    0.515144 0.320626 0.089719 0.166133
H24   H     H_    0.877851 0.433893 0.661142 0.181423
N1    N     N_R   0.433240 0.222190 0.444680 -0.136517
N2    N     N_R   0.566070 0.776970 0.554790 -0.155882
O1    O     O_R   0.468120 0.366740 0.627160 -0.573079
O2    O     O_2   0.719497 0.721694 0.794065 -0.578239
O3    O     O_R   0.510770 0.544830 0.662520 -0.641720
O4    O     O_R   0.663880 0.410950 0.482330 -0.566229
O5    O     O_R   0.706530 0.589040 0.517700 -0.657369
O6    O     O_R   0.489230 0.455170 0.337480 -0.623916
O7    O     O_R   0.531880 0.633260 0.372840 -0.627783
O8    O     O_R   0.293470 0.410960 0.482300 -0.626270
O9    O     O_R   0.336120 0.589050 0.517670 -0.622937
O10   O     O_2   0.944236 0.637274 0.276567 -0.481913
Zn1   Zn    Zn3+2 0.471520 0.381090 0.476390 0.987054
Zn2   Zn    Zn3+2 0.528480 0.618910 0.523610 0.936339

loop_
_geom_bond_atom_site_label_1
_geom_bond_atom_site_label_2
_ccdc_geom_bond_type
C12   C29   S    
C1    C11   S    
C27   O8    A    
C7    C8    A    
C30   H10   S    
C12   C23   S    
C1    O1    A    
C10   C37   A    
C31   H14   S    
C28   C29   S    
C28   H24   S    
C18   C19   A    
C27   O9    A    
C5    C6    A    
C20   C25   A    
C16   O7    A    
C15   H6    S    
C23   H12   S    
C4    O5    A    
C22   F3    S    
C40   H23   S    
C4    O4    A    
C16   C37   S    
C24   H7    S    
C21   C22   A    
C14   N2    A    
C10   H18   S    
C34   F1    S    
C25   F4    S    
C39   F2    S    
C8    H2    S    
C28   H1    S    
C12   C27   S    
C23   C30   S    
C38   H22   S    
C28   C32   S    
C3    C11   A    
C35   H17   S    
C3    C8    A    
C17   H5    S    
C39   C40   A    
C11   C38   A    
C5    C9    A    
O9    Zn2   S    
C31   C32   S    
C9    C37   A    
C17   C18   A    
C31   C34   S    
C13   C21   A    
C33   O10   D    
C7    H19   S    
C4    C32   S    
C26   H3    S    
C35   O2    D    
C33   H16   S    
C34   H15   S    
C22   C24   A    
C13   C26   A    
C2    C5    A    
C25   N1    A    
O4    Zn1   S    
C12   C34   S    
O3    Zn2   S    
C14   C35   S    
C15   C17   A    
C30   C33   S    
C16   O6    A    
O6    Zn1   S    
C13   H4    S    
O5    Zn2   S    
C23   H11   S    
C6    C7    A    
C1    O3    A    
C31   H13   S    
C19   C24   A    
C30   C32   S    
O8    Zn1   S    
C38   C39   A    
C29   H9    S    
O7    Zn2   S    
C6    C36   A    
C2    C3    A    
C18   C20   A    
N2    Zn2   S    
C9    H21   S    
N1    Zn1   S    
C2    C40   A    
C20   C21   A    
C26   N1    A    
C14   C15   A    
C19   N2    A    
C10   C36   A    
C36   H20   S    
O1    Zn1   S    
C29   H8    S    
