data_mof_unit_44473.cif
_audit_creation_date              2012-12-10T17:47:03-0500
_audit_creation_method            fapswitch 2.2
_symmetry_space_group_name_H-M    P1
_symmetry_Int_Tables_number       1
_space_group_crystal_system       triclinic
_cell_length_a                    10.003231
_cell_length_b                    10.570294
_cell_length_c                    13.597864
_cell_angle_alpha                 90.301063
_cell_angle_beta                  83.783896
_cell_angle_gamma                 91.65113
_cell_volume                      1428.74840792

loop_
_atom_site_label
_atom_site_type_symbol
_atom_type_description
_atom_site_fract_x
_atom_site_fract_y
_atom_site_fract_z
_atom_type_partial_charge
C1    C     C_R   0.502439 0.741269 0.500417 0.916500
C2    C     C_1   0.461000 0.510461 0.788405 -0.125263
C3    C     C_R   0.281948 0.899497 0.594186 0.157675
C4    C     C_R   0.153956 0.949086 0.590438 0.133122
C5    C     C_R   0.134113 0.041279 0.519816 0.034726
C6    C     C_R   0.246134 0.097709 0.463813 0.311326
C7    C     C_R   0.376415 0.058964 0.478985 -0.028160
C8    C     C_R   0.390598 0.944529 0.525823 -0.068182
C9    C     C_R   0.508827 0.877807 0.495355 -0.203906
C10   C     C_R   0.619400 0.939571 0.437965 0.257442
C11   C     C_R   0.614017 0.069207 0.421363 0.221539
C12   C     C_R   0.476664 0.501201 0.685145 0.924254
C13   C     C_R   0.494961 0.130552 0.452247 -0.192158
C14   C     C_R   0.860380 0.561609 0.676596 0.270636
C15   C     C_R   0.914357 0.534704 0.765177 0.233986
C16   C     C_R   0.024461 0.456930 0.763195 -0.297483
C17   C     C_R   0.095999 0.424399 0.673178 0.292338
C18   C     C_R   0.055303 0.471540 0.584276 -0.024721
C19   C     C_R   0.918330 0.506360 0.587121 -0.025895
C20   C     C_R   0.942196 0.516652 0.414780 0.156197
C21   C     C_R   0.083947 0.536807 0.418690 0.310779
C22   C     C_R   0.500040 0.262729 0.481852 0.947923
C23   C     C_R   0.523122 0.497198 0.314894 0.918596
C24   C     C_1   0.536702 0.478582 0.212403 -0.092199
C25   C     C_2   0.531214 0.447992 0.023208 0.096759
C26   C     C_2   0.452387 0.526107 0.979399 0.110286
C27   C     C_1   0.452424 0.519043 0.875777 0.134128
C28   C     C_1   0.539551 0.461572 0.125990 -0.009194
H1    H     H_    0.056061 0.423455 0.831944 0.220080
N1    N     N_R   0.857120 0.501200 0.500900 -0.096518
N2    N     N_R   0.142720 0.501280 0.500940 -0.119143
O1    O     O_R   0.385310 0.683220 0.500000 -0.612394
O2    O     O_R   0.614640 0.683250 0.500010 -0.537865
O3    O     O_R   0.368830 0.499960 0.640340 -0.610799
O4    O     O_R   0.598160 0.499980 0.640350 -0.584759
O5    O     O_R   0.385360 0.316750 0.499990 -0.560529
O6    O     O_R   0.614690 0.316780 0.500000 -0.589939
O7    O     O_R   0.401840 0.500020 0.359650 -0.559518
O8    O     O_R   0.631170 0.500040 0.359660 -0.598538
Zn1   Zn    Zn3+2 0.346870 0.499980 0.499990 1.029451
Zn2   Zn    Zn3+2 0.653130 0.500020 0.500010 1.045093
N3    N     N_3   0.374472 0.621933 0.032314 -0.414118
H2    H     H_    0.439872 0.684176 0.065021 0.224537
H3    H     H_    0.309491 0.578497 0.088376 0.228549
Br1   Br    Br    0.758143 0.713317 0.676015 -0.461145
Br2   Br    Br    0.841942 0.602419 0.890254 -0.442213
Br3   Br    Br    0.200383 0.276390 0.678611 -0.507956
Br4   Br    Br    0.182041 0.642328 0.319184 -0.450456
N4    N     N_3   0.605335 0.351130 0.968677 -0.420804
H4    H     H_    0.571688 0.263762 0.999080 0.215261
H5    H     H_    0.706591 0.363038 0.980101 0.236298
Br5   Br    Br    0.775668 0.852696 0.377297 -0.380556
N5    N     N_3   0.301103 0.815512 0.674155 -0.399191
H6    H     H_    0.402996 0.801385 0.679363 0.187696
H7    H     H_    0.252965 0.728582 0.662305 0.223437
N6    N     N_3   0.043297 0.901440 0.656307 -0.393074
H8    H     H_    0.971735 0.866275 0.612181 0.248479
H9    H     H_    0.001762 0.977440 0.697310 0.246517
N7    N     N_3   0.000505 0.079770 0.508806 -0.418385
H10   H     H_    0.981966 0.060189 0.436135 0.283744
H11   H     H_    0.995856 0.177509 0.520309 0.235649
Br6   Br    Br    0.219106 0.208836 0.355710 -0.465224
Br7   Br    Br    0.758956 0.159851 0.343935 -0.471336
N8    N     N_3   0.887138 0.518230 0.321836 -0.345822
H12   H     H_    0.959133 0.541825 0.263167 0.223693
H13   H     H_    0.858223 0.424810 0.307593 0.230746

loop_
_geom_bond_atom_site_label_1
_geom_bond_atom_site_label_2
_ccdc_geom_bond_type
C20   N8    S    
C23   C24   S    
N1    Zn2   S    
C6    C7    A    
C22   O6    A    
C23   O7    A    
C22   O5    A    
C9    C10   A    
C7    C13   A    
C21   Br4   S    
C2    C12   S    
N8    H12   S    
C6    Br6   S    
O1    Zn1   S    
C17   C18   A    
C16   H1    S    
C10   Br5   S    
N7    H10   S    
O8    Zn2   S    
C20   N1    A    
N5    H6    S    
N2    Zn1   S    
C12   O4    A    
O7    Zn1   S    
C3    N5    S    
C26   C27   S    
C2    C27   T    
N3    H3    S    
C23   O8    A    
C4    C5    A    
N6    H9    S    
C13   C22   S    
N4    H4    S    
C14   Br1   S    
C11   Br7   S    
N5    H7    S    
C3    C8    A    
O6    Zn2   S    
C5    C6    A    
O4    Zn2   S    
C25   N4    S    
N7    H11   S    
C11   C13   A    
C7    C8    A    
N3    H2    S    
C1    O2    A    
C12   O3    A    
C15   C16   A    
C17   Br3   S    
O5    Zn1   S    
C1    C9    S    
O2    Zn2   S    
C26   N3    S    
C21   N2    A    
C20   C21   A    
C18   C19   A    
C10   C11   A    
N6    H8    S    
C5    N7    S    
C14   C15   A    
O3    Zn1   S    
C18   N2    A    
C15   Br2   S    
N4    H5    S    
C25   C26   D    
C19   N1    A    
C14   C19   A    
C1    O1    A    
C4    N6    S    
C3    C4    A    
C24   C28   T    
C16   C17   A    
C8    C9    A    
C25   C28   S    
N8    H13   S    
