data_mof_unit_31560.cif
_audit_creation_date              2012-12-10T17:29:15-0500
_audit_creation_method            fapswitch 2.2
_symmetry_space_group_name_H-M    P1
_symmetry_Int_Tables_number       1
_space_group_crystal_system       triclinic
_cell_length_a                    11.999373
_cell_length_b                    12.894573
_cell_length_c                    13.146168
_cell_angle_alpha                 87.465775
_cell_angle_beta                  113.312609
_cell_angle_gamma                 93.328172
_cell_volume                      1864.35081537

loop_
_atom_site_label
_atom_site_type_symbol
_atom_type_description
_atom_site_fract_x
_atom_site_fract_y
_atom_site_fract_z
_atom_type_partial_charge
C1    C     C_R   0.477359 0.299476 0.498049 0.880391
C2    C     C_R   0.608425 0.480781 0.828358 -0.120270
C3    C     C_R   0.535584 0.811841 0.502080 -0.061523
C4    C     C_R   0.565808 0.490508 0.708308 0.864193
C5    C     C_R   0.464073 0.188192 0.497250 -0.052148
C6    C     C_R   0.354407 0.029453 0.509739 -0.218317
C7    C     C_R   0.362161 0.136945 0.506234 -0.210228
C8    C     C_R   0.557253 0.132740 0.490160 -0.278198
C9    C     C_R   0.550690 0.026003 0.494286 0.183612
C10   C     C_R   0.448611 0.974031 0.504374 0.185938
C11   C     C_R   0.442147 0.867298 0.508691 -0.281264
C12   C     C_R   0.555579 0.475434 0.988110 0.086264
C13   C     C_R   0.637411 0.863096 0.492936 -0.198924
C14   C     C_R   0.644934 0.970584 0.488997 -0.218066
C15   C     C_R   0.014502 0.612642 0.410461 0.370230
C16   C     C_R   0.522582 0.700530 0.501833 0.893949
C17   C     C_R   0.135590 0.600215 0.420231 -0.141233
C18   C     C_R   0.153408 0.449806 0.534536 -0.058120
C19   C     C_R   0.034719 0.459630 0.530344 0.023379
C20   C     C_R   0.964561 0.541784 0.467894 -0.005036
C21   C     C_R   0.845056 0.550024 0.463826 -0.013820
C22   C     C_R   0.866375 0.401286 0.581141 0.014029
C23   C     C_R   0.527107 0.448317 0.877900 0.092736
C24   C     C_R   0.984717 0.389439 0.587393 -0.296178
C25   C     C_R   0.433439 0.503720 0.291524 0.876659
C26   C     C_R   0.257632 0.404270 0.006991 -0.197955
C27   C     C_R   0.391586 0.490558 0.173205 -0.058398
C28   C     C_R   0.726859 0.516621 0.893937 -0.192833
C29   C     C_R   0.761667 0.527215 0.007003 -0.146806
C30   C     C_R   0.676432 0.509812 0.053846 -0.194823
C31   C     C_3   0.962627 0.723096 0.254817 0.082314
C32   C     C_3   0.851776 0.778435 0.175420 -0.814140
C33   C     C_R   0.461950 0.466942 0.027876 0.080349
C34   C     C_R   0.348858 0.415597 0.965231 0.181133
C35   C     C_R   0.329616 0.374854 0.863009 -0.251482
C36   C     C_R   0.417731 0.390935 0.819708 -0.202731
C37   C     C_R   0.477139 0.510309 0.127581 -0.253721
C38   C     C_R   0.279869 0.440031 0.112106 -0.203246
H1    H     H_    0.212939 0.423788 0.147510 0.154780
H2    H     H_    0.178109 0.655502 0.381060 0.132482
H3    H     H_    0.245673 0.332191 0.815622 0.137963
H4    H     H_    0.207634 0.386671 0.581939 0.125972
H5    H     H_    0.171464 0.364317 0.960381 0.135764
H6    H     H_    0.557699 0.556856 0.174067 0.145553
H7    H     H_    0.791460 0.539258 0.857361 0.158545
H8    H     H_    0.708294 0.521052 0.141875 0.140385
H9    H     H_    0.853668 0.553130 0.057579 0.137382
H10   H     H_    0.400223 0.356676 0.740928 0.155902
H11   H     H_    0.363567 0.827696 0.516586 0.163888
H12   H     H_    0.709942 0.820380 0.487557 0.170646
H13   H     H_    0.973205 0.653576 0.212560 0.120850
H14   H     H_    0.043518 0.777108 0.273291 0.149488
H15   H     H_    0.840561 0.850391 0.213187 0.258016
H16   H     H_    0.863037 0.799403 0.097082 0.209194
H17   H     H_    0.769013 0.726795 0.156380 0.252525
H18   H     H_    0.275734 0.989849 0.517256 0.143279
H19   H     H_    0.723573 0.010185 0.481415 0.142085
H20   H     H_    0.289775 0.179671 0.511879 0.156629
H21   H     H_    0.635814 0.172354 0.482245 0.161089
H22   H     H_    0.788616 0.611583 0.415312 0.166262
H23   H     H_    0.828608 0.346562 0.625034 0.128112
H24   H     H_    0.036574 0.325665 0.636355 0.133335
N1    N     N_R   0.798200 0.480260 0.519790 -0.108732
N2    N     N_R   0.201820 0.519740 0.480210 -0.107643
O1    O     O_R   0.579910 0.341070 0.505280 -0.626692
O2    O     O_R   0.388440 0.353740 0.492580 -0.632602
O3    O     O_R   0.643280 0.490550 0.663120 -0.616205
O4    O     O_R   0.451810 0.503220 0.650420 -0.604077
O5    O     O_R   0.611560 0.646260 0.507420 -0.626569
O6    O     O_R   0.420090 0.658930 0.494720 -0.621874
O7    O     O_R   0.548190 0.496780 0.349580 -0.614909
O8    O     O_R   0.356720 0.509450 0.336880 -0.618251
O9    O     O_3   0.946256 0.696330 0.353561 -0.627637
Zn1   Zn    Zn3+2 0.627850 0.491540 0.508480 0.940820
Zn2   Zn    Zn3+2 0.372150 0.508460 0.491520 0.938531

loop_
_geom_bond_atom_site_label_1
_geom_bond_atom_site_label_2
_ccdc_geom_bond_type
C35   C36   A    
C31   H14   S    
O4    Zn2   S    
C12   C23   A    
C29   H9    S    
C1    C5    S    
C28   C29   A    
C34   C35   A    
C18   H4    S    
C8    H21   S    
C38   H1    S    
C31   O9    S    
C27   C38   A    
C18   C19   A    
C22   N1    A    
C26   C34   A    
C19   C20   A    
C8    C9    A    
C1    O1    A    
C25   O7    A    
C9    C10   A    
C32   H17   S    
C3    C13   A    
C13   C14   A    
O8    Zn2   S    
C32   H16   S    
C26   H5    S    
C33   C34   A    
C15   C20   A    
C28   H7    S    
C16   O6    A    
C21   H22   S    
C31   H13   S    
C25   O8    A    
C26   C38   A    
C4    O4    A    
C33   C37   A    
O1    Zn1   S    
C17   H2    S    
C2    C4    S    
C9    C14   A    
C29   C30   A    
C11   H11   S    
C5    C8    A    
C31   C32   S    
C1    O2    A    
O5    Zn1   S    
O3    Zn1   S    
C15   O9    S    
C22   C24   A    
C32   H15   S    
O6    Zn2   S    
C5    C7    A    
C15   C17   A    
C14   H19   S    
C24   H24   S    
C7    H20   S    
C12   C30   A    
C30   H8    S    
C16   O5    A    
C6    H18   S    
C4    O3    A    
C6    C10   A    
O7    Zn1   S    
C6    C7    A    
N1    Zn1   S    
C25   C27   S    
C37   H6    S    
C19   C24   A    
C17   N2    A    
C22   H23   S    
C18   N2    A    
C27   C37   A    
O2    Zn2   S    
N2    Zn2   S    
C36   H10   S    
C35   H3    S    
C21   N1    A    
C3    C11   A    
C10   C11   A    
C13   H12   S    
C20   C21   A    
C23   C36   A    
C2    C23   A    
C2    C28   A    
C12   C33   A    
C3    C16   S    
