data_mof_unit_29276.cif
_audit_creation_date              2012-12-11T14:56:28-0500
_audit_creation_method            fapswitch 2.2
_symmetry_space_group_name_H-M    P1
_symmetry_Int_Tables_number       1
_space_group_crystal_system       triclinic
_cell_length_a                    10.533013
_cell_length_b                    10.695389
_cell_length_c                    17.069166
_cell_angle_alpha                 80.343141
_cell_angle_beta                  89.955845
_cell_angle_gamma                 119.36878
_cell_volume                      1644.30902071

loop_
_atom_site_label
_atom_site_type_symbol
_atom_type_description
_atom_site_fract_x
_atom_site_fract_y
_atom_site_fract_z
_atom_type_partial_charge
C1    C     C_R   0.223256 0.854729 0.128814 0.546121
C2    C     C_R   0.826890 0.455815 0.253113 0.183962
C3    C     C_R   0.806517 0.421337 0.177417 -0.136360
C4    C     C_R   0.667260 0.362324 0.150113 -0.053935
C5    C     C_1   0.669493 0.848626 0.205295 -0.032772
C6    C     C_1   0.680299 0.839117 0.274860 -0.036594
C7    C     C_1   0.182876 0.827442 0.211516 -0.018094
C8    C     C_1   0.153868 0.821643 0.280198 0.012841
C9    C     C_1   0.622324 0.268033 0.775407 -0.000330
C10   C     C_1   0.635950 0.311356 0.705079 -0.034873
C11   C     C_R   0.494749 0.790146 0.772572 -0.128107
C12   C     C_R   0.638627 0.282590 0.085337 0.561509
C13   C     C_R   0.509340 0.772203 0.695541 -0.124957
C14   C     C_R   0.645016 0.857246 0.650082 0.025071
C15   C     C_R   0.759123 0.974762 0.678180 -0.121227
C16   C     C_R   0.743027 0.994767 0.755249 -0.132012
C17   C     C_R   0.613595 0.895935 0.804274 0.011204
C18   C     C_R   0.242802 0.973355 0.756493 0.227237
C19   C     C_R   0.234121 0.957264 0.677754 -0.123509
C20   C     C_R   0.165255 0.818256 0.659659 -0.004853
C21   C     C_R   0.121775 0.693876 0.719466 -0.155427
C22   C     C_R   0.137141 0.708715 0.798374 -0.194803
C23   C     C_R   0.641242 0.858199 0.125142 0.564856
C24   C     C_R   0.194514 0.847299 0.817325 0.063115
C25   C     C_R   0.686193 0.810150 0.357323 0.539066
C26   C     C_R   0.726630 0.459357 0.382940 0.595405
C27   C     C_R   0.104976 0.810932 0.359550 0.555421
C28   C     C_R   0.674408 0.805229 0.582456 0.552114
C29   C     C_R   0.675634 0.376248 0.623357 0.550488
C30   C     C_R   0.102212 0.802709 0.584893 0.552493
C31   C     C_R   0.226442 0.865957 0.898045 0.553502
C32   C     C_R   0.614032 0.222116 0.858839 0.551261
C33   C     C_R   0.599819 0.895230 0.889135 0.545919
C34   C     C_R   0.552402 0.358117 0.192962 -0.085748
C35   C     C_R   0.572029 0.400471 0.266403 0.177674
C36   C     C_R   0.707443 0.439358 0.299895 0.047786
Cr1   Cr    Cr6+3 0.402240 0.783890 0.019450 1.018784
Cr2   Cr    Cr6+3 0.382360 0.097900 0.991800 1.063592
Cr3   Cr    Cr6+3 0.715380 0.118170 0.988700 1.027380
Cr4   Cr    Cr6+3 0.936650 0.882420 0.465510 1.055259
Cr5   Cr    Cr6+3 0.605770 0.565620 0.493360 1.037368
Cr6   Cr    Cr6+3 0.921340 0.550490 0.496380 1.056615
H1    H     H_    0.445084 0.315911 0.171269 0.171878
H2    H     H_    0.269007 0.052779 0.630849 0.124660
H3    H     H_    0.067422 0.584947 0.706009 0.153737
H4    H     H_    0.102828 0.612511 0.844600 0.139463
H5    H     H_    0.897297 0.429397 0.142675 0.140662
H6    H     H_    0.393423 0.714547 0.809292 0.142550
H7    H     H_    0.418378 0.683133 0.674542 0.140729
H8    H     H_    0.864078 0.043788 0.643266 0.140752
H9    H     H_    0.834635 0.080434 0.777922 0.144763
O1    O     O_R   0.521780 0.757110 0.108900 -0.498832
O2    O     O_R   0.513330 0.228330 0.898660 -0.454854
O3    O     O_R   0.739230 0.266130 0.888050 -0.526201
O4    O     O_R   0.712580 0.991850 0.918770 -0.509114
O5    O     O_3   0.499990 0.999980 0.999980 -0.306244
O6    O     O_R   0.083770 0.911170 0.376030 -0.495837
O7    O     O_R   0.808770 0.880340 0.383890 -0.488354
O8    O     O_R   0.584340 0.689460 0.394160 -0.536484
O9    O     O_R   0.614320 0.443940 0.423590 -0.490135
O10   O     O_R   0.805020 0.410040 0.421340 -0.448205
O11   O     O_R   0.049240 0.685450 0.403290 -0.478477
O12   O     O_R   0.275160 0.783810 0.101120 -0.497290
O13   O     O_R   0.077520 0.903010 0.551800 -0.511884
O14   O     O_R   0.802980 0.872780 0.546830 -0.498034
O15   O     O_R   0.578090 0.681300 0.569920 -0.516366
O16   O     O_R   0.608530 0.436370 0.586530 -0.492503
O17   O     O_R   0.798770 0.401880 0.597100 -0.516151
O18   O     O_R   0.043450 0.677890 0.566230 -0.509182
O19   O     O_3   0.821250 0.666180 0.485090 -0.290091
O20   O     O_R   0.237900 0.972600 0.090980 -0.509204
O21   O     O_R   0.511190 0.220540 0.061620 -0.500618
O22   O     O_R   0.736920 0.257720 0.063840 -0.512068
O23   O     O_R   0.710450 0.984050 0.081720 -0.486053
O24   O     O_R   0.524090 0.765520 0.933110 -0.500517
O25   O     O_R   0.277300 0.791600 0.938160 -0.545558
O26   O     O_R   0.240210 0.981010 0.915190 -0.444834
O27   O     O_3   0.453483 0.391936 0.305779 -0.665733
H10   H     H_    0.486607 0.490400 0.317165 0.352895
O28   O     O_3   0.960293 0.498558 0.283858 -0.677840
H11   H     H_    0.030394 0.500553 0.244157 0.325570
O29   O     O_3   0.296118 0.110604 0.774853 -0.678439
H12   H     H_    0.317171 0.183968 0.725408 0.314996

loop_
_geom_bond_atom_site_label_1
_geom_bond_atom_site_label_2
_ccdc_geom_bond_type
C33   O4    A    
C30   O13   A    
C35   C36   A    
C16   H9    S    
C31   O25   A    
C7    C8    T    
Cr5   O16   S    
Cr2   O21   S    
C20   C30   S    
C1    O20   A    
Cr4   O19   S    
C18   C24   A    
C21   C22   A    
C26   O10   A    
C34   C35   A    
C5    C6    T    
Cr3   O23   S    
Cr3   O3    S    
C15   C16   A    
Cr6   O19   S    
C18   C19   A    
C15   H8    S    
C9    C32   S    
C29   O16   A    
Cr1   O5    S    
C33   O24   A    
Cr3   O4    S    
C19   C20   A    
C16   C17   A    
C4    C12   S    
C9    C10   T    
Cr6   O11   S    
Cr1   O24   S    
C13   C14   A    
Cr6   O17   S    
C11   H6    S    
C17   C33   S    
C1    O12   A    
C32   O3    A    
Cr1   O12   S    
C31   O26   A    
C21   H3    S    
C4    C34   A    
Cr4   O7    S    
Cr5   O8    S    
C27   O6    A    
Cr1   O1    S    
O27   H10   S    
Cr6   O18   S    
C28   O15   A    
C27   O11   A    
C29   O17   A    
Cr3   O5    S    
C5    C23   S    
Cr6   O10   S    
C13   H7    S    
C26   C36   S    
C22   H4    S    
Cr1   O25   S    
Cr4   O14   S    
C22   C24   A    
C25   O7    A    
C23   O23   A    
C3    C4    A    
C32   O2    A    
C30   O18   A    
C19   H2    S    
C2    C36   A    
Cr2   O20   S    
C11   C17   A    
Cr4   O6    S    
C1    C7    S    
C34   H1    S    
Cr5   O9    S    
O28   H11   S    
Cr5   O15   S    
Cr2   O26   S    
C35   O27   S    
Cr4   O13   S    
C2    C3    A    
C24   C31   S    
C11   C13   A    
C10   C29   S    
C23   O1    A    
Cr2   O2    S    
C3    H5    S    
C18   O29   S    
C28   O14   A    
Cr3   O22   S    
C12   O21   A    
C2    O28   S    
C6    C25   S    
Cr2   O5    S    
C20   C21   A    
O29   H12   S    
C8    C27   S    
C14   C15   A    
C25   O8    A    
C14   C28   S    
C12   O22   A    
C26   O9    A    
Cr5   O19   S    
