data_mof_unit_10101.cif
_audit_creation_date              2012-12-10T20:20:41-0500
_audit_creation_method            fapswitch 2.2
_symmetry_space_group_name_H-M    P1
_symmetry_Int_Tables_number       1
_space_group_crystal_system       triclinic
_cell_length_a                    19.217245
_cell_length_b                    18.407297
_cell_length_c                    10.712894
_cell_angle_alpha                 90.079277
_cell_angle_beta                  89.959642
_cell_angle_gamma                 90.031677
_cell_volume                      3789.54758481

loop_
_atom_site_label
_atom_site_type_symbol
_atom_type_description
_atom_site_fract_x
_atom_site_fract_y
_atom_site_fract_z
_atom_type_partial_charge
C1    C     C_R   0.365462 0.500010 0.499141 0.931314
C2    C     C_R   0.634347 0.500144 0.499640 0.927752
C3    C     C_R   0.812042 0.556549 0.398210 0.515875
C4    C     C_R   0.187186 0.562296 0.409768 0.518176
C5    C     C_R   0.739936 0.554362 0.413137 -0.399480
C6    C     C_R   0.259216 0.559454 0.425423 -0.412301
C7    C     C_R   0.709262 0.501015 0.488238 -0.200195
C8    C     C_R   0.290267 0.500483 0.486380 -0.184453
C9    C     C_R   0.963150 0.563838 0.494928 -0.160325
C10   C     C_R   0.035125 0.564273 0.494539 -0.138585
C11   C     C_R   0.071504 0.505670 0.442730 0.193634
C12   C     C_R   0.927391 0.504458 0.444736 0.195296
C13   C     C_R   0.035625 0.446681 0.390725 -0.203590
C14   C     C_R   0.963423 0.445963 0.392144 -0.184143
C15   C     C_R   0.557094 0.726315 0.540978 0.037934
C16   C     C_R   0.443237 0.726001 0.457261 0.046787
C17   C     C_R   0.558489 0.802532 0.539966 -0.311549
C18   C     C_R   0.442126 0.802205 0.456039 -0.307991
C19   C     C_R   0.500291 0.841736 0.497838 0.181775
C20   C     C_R   0.440988 0.961672 0.539805 -0.303401
C21   C     C_R   0.558626 0.962918 0.459879 -0.318850
C22   C     C_R   0.498677 0.499903 0.260200 0.886142
C23   C     C_R   0.500365 0.499942 0.739836 0.895646
C24   C     C_R   0.440840 0.038102 0.544306 0.478506
C25   C     C_R   0.558054 0.039481 0.459324 0.467423
C26   C     C_R   0.499182 0.077659 0.502537 0.004554
C27   C     C_R   0.499932 0.923131 0.498738 -0.003154
C28   C     C_R   0.533559 0.197753 0.597149 0.355462
C29   C     C_R   0.463794 0.196995 0.407166 0.359510
C30   C     C_R   0.534985 0.274484 0.590939 -0.153792
C31   C     C_R   0.464208 0.274009 0.410286 -0.187268
C32   C     C_R   0.498567 0.158886 0.502699 0.008911
C33   C     C_R   0.498362 0.563280 0.062424 -0.142564
C34   C     C_R   0.503106 0.563176 0.938114 -0.142373
C35   C     C_R   0.496026 0.499105 0.129181 -0.079863
C36   C     C_R   0.499679 0.499087 0.870917 -0.082103
C37   C     C_R   0.492894 0.432681 0.064428 -0.208444
C38   C     C_R   0.494126 0.432713 0.935197 -0.205447
C39   C     C_3   0.510759 0.644683 0.928231 0.734506
C40   C     C_3   0.503645 0.644774 0.074054 0.735242
C41   C     C_R   0.750168 0.448852 0.549137 0.487043
C42   C     C_R   0.249735 0.441792 0.528388 0.482480
C43   C     C_R   0.821696 0.448629 0.529222 -0.364594
C44   C     C_R   0.177836 0.444537 0.512504 -0.372944
C45   C     C_R   0.852282 0.502176 0.454530 -0.061623
C46   C     C_R   0.146913 0.503658 0.452178 -0.049870
H1    H     H_    0.489983 0.381056 0.112668 0.152089
H2    H     H_    0.491259 0.381122 0.886609 0.153809
H3    H     H_    0.601759 0.696661 0.574898 0.135055
H4    H     H_    0.398509 0.696052 0.424304 0.124821
H5    H     H_    0.604225 0.830540 0.574177 0.147899
H6    H     H_    0.396389 0.829945 0.421432 0.145545
H7    H     H_    0.395405 0.932450 0.571611 0.161348
H8    H     H_    0.604723 0.934695 0.427697 0.161311
H9    H     H_    0.564022 0.305812 0.658272 0.161317
H10   H     H_    0.435645 0.305272 0.342203 0.135716
H11   H     H_    0.853615 0.408146 0.575094 0.174918
H12   H     H_    0.145742 0.401448 0.550434 0.168863
H13   H     H_    0.707601 0.593107 0.364032 0.187956
H14   H     H_    0.291250 0.602509 0.387600 0.169165
H15   H     H_    0.935327 0.608508 0.537964 0.127426
H16   H     H_    0.062339 0.608985 0.538474 0.134176
H17   H     H_    0.063562 0.400971 0.351289 0.139108
H18   H     H_    0.935654 0.399795 0.353881 0.145011
N1    N     N_R   0.500000 0.689440 0.500000 -0.077290
N2    N     N_R   0.500000 0.310560 0.500000 -0.115731
O1    O     O_R   0.398180 0.560840 0.499970 -0.640509
O2    O     O_R   0.601820 0.560840 0.500030 -0.646198
O3    O     O_R   0.398180 0.439210 0.499910 -0.588812
O4    O     O_R   0.601820 0.439210 0.500090 -0.567371
O5    O     O_R   0.499990 0.560820 0.316770 -0.584785
O6    O     O_R   0.500010 0.560820 0.683230 -0.581286
O7    O     O_R   0.499990 0.439200 0.316710 -0.644386
O8    O     O_R   0.500010 0.439200 0.683290 -0.637826
Zn1   Zn    Zn3+2 0.500000 0.581210 0.500000 0.985150
Zn2   Zn    Zn3+2 0.500000 0.418790 0.500000 0.958322
O9    O     O_3   0.382779 0.074131 0.588527 -0.611553
C47   C     C_3   0.387727 0.082579 0.719855 0.088851
H19   H     H_    0.438291 0.064536 0.760932 0.097194
H20   H     H_    0.382902 0.141251 0.742576 0.148095
C48   C     C_3   0.329071 0.040809 0.784526 -0.369353
H21   H     H_    0.332150 0.982396 0.758881 0.210066
H22   H     H_    0.335803 0.045221 0.887278 0.180011
C49   C     C_3   0.257467 0.070361 0.749644 -0.788119
H23   H     H_    0.252822 0.128144 0.778329 0.237926
H24   H     H_    0.216608 0.038557 0.798477 0.229996
H25   H     H_    0.248740 0.065807 0.647461 0.285968
O10   O     O_3   0.616610 0.077288 0.422229 -0.592729
C50   C     C_3   0.616197 0.083221 0.290764 0.079688
H26   H     H_    0.629458 0.029815 0.248103 0.103129
H27   H     H_    0.564562 0.100957 0.254284 0.142657
C51   C     C_3   0.670918 0.138665 0.249904 -0.359459
H28   H     H_    0.722613 0.122654 0.287305 0.231563
H29   H     H_    0.674251 0.138806 0.146347 0.170078
C52   C     C_3   0.653150 0.215283 0.294843 -0.748957
H30   H     H_    0.602180 0.232768 0.256599 0.221277
H31   H     H_    0.693698 0.253852 0.262279 0.233153
H32   H     H_    0.651162 0.217271 0.398398 0.295629
O11   O     O_3   0.569317 0.159202 0.688385 -0.580578
C53   C     C_3   0.555551 0.187327 0.808859 0.098634
H33   H     H_    0.499426 0.200940 0.821554 0.104789
H34   H     H_    0.587801 0.236373 0.826434 0.147256
C54   C     C_3   0.575064 0.130786 0.906140 -0.853086
H35   H     H_    0.631080 0.116798 0.897689 0.264827
H36   H     H_    0.565254 0.152746 0.001119 0.203199
H37   H     H_    0.543469 0.080855 0.893009 0.244935
O12   O     O_3   0.426885 0.156988 0.318705 -0.595577
C55   C     C_3   0.430019 0.188466 0.198500 0.096509
H38   H     H_    0.482675 0.210642 0.177063 0.114766
H39   H     H_    0.390431 0.232209 0.190269 0.142209
C56   C     C_3   0.413446 0.130603 0.101423 -0.856186
H40   H     H_    0.360630 0.108071 0.118064 0.265150
H41   H     H_    0.415198 0.154725 0.006503 0.198486
H42   H     H_    0.452154 0.085928 0.106718 0.246024
O13   O     O_3   0.575752 0.672560 0.882396 -0.659060
C57   C     C_3   0.631052 0.621849 0.879083 0.099178
H43   H     H_    0.621570 0.580465 0.805588 0.138698
H44   H     H_    0.638350 0.594857 0.970954 0.175430
C58   C     C_3   0.698113 0.661330 0.846481 -0.842410
H45   H     H_    0.709624 0.703241 0.918220 0.261899
H46   H     H_    0.741864 0.621984 0.842844 0.203406
H47   H     H_    0.693109 0.687946 0.753947 0.244345
O14   O     O_3   0.443864 0.682708 0.121343 -0.659741
C59   C     C_3   0.380923 0.642713 0.119716 0.101135
H48   H     H_    0.381798 0.600258 0.193327 0.146690
H49   H     H_    0.371232 0.617161 0.027243 0.178627
C60   C     C_3   0.320755 0.693894 0.147048 -0.845389
H50   H     H_    0.317256 0.735994 0.073299 0.258086
H51   H     H_    0.271193 0.662881 0.149687 0.234934
H52   H     H_    0.328705 0.721090 0.238416 0.236270
O15   O     O_3   0.452515 0.673918 0.864181 -0.619720
C61   C     C_3   0.457108 0.750342 0.854030 0.180160
H53   H     H_    0.501220 0.766223 0.792665 0.182613
H54   H     H_    0.463357 0.776439 0.946957 0.135017
C62   C     C_3   0.390640 0.779150 0.795213 -0.856773
H55   H     H_    0.345356 0.766746 0.855877 0.252517
H56   H     H_    0.394514 0.838926 0.782949 0.197721
H57   H     H_    0.382374 0.753477 0.702611 0.265112
O16   O     O_3   0.565747 0.662986 0.138605 -0.623622
C63   C     C_3   0.572625 0.738915 0.153763 0.189339
H58   H     H_    0.531562 0.760476 0.216972 0.185345
H59   H     H_    0.570300 0.767508 0.062539 0.133986
C64   C     C_3   0.642644 0.755159 0.213503 -0.883759
H60   H     H_    0.685352 0.735319 0.152490 0.259124
H61   H     H_    0.648539 0.814655 0.227259 0.205756
H62   H     H_    0.646185 0.727844 0.305654 0.251857
O17   O     O_3   0.720206 0.398001 0.627423 -0.591794
C65   C     C_3   0.725297 0.423781 0.751382 0.102572
H63   H     H_    0.705533 0.480520 0.760221 0.104650
H64   H     H_    0.780319 0.421747 0.783667 0.146743
C66   C     C_3   0.681634 0.375974 0.836571 -0.835867
H65   H     H_    0.699347 0.318674 0.830115 0.261058
H66   H     H_    0.686781 0.394778 0.934676 0.212261
H67   H     H_    0.626077 0.379292 0.809157 0.243872
O18   O     O_3   0.279519 0.386343 0.597282 -0.595269
C67   C     C_3   0.277837 0.321360 0.527061 0.124664
H68   H     H_    0.305671 0.328182 0.436508 0.138197
H69   H     H_    0.223416 0.303592 0.508785 0.124776
C68   C     C_3   0.313916 0.261681 0.600643 -0.792389
H70   H     H_    0.285508 0.251605 0.689216 0.239522
H71   H     H_    0.314919 0.210770 0.544953 0.247531
H72   H     H_    0.368144 0.277951 0.622895 0.255063
O19   O     O_3   0.843844 0.606820 0.320328 -0.596635
C69   C     C_3   0.827557 0.678338 0.358639 0.081452
H73   H     H_    0.829217 0.684510 0.462256 0.119521
H74   H     H_    0.775248 0.694013 0.323987 0.150458
C70   C     C_3   0.880537 0.730421 0.302917 -0.805741
H75   H     H_    0.879323 0.726990 0.199419 0.261055
H76   H     H_    0.868194 0.786942 0.331716 0.201310
H77   H     H_    0.933549 0.716390 0.336277 0.254259
O20   O     O_3   0.155688 0.618267 0.343977 -0.605113
C71   C     C_3   0.171377 0.686172 0.399185 0.079746
H78   H     H_    0.224092 0.704586 0.370928 0.141928
H79   H     H_    0.168403 0.684103 0.503143 0.127122
C72   C     C_3   0.119088 0.742214 0.353953 -0.813684
H80   H     H_    0.065689 0.725959 0.382125 0.249011
H81   H     H_    0.131183 0.796026 0.395628 0.203615
H82   H     H_    0.121461 0.746698 0.250652 0.262989

loop_
_geom_bond_atom_site_label_1
_geom_bond_atom_site_label_2
_ccdc_geom_bond_type
C31   N2    A    
O20   C71   S    
C26   C32   S    
C4    O20   S    
C62   H57   S    
C1    C8    S    
C52   H30   S    
C67   C68   S    
C63   C64   S    
C17   H5    S    
C48   H21   S    
C52   H32   S    
C18   H6    S    
O14   C59   S    
C72   H81   S    
C4    C46   A    
O9    C47   S    
C57   H43   S    
O2    Zn1   S    
C22   C35   S    
C69   H74   S    
O8    Zn2   S    
C9    H15   S    
C69   H73   S    
C35   C37   A    
C8    C42   A    
C29   C32   A    
C2    O2    A    
C21   H8    S    
C47   H20   S    
C64   H60   S    
C15   N1    A    
C40   O16   S    
C55   H38   S    
O3    Zn2   S    
C64   H61   S    
C18   C19   A    
C66   H67   S    
C20   C24   A    
C53   H33   S    
C2    C7    S    
C33   C35   A    
C54   H36   S    
O17   C65   S    
C44   H12   S    
C61   H53   S    
C13   H17   S    
C66   H65   S    
C49   H25   S    
C31   H10   S    
C50   H27   S    
C19   C27   S    
C9    C10   A    
C38   H2    S    
C71   C72   S    
C3    O19   S    
C7    C41   A    
C21   C27   A    
C14   H18   S    
C13   C14   A    
C41   C43   A    
C56   H42   S    
C10   H16   S    
C42   C44   A    
O6    Zn1   S    
C53   H34   S    
C48   H22   S    
C71   H79   S    
C70   H77   S    
C58   H46   S    
O16   C63   S    
O18   C67   S    
C33   C40   S    
C5    H13   S    
C34   C39   S    
C57   C58   S    
C6    H14   S    
C62   H55   S    
C65   C66   S    
C63   H58   S    
C70   H76   S    
C64   H62   S    
C70   H75   S    
C5    C7    A    
C72   H82   S    
C12   C45   S    
C6    C8    A    
C44   C46   A    
C25   C26   A    
C3    C45   A    
C25   O10   S    
C1    O3    A    
C1    O1    A    
C15   H3    S    
C53   C54   S    
C60   H51   S    
C37   C38   A    
C68   H70   S    
C41   O17   S    
C28   C32   A    
O12   C55   S    
N2    Zn2   S    
C51   H29   S    
C33   C34   A    
C68   H72   S    
C56   H41   S    
C55   C56   S    
C49   H23   S    
C50   C51   S    
C43   C45   A    
C30   N2    A    
C57   H44   S    
C59   C60   S    
C65   H64   S    
C28   O11   S    
C4    C6    A    
C12   C14   A    
C39   O13   S    
O4    Zn2   S    
O7    Zn2   S    
C37   H1    S    
C51   C52   S    
C23   O8    A    
C60   H50   S    
C22   O5    A    
C39   C40   S    
C48   C49   S    
C71   H78   S    
C59   H49   S    
C58   H47   S    
C62   H56   S    
C40   O14   S    
C21   C25   A    
C67   H68   S    
C56   H40   S    
C47   H19   S    
C23   O6    A    
C69   C70   S    
C24   C26   A    
C20   H7    S    
C3    C5    A    
C58   H45   S    
C52   H31   S    
C15   C17   A    
C63   H59   S    
C20   C27   A    
C30   H9    S    
N1    Zn1   S    
O11   C53   S    
C67   H69   S    
C68   H71   S    
C60   H52   S    
C28   C30   A    
C29   C31   A    
C72   H80   S    
O5    Zn1   S    
C11   C13   A    
C47   C48   S    
C39   O15   S    
C61   C62   S    
C61   H54   S    
C49   H24   S    
C36   C38   A    
C51   H28   S    
C17   C19   A    
C55   H39   S    
C42   O18   S    
C54   H37   S    
C34   C36   A    
C65   H63   S    
C66   H66   S    
O15   C61   S    
C16   H4    S    
C9    C12   A    
O19   C69   S    
C10   C11   A    
C43   H11   S    
C24   O9    S    
O1    Zn1   S    
O10   C50   S    
C16   C18   A    
C23   C36   S    
C54   H35   S    
C29   O12   S    
C11   C46   S    
C16   N1    A    
C22   O7    A    
C50   H26   S    
C2    O4    A    
O13   C57   S    
C59   H48   S    
