data_mof_unit_56802.cif
_audit_creation_date              2012-12-10T20:26:31-0500
_audit_creation_method            fapswitch 2.2
_symmetry_space_group_name_H-M    P1
_symmetry_Int_Tables_number       1
_space_group_crystal_system       triclinic
_cell_length_a                    10.68369
_cell_length_b                    10.683673
_cell_length_c                    9.881614
_cell_angle_alpha                 89.671892
_cell_angle_beta                  91.148445
_cell_angle_gamma                 90.347454
_cell_volume                      1127.63277678

loop_
_atom_site_label
_atom_site_type_symbol
_atom_type_description
_atom_site_fract_x
_atom_site_fract_y
_atom_site_fract_z
_atom_type_partial_charge
C1    C     C_R   0.504068 0.259923 0.500292 0.871536
C2    C     C_R   0.558899 0.592001 0.072685 -0.114104
C3    C     C_R   0.558692 0.592149 0.928798 -0.119366
C4    C     C_R   0.262478 0.499911 0.498790 0.929072
C5    C     C_R   0.451635 0.400739 0.928051 0.136805
C6    C     C_3   0.321062 0.352253 0.917295 -0.570385
C7    C     C_3   0.318355 0.352915 0.071307 0.351412
C8    C     C_R   0.504591 0.739982 0.499754 0.867936
C9    C     C_R   0.737402 0.507315 0.501389 0.925563
C10   C     C_2   0.931756 0.553515 0.393841 -0.185461
C11   C     C_2   0.868509 0.531199 0.506484 -0.332670
C12   C     C_R   0.524949 0.128562 0.500863 -0.101258
C13   C     C_2   0.066965 0.559768 0.399475 -0.150341
C14   C     C_2   0.130093 0.497810 0.496202 -0.328844
C15   C     C_R   0.528209 0.062964 0.622919 0.141786
C16   C     C_3   0.113173 0.387504 0.124064 -0.305393
C17   C     C_R   0.546597 0.065635 0.379258 -0.232713
C18   C     C_R   0.547086 0.936131 0.378937 -0.228913
C19   C     C_R   0.526015 0.871317 0.500233 -0.097936
C20   C     C_R   0.529083 0.935172 0.622653 0.125619
C21   C     C_3   0.443027 0.925847 0.739703 -0.471189
C22   C     C_3   0.441199 0.067501 0.739196 -0.502751
C23   C     C_R   0.450114 0.401446 0.070253 0.117745
H1    H     H_    0.884894 0.563348 0.295785 0.166495
H2    H     H_    0.085744 0.443235 0.574925 0.137969
H3    H     H_    0.554003 0.115195 0.283764 0.164892
H4    H     H_    0.554645 0.887899 0.283332 0.165123
H5    H     H_    0.350944 0.882899 0.712204 0.208786
H6    H     H_    0.490063 0.885565 0.831232 0.198489
H7    H     H_    0.348199 0.106317 0.709658 0.198997
H8    H     H_    0.106601 0.323817 0.213039 0.172635
H9    H     H_    0.087432 0.336239 0.029575 0.147230
H10   H     H_    0.043236 0.462751 0.134600 0.181492
H11   H     H_    0.486455 0.109026 0.830882 0.200971
H12   H     H_    0.604624 0.667460 0.127346 0.130466
H13   H     H_    0.604225 0.667746 0.875244 0.136735
H14   H     H_    0.256290 0.420351 0.867655 0.239357
H15   H     H_    0.315456 0.256532 0.875518 0.153165
H16   H     H_    0.312586 0.258603 0.119955 0.060538
H17   H     H_    0.912717 0.533954 0.606311 0.153839
H18   H     H_    0.115080 0.609982 0.319684 0.191858
N1    N     N_R   0.499170 0.499140 0.142800 -0.084339
N2    N     N_R   0.499170 0.499180 0.857150 -0.086441
O1    O     O_R   0.500020 0.316790 0.614690 -0.611959
O2    O     O_R   0.500000 0.316760 0.385350 -0.634154
O3    O     O_R   0.319080 0.500020 0.614640 -0.623539
O4    O     O_R   0.319070 0.499980 0.385300 -0.556217
O5    O     O_R   0.500000 0.683240 0.614650 -0.622791
O6    O     O_R   0.499980 0.683210 0.385310 -0.628267
O7    O     O_R   0.680930 0.500020 0.614700 -0.624367
O8    O     O_R   0.680920 0.499980 0.385360 -0.622213
O9    O     O_3   0.233594 0.442308 0.119479 -0.554114
Zn1   Zn    Zn3+2 0.500010 0.500020 0.653130 0.944425
Zn2   Zn    Zn3+2 0.499990 0.499980 0.346870 0.968793

loop_
_geom_bond_atom_site_label_1
_geom_bond_atom_site_label_2
_ccdc_geom_bond_type
C12   C17   A    
C7    O9    S    
C8    O5    A    
C6    C7    S    
C16   H10   S    
C16   H9    S    
C1    O1    A    
C19   C20   A    
C5    C23   A    
C12   C15   A    
O8    Zn2   S    
C3    N2    A    
C13   H18   S    
C2    C3    A    
C5    N2    A    
C6    H14   S    
C10   C13   S    
C4    O3    A    
C13   C14   D    
N1    Zn2   S    
C16   H8    S    
C5    C6    S    
C9    C11   S    
C1    O2    A    
C15   C20   A    
C23   N1    A    
C3    H13   S    
C2    N1    A    
O4    Zn2   S    
C7    C23   S    
C17   H3    S    
O1    Zn1   S    
O3    Zn1   S    
O5    Zn1   S    
C21   H5    S    
O2    Zn2   S    
C17   C18   A    
C14   H2    S    
C4    C14   S    
C11   H17   S    
C22   H11   S    
O7    Zn1   S    
C10   C11   D    
C9    O7    A    
O6    Zn2   S    
C8    C19   S    
C20   C21   S    
C18   C19   A    
C2    H12   S    
C7    H16   S    
C22   H7    S    
C10   H1    S    
C6    H15   S    
C21   C22   S    
C21   H6    S    
C8    O6    A    
N2    Zn1   S    
C15   C22   S    
C1    C12   S    
C18   H4    S    
C16   O9    S    
C4    O4    A    
C9    O8    A    
