data_mof_unit_14687.cif
_audit_creation_date              2012-12-11T15:06:54-0500
_audit_creation_method            fapswitch 2.2
_symmetry_space_group_name_H-M    P1
_symmetry_Int_Tables_number       1
_space_group_crystal_system       triclinic
_cell_length_a                    19.869864
_cell_length_b                    11.285123
_cell_length_c                    18.734221
_cell_angle_alpha                 90.530678
_cell_angle_beta                  91.383116
_cell_angle_gamma                 89.602175
_cell_volume                      4199.34773092

loop_
_atom_site_label
_atom_site_type_symbol
_atom_type_description
_atom_site_fract_x
_atom_site_fract_y
_atom_site_fract_z
_atom_type_partial_charge
C1    C     C_R   0.761370 0.521845 0.638960 0.526124
C2    C     C_3   0.247907 0.053926 0.565124 0.050043
C3    C     C_R   0.738119 0.031234 0.150173 0.532687
C4    C     C_R   0.774936 0.133286 0.858954 0.529743
C5    C     C_R   0.224937 0.132887 0.141158 0.533223
C6    C     C_R   0.275594 0.634822 0.859547 0.531393
C7    C     C_R   0.724971 0.633111 0.141049 0.534642
C8    C     C_R   0.969618 0.353435 0.853520 0.572667
C9    C     C_R   0.030303 0.353333 0.146553 0.542516
C10   C     C_R   0.470474 0.853278 0.852804 0.525329
C11   C     C_R   0.531843 0.853250 0.145510 0.533656
C12   C     C_3   0.698346 0.146575 0.461577 -0.243305
C13   C     C_3   0.255774 0.578746 0.430463 0.043158
C14   C     C_3   0.287440 0.163130 0.545493 -0.234835
C15   C     C_3   0.198024 0.655780 0.459280 -0.258915
C16   C     C_3   0.811372 0.629123 0.536250 -0.214222
C17   C     C_3   0.699091 0.145131 0.542330 -0.201497
C18   C     C_3   0.273510 0.188334 0.466766 -0.219651
C19   C     C_3   0.198697 0.653967 0.540610 -0.222092
C20   C     C_3   0.806226 0.639889 0.455142 -0.208133
C21   C     C_3   0.758194 0.940462 0.477213 -0.220907
C22   C     C_3   0.271999 0.948389 0.520111 -0.230425
C23   C     C_3   0.260905 0.462099 0.471475 -0.242971
C24   C     C_3   0.752905 0.553605 0.562803 0.044377
C25   C     C_3   0.746814 0.435727 0.518284 -0.231472
C26   C     C_3   0.764511 0.091121 0.572480 0.036401
C27   C     C_3   0.236151 0.088603 0.427430 0.053469
C28   C     C_3   0.266509 0.602499 0.569739 0.068383
C29   C     C_3   0.739928 0.587956 0.425267 0.037601
C30   C     C_3   0.759165 0.957492 0.558904 -0.271523
C31   C     C_3   0.275248 0.974927 0.439677 -0.250329
C32   C     C_3   0.269695 0.471941 0.551304 -0.252008
C33   C     C_R   0.242479 0.536043 0.355471 0.520100
C34   C     C_3   0.745481 0.455140 0.436662 -0.270129
C35   C     C_3   0.827619 0.132741 0.531332 -0.222418
C36   C     C_3   0.165925 0.075780 0.463292 -0.233819
C37   C     C_3   0.326264 0.657343 0.530707 -0.228207
C38   C     C_3   0.677895 0.630435 0.467815 -0.219051
C39   C     C_3   0.002929 0.222935 0.458151 -0.285827
C40   C     C_3   0.993739 0.211829 0.538536 -0.298609
C41   C     C_3   0.514940 0.722852 0.463101 -0.284037
C42   C     C_3   0.512780 0.723358 0.544612 -0.291991
C43   C     C_3   0.089387 0.385115 0.497489 -0.243522
C44   C     C_R   0.259487 0.025354 0.640914 0.535702
C45   C     C_3   0.952591 0.427872 0.528641 -0.217542
C46   C     C_3   0.579045 0.916549 0.488088 -0.205238
C47   C     C_3   0.437463 0.901177 0.518600 -0.187921
C48   C     C_3   0.971499 0.437298 0.450971 0.133842
C49   C     C_3   0.069557 0.369280 0.577763 0.110477
C50   C     C_3   0.460660 0.921079 0.441943 0.118528
C51   C     C_3   0.552464 0.936016 0.564445 0.098803
C52   C     C_3   0.031752 0.347914 0.440272 0.007255
C53   C     C_3   0.995134 0.335911 0.574002 0.005766
C54   C     C_3   0.528138 0.850672 0.436567 0.013168
C55   C     C_R   0.740379 0.027171 0.359092 0.533344
C56   C     C_3   0.492352 0.849012 0.570515 0.015662
C57   C     C_3   0.811964 0.010500 0.044761 -0.222981
C58   C     C_3   0.182605 0.024576 0.952425 -0.230480
C59   C     C_3   0.317455 0.523197 0.047360 -0.229829
C60   C     C_3   0.681051 0.530543 0.950711 -0.226153
C61   C     C_R   0.775239 0.122061 0.648609 0.545168
C62   C     C_R   0.225449 0.120576 0.350857 0.546344
C63   C     C_R   0.276904 0.627015 0.646817 0.594176
C64   C     C_R   0.726186 0.620326 0.350027 0.542021
C65   C     C_3   0.815064 0.016600 0.964646 -0.235630
C66   C     C_3   0.819365 0.123787 0.449314 -0.259899
C67   C     C_3   0.182416 0.021003 0.033025 -0.239761
C68   C     C_3   0.318202 0.521963 0.966552 -0.237154
C69   C     C_3   0.677963 0.536038 0.030866 -0.228825
C70   C     C_3   0.681994 0.033539 0.027641 -0.217042
C71   C     C_3   0.310060 0.014237 0.971267 -0.226983
C72   C     C_3   0.190332 0.515956 0.027528 -0.231203
C73   C     C_3   0.807196 0.511441 0.970020 -0.223878
C74   C     C_3   0.753046 0.199727 0.063186 -0.256688
C75   C     C_3   0.256475 0.201150 0.940573 -0.253992
C76   C     C_3   0.243496 0.701221 0.061939 -0.252478
C77   C     C_3   0.173084 0.071328 0.544809 -0.248482
C78   C     C_3   0.755604 0.703941 0.940369 -0.254579
C79   C     C_3   0.745735 0.067455 0.073713 0.062627
C80   C     C_3   0.252523 0.069459 0.925615 0.060445
C81   C     C_3   0.247498 0.569150 0.074586 0.062107
C82   C     C_3   0.751174 0.572105 0.924881 0.058620
C83   C     C_3   0.760516 0.103164 0.935494 0.057080
C84   C     C_3   0.238787 0.102828 0.064431 0.059386
C85   C     C_3   0.261808 0.605279 0.936267 0.058291
C86   C     C_3   0.738607 0.604627 0.063984 0.058728
C87   C     C_3   0.692392 0.045353 0.946228 -0.246571
C88   C     C_3   0.320965 0.644935 0.447733 -0.251139
C89   C     C_3   0.305746 0.040834 0.052410 -0.246032
C90   C     C_3   0.194538 0.545239 0.947132 -0.244441
C91   C     C_3   0.799646 0.525075 0.052123 -0.255439
C92   C     C_3   0.762007 0.218072 0.982003 -0.232397
C93   C     C_3   0.240553 0.218316 0.020447 -0.235691
C94   C     C_3   0.260375 0.720047 0.982625 -0.238253
C95   C     C_3   0.753769 0.721079 0.022561 -0.215770
C96   C     C_3   0.999239 0.481852 0.041037 -0.233449
C97   C     C_3   0.000613 0.481866 0.959964 -0.234883
C98   C     C_3   0.508209 0.980303 0.038953 -0.226171
C99   C     C_3   0.688882 0.625250 0.548922 -0.260124
C100  C     C_3   0.504635 0.980310 0.958188 -0.231664
C101  C     C_3   0.066271 0.290398 0.028836 -0.225701
C102  C     C_3   0.934351 0.290944 0.970943 -0.228410
C103  C     C_3   0.562576 0.770898 0.027483 -0.212539
C104  C     C_3   0.434343 0.793770 0.970063 -0.217086
C105  C     C_3   0.945712 0.284445 0.052473 -0.257033
C106  C     C_3   0.054779 0.283985 0.947078 -0.254865
C107  C     C_3   0.442809 0.798988 0.052364 -0.265923
C108  C     C_3   0.555397 0.780495 0.945501 -0.259704
C109  C     C_R   0.965511 0.341867 0.644161 0.602965
C110  C     C_3   0.752438 0.060125 0.434447 0.053169
C111  C     C_R   0.055533 0.347334 0.363663 0.536837
C112  C     C_R   0.467066 0.844640 0.644271 0.517070
C113  C     C_R   0.553341 0.847303 0.362549 0.523435
C114  C     C_3   0.009435 0.352735 0.069688 0.061897
C115  C     C_3   0.990822 0.352982 0.930377 0.055594
C116  C     C_3   0.511780 0.851650 0.068365 0.062748
C117  C     C_3   0.492089 0.852491 0.929377 0.063503
C118  C     C_R   0.760277 0.535615 0.848120 0.522577
C119  C     C_R   0.238774 0.532662 0.150833 0.525937
C120  C     C_R   0.261004 0.033449 0.848948 0.533873
Cr1   Cr    Cr6+3 0.885690 0.492860 0.745310 1.056347
Cr2   Cr    Cr6+3 0.111880 0.178590 0.246990 1.001357
Cr3   Cr    Cr6+3 0.388120 0.678590 0.753010 1.009408
Cr4   Cr    Cr6+3 0.611880 0.678590 0.246990 1.007853
Cr5   Cr    Cr6+3 0.114310 0.492860 0.254690 1.064978
Cr6   Cr    Cr6+3 0.385690 0.992860 0.745310 1.048184
Cr7   Cr    Cr6+3 0.614310 0.992860 0.254690 1.042086
Cr8   Cr    Cr6+3 0.729880 0.332270 0.748190 1.044487
Cr9   Cr    Cr6+3 0.270120 0.332270 0.251810 1.042569
Cr10  Cr    Cr6+3 0.229880 0.832270 0.748190 1.038484
Cr11  Cr    Cr6+3 0.770120 0.832270 0.251810 1.006375
Cr12  Cr    Cr6+3 0.888120 0.178590 0.753010 1.011594
H1    H     H_    0.647905 0.137096 0.437902 0.197093
H2    H     H_    0.237935 0.875045 0.526464 0.130632
H3    H     H_    0.552160 0.014253 0.936857 0.115128
H4    H     H_    0.614521 0.782549 0.046498 0.110430
H5    H     H_    0.390594 0.841151 0.951849 0.106902
H6    H     H_    0.108516 0.345326 0.041851 0.105172
H7    H     H_    0.892521 0.347639 0.959837 0.105425
H8    H     H_    0.600251 0.822867 0.922968 0.103111
H9    H     H_    0.402505 0.852641 0.076731 0.107051
H10   H     H_    0.098283 0.321351 0.918932 0.114882
H11   H     H_    0.902454 0.324006 0.080854 0.105556
H12   H     H_    0.951328 0.190581 0.069375 0.119552
H13   H     H_    0.304617 0.409336 0.453202 0.169994
H14   H     H_    0.048133 0.190484 0.929387 0.120366
H15   H     H_    0.440134 0.709000 0.075282 0.109729
H16   H     H_    0.549691 0.691164 0.920903 0.115864
H17   H     H_    0.925161 0.200910 0.949491 0.135490
H18   H     H_    0.074599 0.200286 0.049238 0.135194
H19   H     H_    0.429808 0.700105 0.953322 0.132706
H20   H     H_    0.548340 0.679284 0.040674 0.124400
H21   H     H_    0.660333 0.084713 0.558328 0.202190
H22   H     H_    0.319093 0.216699 0.439371 0.226184
H23   H     H_    0.158954 0.594991 0.556513 0.217835
H24   H     H_    0.697413 0.398444 0.530468 0.152185
H25   H     H_    0.846338 0.585922 0.432282 0.207450
H26   H     H_    0.721827 0.874469 0.458290 0.108967
H27   H     H_    0.319031 0.924388 0.543328 0.097463
H28   H     H_    0.212277 0.423247 0.458655 0.104918
H29   H     H_    0.786905 0.373672 0.533546 0.106717
H30   H     H_    0.713626 0.919465 0.582777 0.098814
H31   H     H_    0.327689 0.985272 0.423918 0.184351
H32   H     H_    0.229872 0.418254 0.573462 0.189056
H33   H     H_    0.791190 0.416835 0.411969 0.107320
H34   H     H_    0.862254 0.073024 0.426746 0.139747
H35   H     H_    0.803073 0.910914 0.583869 0.137854
H36   H     H_    0.140669 0.999050 0.564312 0.158036
H37   H     H_    0.364611 0.593473 0.427663 0.142197
H38   H     H_    0.645922 0.579492 0.573370 0.143926
H39   H     H_    0.820317 0.213032 0.424852 0.102577
H40   H     H_    0.156395 0.154177 0.569055 0.109632
H41   H     H_    0.321179 0.732976 0.421980 0.101428
H42   H     H_    0.692413 0.715629 0.572533 0.102421
H43   H     H_    0.844246 0.221522 0.548663 0.103143
H44   H     H_    0.135312 0.152688 0.448393 0.124439
H45   H     H_    0.325162 0.746928 0.549493 0.100556
H46   H     H_    0.253238 0.902888 0.406405 0.103051
H47   H     H_    0.661125 0.716943 0.449037 0.106665
H48   H     H_    0.927890 0.698454 0.340925 0.361629
H49   H     H_    0.183285 0.495919 0.720552 0.380584
H50   H     H_    0.425377 0.038025 0.305720 0.348847
H51   H     H_    0.569377 0.073636 0.698983 0.343731
H52   H     H_    0.318742 0.432461 0.569311 0.152285
H53   H     H_    0.701075 0.412126 0.410561 0.143471
H54   H     H_    0.032343 0.146922 0.438444 0.150707
H55   H     H_    0.948501 0.167358 0.549786 0.139187
H56   H     H_    0.550135 0.657190 0.443476 0.149550
H57   H     H_    0.341723 0.148934 0.555926 0.218333
H58   H     H_    0.478776 0.652945 0.562042 0.155283
H59   H     H_    0.953318 0.211376 0.430509 0.120906
H60   H     H_    0.032807 0.151203 0.561324 0.123416
H61   H     H_    0.465938 0.691280 0.440883 0.123344
H62   H     H_    0.562644 0.702081 0.568011 0.119026
H63   H     H_    0.624950 0.865914 0.494877 0.040716
H64   H     H_    0.401402 0.832376 0.511111 0.047180
H65   H     H_    0.132707 0.327419 0.489262 0.050128
H66   H     H_    0.898459 0.405810 0.530959 0.048166
H67   H     H_    0.592311 0.905397 0.602966 0.071913
H68   H     H_    0.151116 0.619394 0.441123 0.208672
H69   H     H_    0.424372 0.876571 0.404277 0.076134
H70   H     H_    0.097072 0.291832 0.598038 0.120427
H71   H     H_    0.928113 0.403941 0.417997 0.117479
H72   H     H_    0.961019 0.515899 0.553182 0.233678
H73   H     H_    0.102025 0.477278 0.488843 0.165235
H74   H     H_    0.415225 0.982012 0.540704 0.211859
H75   H     H_    0.591914 0.999274 0.464516 0.194202
H76   H     H_    0.819929 0.919060 0.060734 0.138698
H77   H     H_    0.166921 0.935833 0.933287 0.142813
H78   H     H_    0.332829 0.433833 0.065078 0.140002
H79   H     H_    0.859996 0.590122 0.551938 0.173828
H80   H     H_    0.667818 0.438762 0.934823 0.141269
H81   H     H_    0.710465 0.235612 0.444232 0.112177
H82   H     H_    0.272072 0.238183 0.579837 0.111825
H83   H     H_    0.199189 0.746864 0.438600 0.123974
H84   H     H_    0.810417 0.718067 0.561462 0.125152
H85   H     H_    0.856224 0.057520 0.068791 0.119050
H86   H     H_    0.142577 0.085156 0.932348 0.119533
H87   H     H_    0.357503 0.581944 0.068995 0.117168
H88   H     H_    0.641340 0.586676 0.926099 0.117350
H89   H     H_    0.866932 0.041916 0.951558 0.132086
H90   H     H_    0.867127 0.066822 0.545929 0.146418
H91   H     H_    0.131021 0.043247 0.049667 0.133793
H92   H     H_    0.369508 0.545704 0.950858 0.133657
H93   H     H_    0.629656 0.572483 0.045539 0.133677
H94   H     H_    0.807513 0.928127 0.940382 0.120204
H95   H     H_    0.191182 0.929453 0.051748 0.118853
H96   H     H_    0.310024 0.430953 0.945783 0.121278
H97   H     H_    0.677417 0.444499 0.052386 0.116482
H98   H     H_    0.662028 0.947457 0.041305 0.105843
H99   H     H_    0.302530 0.922331 0.962641 0.106013
H100  H     H_    0.197938 0.423550 0.033242 0.106432
H101  H     H_    0.139675 0.994603 0.443344 0.156482
H102  H     H_    0.801538 0.420910 0.954454 0.106918
H103  H     H_    0.690287 0.957365 0.919491 0.102226
H104  H     H_    0.308302 0.957928 0.083684 0.100356
H105  H     H_    0.190232 0.463417 0.913924 0.109512
H106  H     H_    0.793395 0.437730 0.077549 0.109812
H107  H     H_    0.708166 0.248970 0.082202 0.115855
H108  H     H_    0.307825 0.233663 0.929431 0.123306
H109  H     H_    0.191972 0.734456 0.073154 0.122982
H110  H     H_    0.803553 0.737497 0.919214 0.116421
H111  H     H_    0.797060 0.233324 0.094802 0.104360
H112  H     H_    0.374098 0.616114 0.549183 0.142452
H113  H     H_    0.219915 0.250623 0.905998 0.108989
H114  H     H_    0.279602 0.749158 0.097981 0.102859
H115  H     H_    0.713400 0.752164 0.913540 0.103359
H116  H     H_    0.812274 0.248201 0.977580 0.109491
H117  H     H_    0.189558 0.247980 0.020510 0.110069
H118  H     H_    0.311619 0.748792 0.984858 0.112387
H119  H     H_    0.720353 0.793572 0.037112 0.108430
H120  H     H_    0.724189 0.281844 0.961575 0.126559
H121  H     H_    0.275584 0.281730 0.045506 0.130050
H122  H     H_    0.225479 0.784807 0.958503 0.127032
H123  H     H_    0.637377 0.566094 0.455098 0.148577
H124  H     H_    0.805310 0.746082 0.039528 0.122204
H125  H     H_    0.642909 0.099369 0.041189 0.118196
H126  H     H_    0.359431 0.041286 0.951771 0.126208
H127  H     H_    0.141064 0.543141 0.047657 0.123744
H128  H     H_    0.856695 0.544754 0.954610 0.123599
H129  H     H_    0.685111 0.231077 0.565115 0.190219
H130  H     H_    0.236160 0.255975 0.465518 0.095915
H131  H     H_    0.182846 0.739670 0.563574 0.157857
H132  H     H_    0.815627 0.730078 0.437976 0.159499
H133  H     H_    0.652157 0.101894 0.921848 0.120354
H134  H     H_    0.808336 0.903531 0.465460 0.147410
H135  H     H_    0.348156 0.098486 0.070432 0.124957
H136  H     H_    0.152793 0.606143 0.930925 0.129695
H137  H     H_    0.845096 0.565948 0.077079 0.116517
H138  H     H_    0.036668 0.546444 0.061227 0.136176
H139  H     H_    0.962411 0.546171 0.940480 0.134190
H140  H     H_    0.550034 0.034976 0.057672 0.136371
H141  H     H_    0.465591 0.045055 0.941298 0.136085
H142  H     H_    0.950413 0.517243 0.059040 0.117254
H143  H     H_    0.049478 0.516513 0.942164 0.124765
H144  H     H_    0.463012 0.026571 0.059846 0.116960
O1    O     O_R   0.957210 0.449410 0.665480 -0.442814
O2    O     O_R   0.167480 0.095300 0.164000 -0.532672
O3    O     O_R   0.332520 0.595300 0.836000 -0.530242
O4    O     O_R   0.667480 0.595300 0.164000 -0.530494
O5    O     O_R   0.946380 0.253940 0.826940 -0.513229
O6    O     O_R   0.053620 0.253940 0.173060 -0.512429
O7    O     O_R   0.446380 0.753940 0.826940 -0.514892
O8    O     O_R   0.553620 0.753940 0.173060 -0.509747
O9    O     O_3   0.834560 0.334570 0.748840 -0.301856
O10   O     O_3   0.165440 0.334570 0.251160 -0.306495
O11   O     O_3   0.334560 0.834570 0.748840 -0.298461
O12   O     O_R   0.042790 0.449410 0.334520 -0.402738
O13   O     O_3   0.665440 0.834570 0.251160 -0.298373
O14   O     O_R   0.820730 0.541240 0.668250 -0.524478
O15   O     O_R   0.179270 0.541240 0.331750 -0.507375
O16   O     O_R   0.320730 0.041240 0.668250 -0.498483
O17   O     O_R   0.679270 0.041240 0.331750 -0.512451
O18   O     O_R   0.714240 0.455060 0.663710 -0.513025
O19   O     O_R   0.285760 0.455060 0.336290 -0.518694
O20   O     O_R   0.214240 0.955060 0.663710 -0.527503
O21   O     O_R   0.785760 0.955060 0.336290 -0.529508
O22   O     O_R   0.736780 0.204870 0.675910 -0.477312
O23   O     O_R   0.457210 0.949410 0.665480 -0.472493
O24   O     O_R   0.263220 0.204870 0.324090 -0.470586
O25   O     O_R   0.236780 0.704870 0.675910 -0.483870
O26   O     O_R   0.763220 0.704870 0.324090 -0.504821
O27   O     O_R   0.833070 0.087590 0.673490 -0.531347
O28   O     O_R   0.166930 0.087590 0.326510 -0.535084
O29   O     O_R   0.333070 0.587590 0.673490 -0.522656
O30   O     O_R   0.666930 0.587590 0.326510 -0.526315
O31   O     O_R   0.946890 0.246800 0.676300 -0.516696
O32   O     O_R   0.053110 0.246800 0.323700 -0.517765
O33   O     O_R   0.446890 0.746800 0.676300 -0.519203
O34   O     O_R   0.542790 0.949410 0.334520 -0.470221
O35   O     O_R   0.553110 0.746800 0.323700 -0.513202
O36   O     O_R   0.956650 0.457120 0.827980 -0.496644
O37   O     O_R   0.043350 0.457120 0.172020 -0.519781
O38   O     O_R   0.456650 0.957120 0.827980 -0.534617
O39   O     O_R   0.543350 0.957120 0.172020 -0.531637
O40   O     O_R   0.820220 0.548390 0.818890 -0.514611
O41   O     O_R   0.179780 0.548390 0.181110 -0.515184
O42   O     O_R   0.320220 0.048390 0.818890 -0.507521
O43   O     O_R   0.679780 0.048390 0.181110 -0.509716
O44   O     O_R   0.713680 0.462770 0.826210 -0.529798
O45   O     O_R   0.736260 0.212010 0.826560 -0.504510
O46   O     O_R   0.286320 0.462770 0.173790 -0.532475
O47   O     O_R   0.213680 0.962770 0.826210 -0.529717
O48   O     O_R   0.786320 0.962770 0.173790 -0.532861
O49   O     O_2   0.950575 0.679779 0.479657 -0.350865
O50   O     O_2   0.046352 0.635507 0.408719 -0.282138
O51   O     O_3   0.931585 0.611744 0.348030 -0.532099
O52   O     O_2   0.070479 0.595062 0.638345 -0.269620
O53   O     O_2   0.068736 0.429362 0.721512 -0.273262
O54   O     O_3   0.178027 0.470402 0.669951 -0.592269
O55   O     O_2   0.427145 0.155957 0.471921 -0.259186
O56   O     O_R   0.263740 0.212010 0.173440 -0.504326
O57   O     O_2   0.522026 0.134920 0.396888 -0.222846
O58   O     O_3   0.404988 0.089862 0.342332 -0.539960
O59   O     O_2   0.558735 0.178734 0.530688 -0.242487
O60   O     O_2   0.467563 0.134515 0.605916 -0.222908
O61   O     O_3   0.586304 0.126032 0.661397 -0.538318
O62   O     O_R   0.236260 0.712010 0.826560 -0.506644
O63   O     O_R   0.763740 0.712010 0.173440 -0.506306
O64   O     O_R   0.832520 0.095300 0.836000 -0.535234
S1    S     S_3+6 0.977184 0.595512 0.424346 -0.037686
S2    S     S_3+6 0.095682 0.471098 0.651703 -0.037816
S3    S     S_3+6 0.456146 0.079426 0.414970 0.023283
S4    S     S_3+6 0.537938 0.096645 0.588460 0.016698

loop_
_geom_bond_atom_site_label_1
_geom_bond_atom_site_label_2
_ccdc_geom_bond_type
C19   H23   S    
Cr11  O26   S    
C17   H21   S    
C21   C110  S    
Cr7   O13   S    
C40   H55   S    
C77   H36   S    
Cr8   O18   S    
C48   H71   S    
C6    C85   S    
C1    O18   A    
Cr2   O28   S    
C9    C114  S    
C89   H104  S    
Cr1   O1    S    
C18   H130  S    
C94   H122  S    
Cr3   O3    S    
C45   C48   S    
C22   H27   S    
Cr10  O20   S    
C87   H103  S    
C41   C42   S    
C74   C92   S    
O59   S4    D    
C41   H61   S    
C76   C94   S    
O51   S1    S    
C14   H57   S    
C49   S2    S    
C2    C22   S    
C38   H47   S    
C3    O43   A    
C97   C115  S    
C64   O30   A    
C47   H74   S    
C59   H78   S    
C25   C34   S    
Cr4   O8    S    
Cr12  O5    S    
C29   C64   S    
C3    C79   S    
C37   H112  S    
C96   C114  S    
C75   H108  S    
C46   H75   S    
Cr12  O64   S    
C11   O8    A    
C106  H10   S    
C112  O23   A    
C27   C31   S    
C28   C32   S    
C15   H83   S    
C99   H38   S    
C38   C99   S    
C35   C66   S    
C118  O44   A    
C119  O41   A    
C71   H126  S    
C13   C33   S    
H51   O61   S    
C39   H59   S    
C78   C82   S    
C40   H60   S    
C16   C20   S    
C119  O46   A    
C43   H65   S    
O54   S2    S    
C67   H91   S    
C60   H80   S    
C73   H102  S    
C33   O19   A    
C98   H144  S    
C103  H20   S    
C74   C79   S    
Cr10  O25   S    
C30   H30   S    
Cr12  O31   S    
Cr6   O38   S    
C75   C93   S    
Cr6   O42   S    
C104  C117  S    
C53   C109  S    
C88   H37   S    
C70   C79   S    
C85   C90   S    
C68   H96   S    
C81   C119  S    
C61   O27   A    
C106  C115  S    
C36   C77   S    
C35   H43   S    
C76   H109  S    
C36   H101  S    
C20   H132  S    
C99   H42   S    
Cr1   O36   S    
C49   C53   S    
C103  C116  S    
C84   C93   S    
C2    C14   S    
O53   S2    D    
C86   C95   S    
C102  H17   S    
C28   C63   S    
C26   C35   S    
C48   C52   S    
C44   O20   A    
C71   H99   S    
C100  C117  S    
C104  C107  S    
C108  H16   S    
Cr7   O39   S    
C112  O33   A    
C96   H142  S    
Cr4   O30   S    
C12   C110  S    
C92   H116  S    
Cr8   O45   S    
C113  O35   A    
C30   H35   S    
C77   H40   S    
C43   C52   S    
C7    C86   S    
Cr9   O19   S    
C13   C23   S    
Cr4   O35   S    
C70   H125  S    
C25   H29   S    
Cr12  O27   S    
C29   C38   S    
C1    O14   A    
C111  O12   A    
C107  H9    S    
C34   H33   S    
H49   O54   S    
C18   H22   S    
Cr7   O17   S    
C45   C53   S    
C96   C97   S    
C25   H24   S    
Cr2   O32   S    
C68   C85   S    
C68   H92   S    
C70   C87   S    
C94   H118  S    
C47   C50   S    
C9    O37   A    
C92   H120  S    
Cr11  O13   S    
C31   H46   S    
C66   H39   S    
C39   C40   S    
C5    C84   S    
Cr6   O23   S    
Cr8   O44   S    
C46   C51   S    
C103  H4    S    
C6    O62   A    
C27   C62   S    
C69   H97   S    
C72   C90   S    
C58   C67   S    
Cr12  O9    S    
C67   H95   S    
C8    O36   A    
C19   C28   S    
Cr5   O15   S    
C21   H134  S    
Cr6   O16   S    
C26   C30   S    
C4    O45   A    
C58   H77   S    
C101  C106  S    
C118  O40   A    
C72   H100  S    
C108  C117  S    
C16   H79   S    
C5    O2    A    
C109  O1    A    
C100  H3    S    
C37   H45   S    
C109  O31   A    
C62   O28   A    
O60   S4    D    
C10   C117  S    
C15   H68   S    
C58   H86   S    
C60   C69   S    
C32   H32   S    
C9    O6    A    
C107  C116  S    
Cr10  O62   S    
O61   S4    S    
C55   O17   A    
C72   H127  S    
Cr9   O56   S    
C95   H124  S    
C47   C56   S    
C83   C87   S    
C21   H26   S    
C37   C88   S    
C105  H12   S    
C65   H89   S    
H48   O51   S    
Cr1   O40   S    
C15   C19   S    
C57   H76   S    
C50   C54   S    
Cr1   O14   S    
C26   C61   S    
Cr8   O9    S    
C86   C91   S    
C60   H88   S    
C93   H121  S    
C101  H18   S    
C104  H5    S    
C14   H82   S    
C102  C105  S    
C16   H84   S    
C14   C18   S    
Cr5   O41   S    
C102  C115  S    
C42   C56   S    
C39   H54   S    
C55   O21   A    
Cr7   O43   S    
H50   O58   S    
C63   O29   A    
C12   C17   S    
C72   C81   S    
C58   C80   S    
C38   H123  S    
C101  C114  S    
C12   H81   S    
C6    O3    A    
Cr4   O4    S    
C64   O26   A    
C47   H64   S    
Cr4   O13   S    
C35   H90   S    
C95   H119  S    
C48   S1    S    
C97   H139  S    
C98   H140  S    
C29   C34   S    
C41   H56   S    
C89   H135  S    
C10   O7    A    
C34   H53   S    
C90   H136  S    
C107  H15   S    
C78   C95   S    
C46   C54   S    
Cr3   O33   S    
Cr1   O9    S    
C11   C116  S    
Cr2   O6    S    
Cr3   O11   S    
C87   H133  S    
C74   H111  S    
C10   O38   A    
C36   H44   S    
C98   C100  S    
C20   H25   S    
C7    O4    A    
C73   C82   S    
Cr10  O47   S    
C50   H69   S    
Cr7   O34   S    
Cr5   O10   S    
C90   H105  S    
C59   C81   S    
C57   C65   S    
Cr10  O11   S    
C69   H93   S    
C101  H6    S    
C27   C36   S    
C21   C30   S    
C113  O34   A    
C23   C32   S    
C2    C77   S    
C4    C83   S    
C57   H85   S    
C45   H72   S    
C91   H106  S    
C65   H94   S    
C17   H129  S    
C19   H131  S    
Cr11  O21   S    
Cr3   O7    S    
O58   S3    S    
C80   C120  S    
C43   H73   S    
C24   C99   S    
C62   O24   A    
C57   C79   S    
C4    O64   A    
C73   H128  S    
C46   H63   S    
C83   C92   S    
C23   H13   S    
C78   H110  S    
C50   S3    S    
C22   H2    S    
C17   C26   S    
C28   C37   S    
C104  H19   S    
Cr9   O10   S    
C65   C83   S    
C120  O47   A    
C96   H138  S    
C54   C113  S    
C51   C56   S    
C74   H107  S    
C42   H62   S    
C42   H58   S    
C8    C115  S    
C60   C82   S    
C51   S4    S    
C103  C108  S    
C120  O42   A    
C75   C80   S    
C75   H113  S    
C5    O56   A    
C39   C52   S    
Cr5   O12   S    
C67   C84   S    
C16   C24   S    
Cr6   O11   S    
C71   C80   S    
C33   O15   A    
C93   H117  S    
C20   C29   S    
C111  O32   A    
C31   H31   S    
C22   C31   S    
C66   H34   S    
C105  C114  S    
C24   C25   S    
C73   C91   S    
Cr5   O37   S    
C2    C44   S    
C108  H8    S    
C43   C49   S    
C52   C111  S    
C45   H66   S    
C66   C110  S    
C88   H41   S    
C7    O63   A    
C70   H98   S    
C59   C68   S    
C97   H143  S    
C85   C94   S    
C98   C116  S    
C3    O48   A    
C71   C89   S    
C23   H28   S    
C78   H115  S    
C51   H67   S    
C1    C24   S    
O55   S3    D    
C63   O25   A    
C12   H1    S    
C13   C15   S    
C55   C110  S    
C84   C89   S    
O49   S1    D    
C49   H70   S    
C61   O22   A    
C44   O16   A    
C32   H52   S    
C76   H114  S    
C18   C27   S    
Cr11  O48   S    
C91   H137  S    
C76   C81   S    
C105  H11   S    
O52   S2    D    
Cr8   O22   S    
Cr9   O24   S    
C106  H14   S    
C100  H141  S    
Cr3   O29   S    
Cr9   O46   S    
Cr2   O10   S    
Cr2   O2    S    
C59   H87   S    
C8    O5    A    
C11   O39   A    
C13   C88   S    
Cr11  O63   S    
C41   C54   S    
C102  H7    S    
O57   S3    D    
C40   C53   S    
C82   C118  S    
O50   S1    D    
C56   C112  S    
C69   C86   S    
