data_mof_unit_46915.cif
_audit_creation_date              2012-12-10T17:08:41-0500
_audit_creation_method            fapswitch 2.2
_symmetry_space_group_name_H-M    P1
_symmetry_Int_Tables_number       1
_space_group_crystal_system       triclinic
_cell_length_a                    27.834269
_cell_length_b                    11.022895
_cell_length_c                    9.794117
_cell_angle_alpha                 111.223531
_cell_angle_beta                  97.457779
_cell_angle_gamma                 91.161135
_cell_volume                      2770.10527058

loop_
_atom_site_label
_atom_site_type_symbol
_atom_type_description
_atom_site_fract_x
_atom_site_fract_y
_atom_site_fract_z
_atom_type_partial_charge
C1    C     C_R   0.496488 0.253999 0.440513 0.868910
C2    C     C_R   0.870902 0.388079 0.478548 0.004087
C3    C     C_R   0.354504 0.503339 0.508281 -0.091356
C4    C     C_R   0.645496 0.496661 0.491717 -0.091361
C5    C     C_R   0.972808 0.388527 0.494555 0.077680
C6    C     C_R   0.027190 0.611463 0.505410 0.077678
C7    C     C_R   0.975533 0.608029 0.484100 -0.017934
C8    C     C_R   0.024465 0.391959 0.515859 -0.017930
C9    C     C_R   0.948886 0.499958 0.489627 0.030699
C10   C     C_R   0.051112 0.500033 0.510339 0.030698
C11   C     C_R   0.943960 0.272920 0.465407 -0.215964
C12   C     C_R   0.503512 0.746001 0.559487 0.868911
C13   C     C_R   0.056037 0.727071 0.534563 -0.215965
C14   C     C_R   0.894114 0.273627 0.462644 -0.155783
C15   C     C_R   0.105883 0.726368 0.537335 -0.155781
C16   C     C_R   0.407477 0.501902 0.502966 0.817959
C17   C     C_R   0.592522 0.498097 0.497034 0.817960
C18   C     C_R   0.050800 0.294603 0.550303 0.162478
C19   C     C_R   0.949198 0.705379 0.449642 0.162478
C20   C     C_2   0.494579 0.114531 0.406866 -0.350551
C21   C     C_2   0.505421 0.885469 0.593134 -0.350551
C22   C     C_2   0.500895 0.069600 0.516570 -0.145559
C23   C     C_R   0.102306 0.499479 0.515378 -0.088446
C24   C     C_2   0.499105 0.930400 0.483430 -0.145559
C25   C     C_2   0.504186 0.510532 0.081085 -0.077943
C26   C     C_2   0.495814 0.489468 0.918915 -0.077943
C27   C     C_R   0.177391 0.389721 0.506776 0.552877
C28   C     C_R   0.822609 0.610280 0.493213 0.552876
C29   C     C_R   0.178965 0.609086 0.516240 0.532324
C30   C     C_R   0.821034 0.390915 0.483749 0.532327
C31   C     C_R   0.284297 0.557259 0.637641 -0.144390
C32   C     C_R   0.715702 0.442758 0.362352 -0.144405
C33   C     C_R   0.334808 0.560751 0.642267 0.127904
C34   C     C_R   0.897692 0.500515 0.484595 -0.088446
C35   C     C_R   0.665192 0.439262 0.357727 0.127911
C36   C     C_R   0.322672 0.446334 0.374247 -0.260762
C37   C     C_R   0.677328 0.553652 0.625754 -0.260764
C38   C     C_R   0.272262 0.444226 0.370574 0.209386
C39   C     C_R   0.727738 0.555761 0.629427 0.209393
C40   C     C_R   0.253127 0.499595 0.504000 0.329822
C41   C     C_R   0.746873 0.500410 0.495996 0.329833
C42   C     C_3   0.240311 0.383158 0.223135 -0.805901
C43   C     C_3   0.759691 0.616807 0.776867 -0.805922
C44   C     C_3   0.122934 0.156666 0.522683 -0.735883
C45   C     C_R   0.126618 0.387200 0.513393 -0.083026
C46   C     C_3   0.877061 0.843308 0.477214 -0.735857
C47   C     C_3   0.634009 0.371460 0.209632 -0.795869
C48   C     C_3   0.365991 0.628558 0.790359 -0.795886
C49   C     C_3   0.031636 0.226545 0.644573 -0.880498
C50   C     C_3   0.968365 0.773425 0.355362 -0.880491
C51   C     C_R   0.873381 0.612794 0.486576 -0.083033
C52   C     C_R   0.099883 0.281494 0.527059 0.157290
C53   C     C_R   0.900115 0.718491 0.472882 0.157292
C54   C     C_R   0.129096 0.611918 0.521434 0.004089
Cu1   Cu    Cu3+1 0.508480 0.521810 0.644910 0.940663
Cu2   Cu    Cu3+1 0.491520 0.478190 0.355090 0.940663
H1    H     H_    0.873812 0.183502 0.446972 0.184321
H2    H     H_    0.452148 0.377519 0.066029 0.193598
H3    H     H_    0.248965 0.433055 0.148137 0.227760
H4    H     H_    0.247086 0.278401 0.172792 0.236673
H5    H     H_    0.201083 0.390140 0.232051 0.233609
H6    H     H_    0.751041 0.566878 0.851835 0.227768
H7    H     H_    0.798919 0.609847 0.767952 0.233613
H8    H     H_    0.752911 0.721553 0.827241 0.236669
H9    H     H_    0.096582 0.079800 0.522172 0.204506
H10   H     H_    0.138471 0.113032 0.418243 0.257748
H11   H     H_    0.151334 0.176977 0.620416 0.255865
H12   H     H_    0.126185 0.816495 0.553011 0.184322
H13   H     H_    0.903409 0.920165 0.477674 0.204498
H14   H     H_    0.848655 0.822964 0.379485 0.255852
H15   H     H_    0.861529 0.886976 0.581663 0.257752
H16   H     H_    0.656174 0.323417 0.120989 0.217919
H17   H     H_    0.608951 0.294474 0.215670 0.238484
H18   H     H_    0.613065 0.443383 0.176302 0.239910
H19   H     H_    0.343825 0.676603 0.878999 0.217923
H20   H     H_    0.386935 0.556639 0.823694 0.239917
H21   H     H_    0.391049 0.705540 0.784316 0.238484
H22   H     H_    0.731387 0.400134 0.261296 0.144588
H23   H     H_    0.337044 0.402346 0.271016 0.175106
H24   H     H_    0.268611 0.599893 0.738695 0.144592
H25   H     H_    0.959357 0.179825 0.441979 0.161451
H26   H     H_    0.040639 0.820165 0.557985 0.161452
H27   H     H_    0.060520 0.229897 0.735805 0.244420
H28   H     H_    0.001345 0.276580 0.700068 0.245789
H29   H     H_    0.019792 0.122850 0.577524 0.216039
H30   H     H_    0.939483 0.770059 0.264117 0.244416
H31   H     H_    0.980206 0.877124 0.422402 0.216039
H32   H     H_    0.998658 0.723389 0.299882 0.245788
H33   H     H_    0.492550 0.864300 0.368167 0.181197
H34   H     H_    0.662957 0.597627 0.728990 0.175109
H35   H     H_    0.507450 0.135700 0.631833 0.181197
H36   H     H_    0.511993 0.951836 0.708203 0.150556
H37   H     H_    0.488007 0.048164 0.291797 0.150556
H38   H     H_    0.467546 0.417277 0.846353 0.159166
H39   H     H_    0.532454 0.582723 0.153647 0.159165
H40   H     H_    0.547852 0.622481 0.933971 0.193598
N1    N     N_R   0.201699 0.498635 0.506427 -0.463012
N2    N     N_R   0.798301 0.501367 0.493566 -0.463011
N3    N     N_2   0.478780 0.445430 0.137360 -0.284486
N4    N     N_2   0.521220 0.554570 0.862640 -0.284487
O1    O     O_R   0.504520 0.332330 0.577400 -0.576448
O2    O     O_2   0.797108 0.713830 0.497453 -0.541361
O3    O     O_2   0.795298 0.284288 0.479924 -0.536876
O4    O     O_2   0.204700 0.715714 0.520070 -0.536879
O5    O     O_R   0.495480 0.667670 0.422600 -0.576448
O6    O     O_R   0.490210 0.295500 0.332650 -0.575718
O7    O     O_R   0.509790 0.704500 0.667350 -0.575718
O8    O     O_R   0.437420 0.518430 0.622370 -0.576722
O9    O     O_R   0.562580 0.481570 0.377630 -0.576721
O10   O     O_R   0.423110 0.481600 0.377610 -0.576300
O11   O     O_R   0.576890 0.518400 0.622390 -0.576301
O12   O     O_2   0.202894 0.286176 0.502554 -0.541360

loop_
_geom_bond_atom_site_label_1
_geom_bond_atom_site_label_2
_ccdc_geom_bond_type
C26   H38   S    
C20   H37   S    
C23   C45   A    
C48   H20   S    
C44   H10   S    
Cu1   Cu2   S    
C35   C47   S    
C24   H33   S    
C16   O10   A    
C31   H24   S    
C39   C41   A    
C11   H25   S    
C34   C51   A    
C37   H34   S    
C49   H28   S    
C38   C42   S    
C12   O5    A    
C28   C51   A    
C27   C45   A    
C3    C33   A    
H40   N4    S    
C31   C40   A    
C46   H13   S    
C25   N3    D    
C30   O3    S    
C32   C41   A    
C31   C33   A    
C50   H32   S    
C1    O6    A    
C2    C34   A    
C4    C35   A    
C48   H19   S    
C44   H9    S    
C17   O11   A    
Cu2   O10   S    
C43   H8    S    
C47   H16   S    
C18   C52   A    
C32   C35   A    
C49   H29   S    
C47   H17   S    
C42   H4    S    
C40   N1    S    
C16   O8    A    
C39   C43   S    
C45   C52   A    
C25   C26   S    
C13   H26   S    
C8    C18   A    
C29   O4    S    
Cu1   O7    S    
C51   C53   A    
C48   H21   S    
Cu1   N4    S    
C15   C54   A    
C5    C9    A    
C12   O7    A    
C22   H35   S    
C42   H5    S    
Cu2   O6    S    
C46   H15   S    
C50   H31   S    
C4    C17   S    
C20   C22   D    
C27   O12   S    
C25   H39   S    
C7    C19   A    
C13   C15   A    
C9    C34   A    
C22   C24   S    
C1    O1    A    
Cu2   O9    S    
C23   C54   A    
C28   N2    A    
C7    C9    A    
C14   H1    S    
Cu1   O1    S    
C27   N1    A    
C1    C20   S    
Cu1   O11   S    
H2    N3    S    
C47   H18   S    
C36   H23   S    
C17   O9    A    
C42   H3    S    
C6    C10   A    
C5    C8    A    
C5    C11   A    
C6    C7    A    
C44   C52   S    
C10   C23   A    
C30   N2    A    
C29   N1    A    
Cu1   O8    S    
C2    C30   A    
C49   H27   S    
C36   C38   A    
C37   C39   A    
C6    C13   A    
C38   C40   A    
C19   C50   S    
C19   C53   A    
C3    C36   A    
C15   H12   S    
C12   C21   S    
C46   C53   S    
C11   C14   A    
C2    C14   A    
Cu2   O5    S    
C46   H14   S    
C50   H30   S    
C32   H22   S    
C28   O2    S    
C43   H7    S    
C4    C37   A    
C43   H6    S    
C8    C10   A    
C29   C54   A    
C21   C24   D    
C33   C48   S    
C41   N2    S    
C44   H11   S    
Cu2   N3    S    
C3    C16   S    
C18   C49   S    
C26   N4    D    
C21   H36   S    
