data_mof_unit_64441.cif
_audit_creation_date              2013-03-05T16:28:58-0500
_audit_creation_method            fapswitch 2.2
_symmetry_space_group_name_H-M    P1
_symmetry_Int_Tables_number       1
_space_group_crystal_system       triclinic
_cell_length_a                    18.396044
_cell_length_b                    18.395989
_cell_length_c                    51.320866
_cell_angle_alpha                 90.000135
_cell_angle_beta                  90.00014
_cell_angle_gamma                 89.999882
_cell_volume                      17367.6699377

loop_
_atom_site_label
_atom_site_type_symbol
_atom_site_description
_atom_site_fract_x
_atom_site_fract_y
_atom_site_fract_z
_atom_type_partial_charge
Zn1   Zn    Zn3+2 1.000000 0.586670 0.021480 0.986792
Zn2   Zn    Zn3+2 0.413330 0.000000 0.021480 0.986792
Zn3   Zn    Zn3+2 0.000000 0.413330 0.021480 0.986792
Zn4   Zn    Zn3+2 0.586670 0.000000 0.021480 0.986792
Zn5   Zn    Zn3+2 0.500000 0.086670 0.521480 0.986776
Zn6   Zn    Zn3+2 0.913330 0.500000 0.521480 0.986770
Zn7   Zn    Zn3+2 0.500000 0.913330 0.521480 0.986775
Zn8   Zn    Zn3+2 0.086670 0.500000 0.521480 0.986770
Zn9   Zn    Zn3+2 0.913520 0.500000 0.977990 0.966244
Zn10  Zn    Zn3+2 0.500000 0.913520 0.977990 0.966239
Zn11  Zn    Zn3+2 0.086480 0.500000 0.977990 0.966244
Zn12  Zn    Zn3+2 0.500000 0.086480 0.977990 0.966238
Zn13  Zn    Zn3+2 0.413520 0.000000 0.477990 0.966234
Zn14  Zn    Zn3+2 1.000000 0.413520 0.477990 0.966237
Zn15  Zn    Zn3+2 0.586480 0.000000 0.477990 0.966234
Zn16  Zn    Zn3+2 1.000000 0.586480 0.477990 0.966237
O1    O     O_3   1.000000 0.500000 0.999730 -0.484790
O2    O     O_3   0.500000 0.000000 0.999730 -0.484788
O3    O     O_3   0.500000 0.000000 0.499730 -0.484768
O4    O     O_3   1.000000 0.500000 0.499730 -0.484763
O5    O     O_R   0.061010 0.500000 0.941690 -0.646211
O6    O     O_R   0.500000 0.061010 0.941690 -0.646224
O7    O     O_R   0.938990 0.500000 0.941690 -0.646211
O8    O     O_R   0.500000 0.938990 0.941690 -0.646225
O9    O     O_R   0.561010 0.000000 0.441690 -0.646254
O10   O     O_R   1.000000 0.561010 0.441690 -0.646255
O11   O     O_R   0.438990 0.000000 0.441690 -0.646254
O12   O     O_R   1.000000 0.438990 0.441690 -0.646255
O13   O     O_R   0.000000 0.560620 0.057780 -0.640449
O14   O     O_R   0.439380 0.000000 0.057780 -0.640447
O15   O     O_R   0.000000 0.439380 0.057780 -0.640449
O16   O     O_R   0.560620 0.000000 0.057780 -0.640448
O17   O     O_R   0.500000 0.060620 0.557780 -0.640514
O18   O     O_R   0.939380 0.500000 0.557780 -0.640534
O19   O     O_R   0.500000 0.939380 0.557780 -0.640514
O20   O     O_R   0.060620 0.500000 0.557780 -0.640535
O21   O     O_R   0.854100 0.585380 0.984510 -0.644019
O22   O     O_R   0.414620 0.854100 0.984510 -0.644000
O23   O     O_R   0.145900 0.414620 0.984510 -0.644019
O24   O     O_R   0.585380 0.145900 0.984510 -0.643999
O25   O     O_R   0.145900 0.585380 0.984510 -0.643908
O26   O     O_R   0.585380 0.854100 0.984510 -0.643929
O27   O     O_R   0.854100 0.414620 0.984510 -0.643908
O28   O     O_R   0.414620 0.145900 0.984510 -0.643929
O29   O     O_R   0.354100 0.085380 0.484510 -0.643961
O30   O     O_R   0.914620 0.354100 0.484510 -0.643964
O31   O     O_R   0.645900 0.914620 0.484510 -0.643961
O32   O     O_R   0.085380 0.645900 0.484510 -0.643964
O33   O     O_R   0.645900 0.085380 0.484510 -0.643961
O34   O     O_R   0.085380 0.354100 0.484510 -0.643959
O35   O     O_R   0.354100 0.914620 0.484510 -0.643961
O36   O     O_R   0.914620 0.645900 0.484510 -0.643958
O37   O     O_R   0.085710 0.353760 0.014950 -0.645088
O38   O     O_R   0.646240 0.085710 0.014950 -0.645091
O39   O     O_R   0.914290 0.646240 0.014950 -0.645088
O40   O     O_R   0.353760 0.914290 0.014950 -0.645091
O41   O     O_R   0.914290 0.353760 0.014950 -0.644328
O42   O     O_R   0.353760 0.085710 0.014950 -0.644323
O43   O     O_R   0.085710 0.646240 0.014950 -0.644328
O44   O     O_R   0.646240 0.914290 0.014950 -0.644324
O45   O     O_R   0.585710 0.853760 0.514950 -0.645050
O46   O     O_R   0.146240 0.585710 0.514950 -0.645036
O47   O     O_R   0.414290 0.146240 0.514950 -0.645050
O48   O     O_R   0.853760 0.414290 0.514950 -0.645036
O49   O     O_R   0.414290 0.853760 0.514950 -0.644388
O50   O     O_R   0.853760 0.585710 0.514950 -0.644407
O51   O     O_R   0.585710 0.146240 0.514950 -0.644388
O52   O     O_R   0.146240 0.414290 0.514950 -0.644407
C1    C     C_R   1.000000 0.500000 0.929252 0.796080
C2    C     C_R   0.500000 1.000000 0.929252 0.796111
C3    C     C_R   0.500000 1.000000 0.429252 0.796155
C4    C     C_R   1.000000 0.500000 0.429252 0.796155
C5    C     C_R   1.000000 0.500000 0.070276 0.854621
C6    C     C_R   0.500000 0.000000 0.070276 0.854618
C7    C     C_R   0.500000 0.000000 0.570277 0.854739
C8    C     C_R   1.000000 0.500000 0.570278 0.854766
C9    C     C_R   0.860014 0.639939 0.999723 0.813282
C10   C     C_R   0.360061 0.860014 0.999722 0.813292
C11   C     C_R   0.139986 0.360061 0.999723 0.813280
C12   C     C_R   0.639939 0.139986 0.999723 0.813292
C13   C     C_R   0.139987 0.639938 0.999723 0.813669
C14   C     C_R   0.639938 0.860013 0.999723 0.813658
C15   C     C_R   0.860013 0.360061 0.999723 0.813669
C16   C     C_R   0.360061 0.139987 0.999723 0.813656
C17   C     C_R   0.360013 0.139939 0.499723 0.813344
C18   C     C_R   0.860061 0.360014 0.499723 0.813350
C19   C     C_R   0.639986 0.860061 0.499723 0.813343
C20   C     C_R   0.139939 0.639986 0.499723 0.813350
C21   C     C_R   0.639987 0.139939 0.499723 0.813628
C22   C     C_R   0.139938 0.360013 0.499723 0.813632
C23   C     C_R   0.360013 0.860061 0.499723 0.813628
C24   C     C_R   0.860061 0.639987 0.499723 0.813630
C25   C     C_R   0.256455 0.691689 0.984193 0.133009
C26   C     C_R   0.308309 0.256454 0.984192 0.133009
C27   C     C_R   0.743545 0.308310 0.984193 0.133008
C28   C     C_R   0.691691 0.743546 0.984192 0.133009
C29   C     C_R   0.743548 0.691690 0.984192 0.133130
C30   C     C_R   0.691689 0.256453 0.984193 0.133129
C31   C     C_R   0.256452 0.308309 0.984192 0.133131
C32   C     C_R   0.308311 0.743546 0.984193 0.133127
C33   C     C_R   0.756454 0.191690 0.484193 0.132997
C34   C     C_R   0.808310 0.756454 0.484193 0.132994
C35   C     C_R   0.243545 0.808310 0.484193 0.132996
C36   C     C_R   0.191690 0.243545 0.484193 0.132994
C37   C     C_R   0.243547 0.191689 0.484192 0.133119
C38   C     C_R   0.191689 0.756453 0.484192 0.133117
C39   C     C_R   0.756453 0.808310 0.484192 0.133119
C40   C     C_R   0.808310 0.243546 0.484192 0.133117
C41   C     C_R   0.195122 0.695939 0.999857 -0.086135
C42   C     C_R   0.304061 0.195123 0.999857 -0.086141
C43   C     C_R   0.804878 0.304061 0.999856 -0.086135
C44   C     C_R   0.695939 0.804877 0.999857 -0.086141
C45   C     C_R   0.804878 0.695939 0.999857 -0.085978
C46   C     C_R   0.695940 0.195121 0.999856 -0.085972
C47   C     C_R   0.195122 0.304061 0.999857 -0.085977
C48   C     C_R   0.304061 0.804879 0.999856 -0.085971
C49   C     C_R   0.695122 0.195939 0.499856 -0.086115
C50   C     C_R   0.804061 0.695122 0.499857 -0.086123
C51   C     C_R   0.304878 0.804060 0.499856 -0.086115
C52   C     C_R   0.195939 0.304877 0.499857 -0.086124
C53   C     C_R   0.304878 0.195939 0.499856 -0.085977
C54   C     C_R   0.195940 0.695121 0.499856 -0.085966
C55   C     C_R   0.695122 0.804061 0.499856 -0.085976
C56   C     C_R   0.804060 0.304879 0.499856 -0.085966
C57   C     C_R   0.188440 0.757556 0.016111 -0.204503
C58   C     C_R   0.242446 0.188442 0.016112 -0.204506
C59   C     C_R   0.811560 0.242444 0.016111 -0.204502
C60   C     C_R   0.757554 0.811558 0.016112 -0.204507
C61   C     C_R   0.811559 0.757554 0.016112 -0.205401
C62   C     C_R   0.757556 0.188439 0.016111 -0.205399
C63   C     C_R   0.188441 0.242446 0.016112 -0.205402
C64   C     C_R   0.242444 0.811561 0.016111 -0.205397
C65   C     C_R   0.688440 0.257556 0.516111 -0.204549
C66   C     C_R   0.742445 0.688441 0.516111 -0.204520
C67   C     C_R   0.311560 0.742444 0.516111 -0.204549
C68   C     C_R   0.257555 0.311559 0.516111 -0.204520
C69   C     C_R   0.311559 0.257555 0.516111 -0.205366
C70   C     C_R   0.257556 0.688439 0.516111 -0.205392
C71   C     C_R   0.688441 0.742445 0.516111 -0.205367
C72   C     C_R   0.742444 0.311561 0.516111 -0.205392
H1    H     H_    0.141864 0.764240 0.028793 0.188903
H2    H     H_    0.235764 0.141867 0.028794 0.188905
H3    H     H_    0.858136 0.235760 0.028792 0.188903
H4    H     H_    0.764236 0.858133 0.028794 0.188905
H5    H     H_    0.858133 0.764236 0.028795 0.188533
H6    H     H_    0.764240 0.141864 0.028793 0.188532
H7    H     H_    0.141867 0.235764 0.028795 0.188533
H8    H     H_    0.235760 0.858137 0.028793 0.188532
H9    H     H_    0.641864 0.264240 0.528793 0.188868
H10   H     H_    0.735762 0.641866 0.528794 0.188876
H11   H     H_    0.358136 0.735760 0.528792 0.188869
H12   H     H_    0.264238 0.358134 0.528794 0.188876
H13   H     H_    0.358135 0.264238 0.528794 0.188518
H14   H     H_    0.264240 0.641864 0.528792 0.188503
H15   H     H_    0.641866 0.735762 0.528794 0.188518
H16   H     H_    0.735760 0.358137 0.528792 0.188504
C73   C     C_3   0.353914 0.705317 0.964515 -0.469658
C74   C     C_3   0.294678 0.353910 0.964513 -0.469682
C75   C     C_3   0.646085 0.294682 0.964516 -0.469656
C76   C     C_3   0.705321 0.646090 0.964513 -0.469681
C77   C     C_3   0.646092 0.705318 0.964513 -0.469436
C78   C     C_3   0.705313 0.353912 0.964516 -0.469408
C79   C     C_3   0.353908 0.294682 0.964513 -0.469436
C80   C     C_3   0.294686 0.646087 0.964516 -0.469407
C81   C     C_3   0.853914 0.205317 0.464515 -0.469574
C82   C     C_3   0.794681 0.853912 0.464514 -0.469569
C83   C     C_3   0.146086 0.794682 0.464515 -0.469573
C84   C     C_3   0.205319 0.146087 0.464514 -0.469568
C85   C     C_3   0.146089 0.205316 0.464514 -0.469481
C86   C     C_3   0.205314 0.853912 0.464515 -0.469484
C87   C     C_3   0.853911 0.794684 0.464515 -0.469480
C88   C     C_3   0.794686 0.146087 0.464516 -0.469482
H17   H     H_    0.357548 0.735874 0.945876 0.212338
H18   H     H_    0.264118 0.357541 0.945874 0.212282
H19   H     H_    0.642451 0.264124 0.945876 0.212338
H20   H     H_    0.735882 0.642459 0.945874 0.212282
H21   H     H_    0.642459 0.735877 0.945874 0.212418
H22   H     H_    0.735869 0.357547 0.945876 0.212472
H23   H     H_    0.357540 0.264122 0.945874 0.212417
H24   H     H_    0.264129 0.642452 0.945876 0.212473
H25   H     H_    0.857547 0.235874 0.445875 0.212397
H26   H     H_    0.764122 0.857544 0.445875 0.212399
H27   H     H_    0.142452 0.764124 0.445876 0.212398
H28   H     H_    0.235877 0.142455 0.445875 0.212398
H29   H     H_    0.142455 0.235874 0.445875 0.212359
H30   H     H_    0.235870 0.857547 0.445876 0.212357
H31   H     H_    0.857544 0.764125 0.445875 0.212358
H32   H     H_    0.764128 0.142452 0.445876 0.212357
H33   H     H_    0.406638 0.686762 0.972750 0.205512
H34   H     H_    0.313235 0.406635 0.972746 0.205525
H35   H     H_    0.593361 0.313238 0.972750 0.205512
H36   H     H_    0.686765 0.593365 0.972746 0.205524
H37   H     H_    0.593368 0.686759 0.972746 0.205506
H38   H     H_    0.686755 0.406635 0.972750 0.205495
H39   H     H_    0.406632 0.313240 0.972746 0.205506
H40   H     H_    0.313244 0.593364 0.972750 0.205495
H41   H     H_    0.906637 0.186761 0.472750 0.205516
H42   H     H_    0.813237 0.906636 0.472748 0.205515
H43   H     H_    0.093362 0.813238 0.472750 0.205516
H44   H     H_    0.186763 0.093363 0.472748 0.205515
H45   H     H_    0.093365 0.186758 0.472748 0.205529
H46   H     H_    0.186756 0.906635 0.472750 0.205528
H47   H     H_    0.906634 0.813242 0.472748 0.205529
H48   H     H_    0.813243 0.093364 0.472750 0.205528
C89   C     C_R   0.437764 0.981397 0.804698 0.511768
C90   C     C_R   0.017967 0.437578 0.804701 0.511794
C91   C     C_R   0.562236 0.018602 0.804699 0.511770
C92   C     C_R   0.982031 0.562423 0.804702 0.511794
C93   C     C_R   0.938293 0.479712 0.304689 0.511715
C94   C     C_R   0.520310 0.938300 0.304689 0.511715
C95   C     C_R   0.061707 0.520287 0.304689 0.511715
C96   C     C_R   0.479689 0.061700 0.304689 0.511716
N1    N     N_R   0.500000 1.000000 0.817764 -0.357595
N2    N     N_R   0.999999 0.500000 0.817766 -0.357640
N3    N     N_R   0.000000 0.499999 0.317758 -0.357436
N4    N     N_R   0.499999 1.000000 0.317757 -0.357436
C97   C     C_R   0.563524 0.019008 0.777344 -0.019381
C98   C     C_R   0.981643 0.563717 0.777347 -0.019408
C99   C     C_R   0.436475 0.980992 0.777344 -0.019382
C100  C     C_R   0.018357 0.436283 0.777347 -0.019408
C101  C     C_R   0.062976 0.520746 0.277335 -0.019331
C102  C     C_R   0.479230 0.062968 0.277335 -0.019330
C103  C     C_R   0.937024 0.479254 0.277335 -0.019331
C104  C     C_R   0.520769 0.937031 0.277335 -0.019329
C105  C     C_R   0.500000 0.000000 0.763615 -0.010500
C106  C     C_R   1.000000 0.500000 0.763618 -0.010492
C107  C     C_R   1.000000 0.500000 0.263607 -0.010553
C108  C     C_R   0.500000 1.000000 0.263607 -0.010553
C109  C     C_R   0.626631 0.037729 0.763454 -0.137308
C110  C     C_R   0.963571 0.627014 0.763457 -0.137310
C111  C     C_R   0.373368 0.962271 0.763454 -0.137308
C112  C     C_R   0.036429 0.372987 0.763456 -0.137310
C113  C     C_R   0.125541 0.541208 0.263445 -0.137330
C114  C     C_R   0.458746 0.125526 0.263445 -0.137329
C115  C     C_R   0.874459 0.458792 0.263445 -0.137330
C116  C     C_R   0.541254 0.874474 0.263445 -0.137329
C117  C     C_R   0.125588 0.541091 0.236249 -0.127871
C118  C     C_R   0.458863 0.125573 0.236249 -0.127870
C119  C     C_R   0.874412 0.458909 0.236249 -0.127871
C120  C     C_R   0.541137 0.874426 0.236249 -0.127871
C121  C     C_R   0.626675 0.037607 0.736258 -0.127932
C122  C     C_R   0.963692 0.627056 0.736260 -0.127936
C123  C     C_R   0.373324 0.962394 0.736258 -0.127932
C124  C     C_R   0.036309 0.372945 0.736260 -0.127937
C125  C     C_R   0.063051 0.520583 0.222361 -0.026119
C126  C     C_R   0.479394 0.063044 0.222360 -0.026118
C127  C     C_R   0.936948 0.479417 0.222360 -0.026118
C128  C     C_R   0.520606 0.936956 0.222360 -0.026118
C129  C     C_R   0.563595 0.018839 0.722369 -0.026013
C130  C     C_R   0.981811 0.563786 0.722371 -0.026005
C131  C     C_R   0.436404 0.981162 0.722369 -0.026014
C132  C     C_R   0.018190 0.436215 0.722371 -0.026005
C133  C     C_R   1.000000 0.500000 0.236086 -0.009261
C134  C     C_R   0.500000 1.000000 0.236085 -0.009262
C135  C     C_R   0.499999 0.000001 0.736094 -0.009209
C136  C     C_R   0.000000 0.500000 0.736096 -0.009201
C137  C     C_R   0.061831 0.519997 0.195015 0.632643
C138  C     C_R   0.479981 0.061824 0.195015 0.632642
C139  C     C_R   0.938168 0.480004 0.195015 0.632643
C140  C     C_R   0.520020 0.938175 0.195015 0.632642
C141  C     C_R   0.562356 0.018295 0.695022 0.632674
C142  C     C_R   0.982338 0.562540 0.695025 0.632698
C143  C     C_R   0.437643 0.981707 0.695022 0.632675
C144  C     C_R   0.017663 0.437461 0.695025 0.632696
N5    N     N_R   1.000000 0.500000 0.181965 -0.321504
N6    N     N_R   0.500000 0.000000 0.181965 -0.321504
N7    N     N_R   0.499999 0.000001 0.681972 -0.321499
N8    N     N_R   0.000001 0.500001 0.681975 -0.321493
O53   O     O_2   0.377214 0.963891 0.818149 -0.548223
O54   O     O_2   0.034863 0.376857 0.818153 -0.548152
O55   O     O_2   0.622786 0.036108 0.818149 -0.548225
O56   O     O_2   0.965135 0.623143 0.818154 -0.548152
O57   O     O_2   0.878223 0.460598 0.318135 -0.548551
O58   O     O_2   0.539446 0.878237 0.318135 -0.548553
O59   O     O_2   0.121777 0.539401 0.318135 -0.548551
O60   O     O_2   0.460553 0.121763 0.318135 -0.548553
H49   H     H_    0.676195 0.052504 0.773540 0.196945
H50   H     H_    0.949307 0.676728 0.773543 0.196932
H51   H     H_    0.323805 0.947496 0.773539 0.196945
H52   H     H_    0.050692 0.323273 0.773542 0.196932
H53   H     H_    0.174674 0.557350 0.273530 0.197008
H54   H     H_    0.442585 0.174654 0.273530 0.197008
H55   H     H_    0.825326 0.442649 0.273530 0.197008
H56   H     H_    0.557414 0.825345 0.273530 0.197008
H57   H     H_    0.174748 0.557147 0.226163 0.199737
H58   H     H_    0.442789 0.174728 0.226163 0.199737
H59   H     H_    0.825252 0.442853 0.226163 0.199737
H60   H     H_    0.557211 0.825272 0.226163 0.199737
H61   H     H_    0.676264 0.052293 0.726171 0.199568
H62   H     H_    0.949517 0.676794 0.726174 0.199548
H63   H     H_    0.323735 0.947709 0.726171 0.199567
H64   H     H_    0.050484 0.323207 0.726173 0.199548
O61   O     O_2   0.121877 0.538968 0.181533 -0.523934
O62   O     O_2   0.460989 0.121864 0.181533 -0.523934
O63   O     O_2   0.878123 0.461033 0.181533 -0.523934
O64   O     O_2   0.539012 0.878136 0.181533 -0.523933
O65   O     O_2   0.622897 0.035616 0.681540 -0.524109
O66   O     O_2   0.965630 0.623252 0.681541 -0.524128
O67   O     O_2   0.377102 0.964386 0.681539 -0.524109
O68   O     O_2   0.034372 0.376749 0.681541 -0.524129
C145  C     C_R   0.004881 0.433470 0.140151 0.317854
C146  C     C_R   0.566529 0.004903 0.140151 0.317856
C147  C     C_R   0.995118 0.566530 0.140151 0.317856
C148  C     C_R   0.433472 0.995097 0.140151 0.317857
C149  C     C_R   0.503261 0.933371 0.640158 0.317741
C150  C     C_R   0.066657 0.502668 0.640160 0.317706
C151  C     C_R   0.496738 0.066630 0.640158 0.317742
C152  C     C_R   0.933344 0.497333 0.640160 0.317705
C153  C     C_R   0.003921 0.434387 0.112846 -0.257497
C154  C     C_R   0.565612 0.003941 0.112845 -0.257496
C155  C     C_R   0.996079 0.565614 0.112846 -0.257497
C156  C     C_R   0.434388 0.996058 0.112845 -0.257496
C157  C     C_R   0.502367 0.934313 0.612852 -0.257438
C158  C     C_R   0.065705 0.501798 0.612853 -0.257429
C159  C     C_R   0.497633 0.065687 0.612852 -0.257438
C160  C     C_R   0.934296 0.498202 0.612853 -0.257430
H65   H     H_    0.007711 0.383522 0.102308 0.213887
H66   H     H_    0.616475 0.007748 0.102308 0.213886
H67   H     H_    0.992289 0.616478 0.102308 0.213887
H68   H     H_    0.383525 0.992252 0.102308 0.213886
H69   H     H_    0.504910 0.883369 0.602315 0.213991
H70   H     H_    0.116670 0.503884 0.602317 0.214016
H71   H     H_    0.495090 0.116631 0.602315 0.213990
H72   H     H_    0.883331 0.496116 0.602317 0.214017
C161  C     C_R   1.000000 0.500000 0.099056 -0.126982
C162  C     C_R   0.500000 0.000000 0.099056 -0.126981
C163  C     C_R   0.500000 0.000000 0.599060 -0.127060
C164  C     C_R   0.000000 0.500000 0.599061 -0.127072
C165  C     C_R   1.000000 0.500000 0.153947 0.075226
C166  C     C_R   0.500000 0.000000 0.153947 0.075222
C167  C     C_R   0.499999 0.000001 0.653954 0.075338
C168  C     C_R   0.000001 0.500001 0.653956 0.075380
C169  C     C_R   0.504396 0.065705 0.859435 -0.102791
C170  C     C_R   0.065676 0.495196 0.859435 -0.102876
C171  C     C_R   0.495604 0.934294 0.859435 -0.102791
C172  C     C_R   0.934323 0.504804 0.859435 -0.102876
C173  C     C_R   0.996569 0.434237 0.359436 -0.102533
C174  C     C_R   0.565762 0.996586 0.359436 -0.102532
C175  C     C_R   0.003431 0.565762 0.359436 -0.102534
C176  C     C_R   0.434237 0.003414 0.359436 -0.102532
H73   H     H_    0.507653 0.116719 0.848973 0.148641
H74   H     H_    0.116667 0.491617 0.848971 0.148497
H75   H     H_    0.492347 0.883280 0.848972 0.148641
H76   H     H_    0.883332 0.508383 0.848971 0.148498
H77   H     H_    0.994079 0.383175 0.348977 0.149095
H78   H     H_    0.616825 0.994109 0.348977 0.149099
H79   H     H_    0.005921 0.616824 0.348977 0.149095
H80   H     H_    0.383173 0.005890 0.348977 0.149099
C177  C     C_R   0.504287 0.065793 0.886626 -0.211485
C178  C     C_R   0.065765 0.495314 0.886626 -0.211416
C179  C     C_R   0.495713 0.934206 0.886626 -0.211485
C180  C     C_R   0.934234 0.504686 0.886626 -0.211416
C181  C     C_R   0.996654 0.434154 0.386627 -0.211716
C182  C     C_R   0.565846 0.996671 0.386627 -0.211718
C183  C     C_R   0.003346 0.565845 0.386627 -0.211716
C184  C     C_R   0.434153 0.003329 0.386627 -0.211717
H81   H     H_    0.507689 0.117319 0.896757 0.166881
H82   H     H_    0.117268 0.491590 0.896758 0.166837
H83   H     H_    0.492311 0.882681 0.896757 0.166880
H84   H     H_    0.882731 0.508410 0.896758 0.166837
H85   H     H_    0.994008 0.382582 0.396756 0.166985
H86   H     H_    0.617419 0.994038 0.396756 0.166987
H87   H     H_    0.005992 0.617417 0.396756 0.166985
H88   H     H_    0.382581 0.005961 0.396756 0.166986
C185  C     C_R   0.500000 1.000000 0.900498 -0.011443
C186  C     C_R   1.000000 0.500000 0.900498 -0.011408
C187  C     C_R   1.000000 0.500000 0.400498 -0.011510
C188  C     C_R   0.500000 1.000000 0.400498 -0.011510
C189  C     C_R   0.500000 1.000000 0.845739 0.311328
C190  C     C_R   0.999999 0.500000 0.845740 0.311553
C191  C     C_R   0.000000 0.499999 0.345737 0.310626
C192  C     C_R   0.499999 1.000000 0.345737 0.310619
N9    N     N_R   0.011196 0.364827 0.153509 0.233869
O69   O     O_R   0.989637 0.305204 0.142253 -0.335722
O70   O     O_R   0.044248 0.360235 0.175861 -0.363633
N10   N     N_R   0.635170 0.011240 0.153509 0.233870
O71   O     O_R   0.694800 0.989702 0.142252 -0.335722
O72   O     O_R   0.639751 0.044295 0.175861 -0.363632
N11   N     N_R   0.988804 0.635174 0.153509 0.233869
O73   O     O_R   0.010363 0.694797 0.142253 -0.335722
O74   O     O_R   0.955752 0.639766 0.175861 -0.363633
N12   N     N_R   0.364831 0.988760 0.153509 0.233869
O75   O     O_R   0.305201 0.010300 0.142252 -0.335721
O76   O     O_R   0.360250 0.955704 0.175861 -0.363633
N13   N     N_R   0.507832 0.864587 0.653515 0.233859
O77   O     O_R   0.484813 0.805524 0.642250 -0.335947
O78   O     O_R   0.540680 0.859166 0.675883 -0.363277
N14   N     N_R   0.135481 0.506601 0.653516 0.233839
O79   O     O_R   0.194333 0.483059 0.642246 -0.335980
O80   O     O_R   0.141206 0.539362 0.675891 -0.363263
N15   N     N_R   0.492168 0.135413 0.653515 0.233857
O81   O     O_R   0.515191 0.194477 0.642251 -0.335945
O82   O     O_R   0.459317 0.140837 0.675882 -0.363276
N16   N     N_R   0.864520 0.493401 0.653516 0.233838
O83   O     O_R   0.805668 0.516943 0.642246 -0.335980
O84   O     O_R   0.858795 0.460640 0.675891 -0.363264

loop_
_geom_bond_atom_site_label_1
_geom_bond_atom_site_label_2
_geom_bond_distance
_ccdc_geom_bond_type
C7    C163  1.477163 S    
C62   H6    1.082972 S    
Zn5   O51   1.949168 S    
C49   C65   1.412729 A    
C3    C188  1.475665 S    
C107  C133  1.412417 A    
C143  N7    1.370283 A    
C67   H11   1.082972 S    
C30   C46   1.387560 A    
Zn14  O4    1.943125 S    
O49   C23   1.273228 A    
C113  C117  1.395704 A    
C119  H59   1.083073 S    
Zn13  O35   1.942621 S    
O34   C22   1.276201 A    
C131  C143  1.403657 A    
C35   C86   1.489355 S    
O52   C22   1.273226 A    
O41   C15   1.273228 A    
C17   C53   1.445710 S    
C172  C180  1.395479 A    
C61   H5    1.082976 S    
Zn4   O2    1.946281 S    
C70   H14   1.082974 S    
C117  H57   1.083074 S    
O47   C17   1.273224 A    
C46   C62   1.412728 A    
C170  C190  1.400536 A    
C40   C56   1.387559 A    
C9    C45   1.445709 S    
C104  C108  1.408616 A    
C36   C37   1.349092 A    
C68   H12   1.082973 S    
C123  H63   1.083112 S    
C91   C97   1.404061 A    
C94   C104  1.404040 A    
C150  C158  1.401604 A    
O43   C13   1.273229 A    
C137  N5    1.370265 A    
C20   C54   1.445710 S    
O22   C10   1.276203 A    
C125  C133  1.408858 A    
C178  C186  1.406385 A    
C115  H55   1.083069 S    
Zn12  O24   1.942619 S    
C82   H42   1.111669 S    
Zn16  O4    1.943128 S    
C173  C191  1.400647 A    
Zn1   O13   1.923597 S    
C117  C125  1.404941 A    
C59   H3    1.082974 S    
Zn3   O15   1.923595 S    
C60   H4    1.082972 S    
C25   C32   1.349091 A    
Zn4   O16   1.923598 S    
C150  N14   1.441554 S    
C72   H16   1.082972 S    
Zn3   O41   1.949168 S    
C84   C85   1.540893 S    
C172  C190  1.400537 A    
C184  C188  1.406344 A    
Zn7   O3    1.946283 S    
C90   O54   1.349418 S    
C77   H21   1.111557 S    
C146  C166  1.416760 A    
O11   C3    1.291178 A    
C147  C155  1.401570 A    
C148  C156  1.401575 A    
C141  O65   1.349329 S    
C102  C114  1.405181 A    
C120  H60   1.083073 S    
C157  H69   1.082986 S    
C149  N13   1.441549 S    
C101  C107  1.408614 A    
C111  H51   1.083100 S    
Zn10  O22   1.942622 S    
C112  H52   1.083130 S    
Zn1   O43   1.949168 S    
C4    C187  1.475665 S    
Zn12  O28   1.942618 S    
Zn13  O29   1.942614 S    
Zn14  O34   1.942616 S    
C173  C181  1.395437 A    
Zn10  O2    1.943125 S    
N1    C189  1.435717 S    
C109  H49   1.083102 S    
Zn3   O1    1.946283 S    
Zn15  O33   1.942617 S    
C86   H46   1.111671 S    
N16   O83   1.301618 A    
C121  H61   1.083112 S    
C160  H72   1.082987 S    
C26   C79   1.489355 S    
C98   C106  1.408680 A    
C22   C52   1.445715 S    
N13   O78   1.301090 A    
C5    C161  1.477009 S    
C113  H53   1.083070 S    
C2    C185  1.475670 S    
C11   C47   1.445709 S    
O27   C15   1.276203 A    
O29   C17   1.276202 A    
C82   H26   1.111564 S    
C60   C61   1.404975 A    
C171  H75   1.082863 S    
O8    C2    1.291175 A    
C96   C102  1.404045 A    
C93   N3    1.370297 A    
C110  H50   1.083135 S    
C139  N5    1.370265 A    
C151  C167  1.416777 A    
C74   H34   1.111667 S    
O16   C6    1.286424 A    
O14   C6    1.286422 A    
C103  C107  1.408612 A    
Zn15  O9    1.920970 S    
C95   C101  1.404040 A    
C55   C71   1.412728 A    
O40   C10   1.273223 A    
C33   C88   1.489356 S    
C145  C165  1.416765 A    
C53   C69   1.412726 A    
C24   C50   1.445715 S    
C130  C142  1.403656 A    
O45   C19   1.273226 A    
C151  N15   1.441545 S    
C32   C73   1.489352 S    
C158  H70   1.082988 S    
Zn7   O45   1.949164 S    
C57   H1    1.082974 S    
N14   O79   1.301618 A    
C92   O56   1.349418 S    
Zn5   O17   1.923597 S    
C63   H7    1.082974 S    
O9    C3    1.291177 A    
C50   C66   1.412731 A    
C181  H85   1.082905 S    
C170  H74   1.082860 S    
C174  C182  1.395437 A    
C38   C54   1.387559 A    
N5    C165  1.437934 S    
C169  C177  1.395468 A    
N10   O72   1.301068 A    
C130  C136  1.408892 A    
Zn9   O27   1.942621 S    
C123  C131  1.404951 A    
C100  C106  1.408681 A    
C148  C166  1.416759 A    
C66   C71   1.404975 A    
Zn9   O7    1.920972 S    
O50   C24   1.273229 A    
Zn10  O8    1.920972 S    
C85   H45   1.111673 S    
Zn11  O5    1.920970 S    
C81   H41   1.111669 S    
O5    C1    1.291177 A    
O31   C19   1.276204 A    
C110  C122  1.395729 A    
C147  N11   1.441530 S    
C48   C64   1.412728 A    
C71   H15   1.082975 S    
C105  C135  1.412432 A    
Zn4   O44   1.949163 S    
C156  H68   1.082986 S    
C77   H37   1.111673 S    
C34   C39   1.349089 A    
C157  C163  1.401084 A    
C73   C80   1.540893 S    
C74   C79   1.540893 S    
C42   C58   1.412730 A    
C21   C49   1.445717 S    
C180  H84   1.082924 S    
C18   C56   1.445712 S    
C23   C51   1.445717 S    
C151  C159  1.401597 A    
C138  N6    1.370261 A    
C8    C164  1.477210 S    
Zn9   O1    1.943129 S    
N15   O82   1.301089 A    
C89   C99   1.404056 A    
C129  C135  1.408879 A    
C101  C113  1.405184 A    
C121  C129  1.404952 A    
C10   C48   1.445712 S    
C144  O68   1.349333 S    
C99   C111  1.405180 A    
C68   C69   1.404974 A    
C74   H18   1.111563 S    
C80   H40   1.111670 S    
C175  H79   1.082858 S    
Zn1   O1    1.946277 S    
C182  H86   1.082903 S    
C37   C84   1.489353 S    
Zn2   O14   1.923595 S    
C38   C83   1.489351 S    
Zn1   O39   1.949165 S    
C172  H76   1.082857 S    
Zn2   O40   1.949166 S    
C19   C55   1.445710 S    
N6    C166  1.437944 S    
C90   N2    1.370192 A    
C94   O58   1.349428 S    
C116  H56   1.083070 S    
C78   H22   1.111560 S    
C174  C192  1.400646 A    
C132  C144  1.403662 A    
C139  O63   1.349320 S    
C142  O66   1.349333 S    
C73   H17   1.111564 S    
C83   H43   1.111671 S    
O6    C2    1.291174 A    
O18   C8    1.286461 A    
N12   O75   1.301555 A    
C91   O55   1.349432 S    
Zn10  O26   1.942616 S    
O10   C4    1.291174 A    
C32   C48   1.387558 A    
C39   C55   1.387562 A    
C153  C161  1.401045 A    
N11   O73   1.301552 A    
Zn14  O30   1.942622 S    
Zn15  O3    1.943132 S    
N9    O70   1.301070 A    
C31   C47   1.387559 A    
C122  H62   1.083135 S    
C97   C105  1.408663 A    
C160  C164  1.401095 A    
C149  C157  1.401597 A    
Zn5   O47   1.949165 S    
C119  C127  1.404939 A    
C114  C118  1.395709 A    
Zn6   O48   1.949166 S    
C88   H48   1.111670 S    
C98   C110  1.405177 A    
O35   C23   1.276203 A    
C128  C140  1.403636 A    
C140  O64   1.349323 S    
Zn8   O46   1.949167 S    
C114  H54   1.083070 S    
C155  H67   1.082990 S    
O32   C20   1.276203 A    
C143  O67   1.349332 S    
C125  C137  1.403636 A    
C80   H24   1.111558 S    
C137  O61   1.349323 S    
C33   C40   1.349091 A    
C89   N1    1.370216 A    
C92   C98   1.404077 A    
O12   C4    1.291175 A    
C169  C189  1.400574 A    
O48   C18   1.273223 A    
O38   C12   1.273222 A    
C145  C153  1.401565 A    
Zn16  O10   1.920969 S    
C182  C188  1.406344 A    
Zn13  O3    1.943129 S    
C122  C130  1.404962 A    
C29   C76   1.489350 S    
C75   H35   1.111672 S    
C54   C70   1.412728 A    
C159  H71   1.082986 S    
C179  C185  1.406391 A    
C177  H81   1.082916 S    
C126  C134  1.408860 A    
C90   C100  1.404072 A    
O21   C9    1.276203 A    
C58   H2    1.082973 S    
C51   C67   1.412732 A    
Zn6   O18   1.923595 S    
C52   C68   1.412731 A    
C14   C44   1.445715 S    
C149  C167  1.416778 A    
C175  C191  1.400648 A    
Zn7   O49   1.949168 S    
C109  C121  1.395719 A    
C131  C135  1.408876 A    
C79   H39   1.111670 S    
C183  C187  1.406344 A    
C86   H30   1.111557 S    
C75   C78   1.540893 S    
C146  N10   1.441532 S    
C76   H36   1.111671 S    
C155  C161  1.401045 A    
N16   O84   1.301122 A    
C13   C41   1.445719 S    
C171  C189  1.400573 A    
C93   C103  1.404040 A    
C15   C43   1.445718 S    
O36   C24   1.276205 A    
O17   C7    1.286451 A    
N13   O77   1.301586 A    
C34   C87   1.489352 S    
Zn11  O1    1.943132 S    
C92   N2    1.370190 A    
C84   H44   1.111669 S    
C112  C124  1.395734 A    
C115  C119  1.395704 A    
C56   C72   1.412728 A    
Zn12  O2    1.943128 S    
Zn16  O36   1.942618 S    
O28   C16   1.276206 A    
N4    C192  1.435932 S    
Zn2   O42   1.949162 S    
Zn5   O3    1.946277 S    
Zn6   O4    1.946287 S    
C33   C49   1.387566 A    
C104  C116  1.405182 A    
O46   C20   1.273225 A    
C170  C178  1.395479 A    
C94   N4    1.370297 A    
C26   C42   1.387565 A    
C87   H47   1.111670 S    
C44   C60   1.412731 A    
N11   O74   1.301065 A    
C148  N12   1.441531 S    
C178  H82   1.082924 S    
C65   C72   1.404976 A    
N14   O80   1.301121 A    
C120  C128  1.404943 A    
C27   C43   1.387568 A    
C79   H23   1.111561 S    
C6    C162  1.477009 S    
O23   C11   1.276204 A    
C36   C52   1.387563 A    
C67   C70   1.404976 A    
C95   N3    1.370296 A    
C40   C81   1.489351 S    
Zn12  O6    1.920969 S    
Zn2   O2    1.946287 S    
Zn3   O37   1.949164 S    
C1    C186  1.475675 S    
O7    C1    1.291178 A    
O26   C14   1.276203 A    
Zn15  O31   1.942616 S    
N2    C190  1.435681 S    
C158  C164  1.401098 A    
Zn16  O32   1.942619 S    
C27   C30   1.349092 A    
N15   O81   1.301589 A    
C47   C63   1.412728 A    
C28   C44   1.387565 A    
O19   C7    1.286450 A    
Zn8   O4    1.946281 S    
C45   C61   1.412725 A    
C95   O59   1.349428 S    
C58   C63   1.404975 A    
O37   C11   1.273226 A    
C141  N7    1.370284 A    
C150  C168  1.416792 A    
C142  N8    1.370291 A    
C181  C187  1.406344 A    
C128  C134  1.408859 A    
O15   C5    1.286420 A    
O13   C5    1.286421 A    
C66   H10   1.082973 S    
C91   N1    1.370216 A    
C28   C77   1.489355 S    
C152  C160  1.401609 A    
C97   C109  1.405180 A    
O44   C14   1.273226 A    
C124  H64   1.083136 S    
C83   H27   1.111561 S    
C96   N4    1.370296 A    
C84   H28   1.111566 S    
O24   C12   1.276205 A    
C102  C108  1.408612 A    
O20   C8    1.286462 A    
C34   C50   1.387564 A    
C132  C136  1.408890 A    
C173  H77   1.082860 S    
C81   C88   1.540893 S    
C106  C136  1.412453 A    
C39   C82   1.489352 S    
O25   C13   1.276201 A    
C82   C87   1.540893 S    
C176  C192  1.400649 A    
C175  C183  1.395437 A    
C76   H20   1.111564 S    
C118  C126  1.404939 A    
C153  H65   1.082988 S    
C159  C163  1.401083 A    
C179  H83   1.082918 S    
C83   C86   1.540894 S    
C96   O60   1.349426 S    
C89   O53   1.349437 S    
C184  H88   1.082905 S    
C100  C112  1.405178 A    
C69   H13   1.082978 S    
C64   H8    1.082975 S    
C65   H9    1.082974 S    
C147  C165  1.416763 A    
C27   C78   1.489355 S    
C154  H66   1.082987 S    
C25   C80   1.489358 S    
C180  C186  1.406384 A    
C16   C42   1.445715 S    
C116  C120  1.395709 A    
C111  C123  1.395724 A    
C171  C179  1.395468 A    
C126  C138  1.403641 A    
O42   C16   1.273229 A    
C138  O62   1.349321 S    
N3    C191  1.435927 S    
C144  N8    1.370290 A    
C28   C29   1.349091 A    
C146  C154  1.401570 A    
Zn9   O21   1.942614 S    
C176  C184  1.395437 A    
C37   C53   1.387559 A    
C99   C105  1.408665 A    
Zn11  O23   1.942616 S    
C103  C115  1.405184 A    
C108  C134  1.412417 A    
C127  C133  1.408859 A    
C41   C57   1.412730 A    
C12   C46   1.445710 S    
Zn8   O52   1.949163 S    
C93   O57   1.349428 S    
N8    C168  1.437949 S    
O39   C9    1.273222 A    
C43   C59   1.412729 A    
C29   C45   1.387562 A    
N10   O71   1.301554 A    
C145  N9    1.441533 S    
N12   O76   1.301070 A    
C124  C132  1.404957 A    
Zn4   O38   1.949167 S    
Zn7   O19   1.923595 S    
C35   C51   1.387566 A    
O33   C21   1.276202 A    
C152  C168  1.416792 A    
C78   H38   1.111670 S    
C118  H58   1.083076 S    
C127  C139  1.403641 A    
Zn8   O20   1.923598 S    
C183  H87   1.082904 S    
C156  C162  1.401042 A    
C174  H78   1.082859 S    
C87   H31   1.111561 S    
C81   H25   1.111563 S    
C76   C77   1.540893 S    
C59   C62   1.404977 A    
C85   H29   1.111556 S    
C152  N16   1.441551 S    
N7    C167  1.437939 S    
N9    O69   1.301551 A    
C57   C64   1.404976 A    
C26   C31   1.349091 A    
C88   H32   1.111560 S    
Zn11  O25   1.942617 S    
C35   C38   1.349092 A    
C129  C141  1.403656 A    
C73   H33   1.111672 S    
C169  H73   1.082863 S    
C154  C162  1.401042 A    
Zn6   O50   1.949162 S    
C30   C75   1.489348 S    
C31   C74   1.489354 S    
C25   C41   1.387568 A    
O51   C21   1.273229 A    
Zn13  O11   1.920972 S    
C75   H19   1.111566 S    
C176  H80   1.082857 S    
Zn14  O12   1.920972 S    
C140  N6    1.370264 A    
C177  C185  1.406390 A    
C36   C85   1.489356 S    
O30   C18   1.276204 A    
