data_mof_unit_64372.cif
_audit_creation_date              2012-12-10T16:41:49-0500
_audit_creation_method            fapswitch 2.2
_symmetry_space_group_name_H-M    P1
_symmetry_Int_Tables_number       1
_space_group_crystal_system       triclinic
_cell_length_a                    26.191017
_cell_length_b                    26.180621
_cell_length_c                    18.44958
_cell_angle_alpha                 90.003073
_cell_angle_beta                  134.84641
_cell_angle_gamma                 90.009061
_cell_volume                      8969.43014614

loop_
_atom_site_label
_atom_site_type_symbol
_atom_type_description
_atom_site_fract_x
_atom_site_fract_y
_atom_site_fract_z
_atom_type_partial_charge
C1    C     C_R   0.611377 0.749787 0.499857 0.853256
C2    C     C_2   0.999627 0.280192 0.442667 -0.160783
C3    C     C_2   0.499381 0.219977 0.442207 -0.161027
C4    C     C_2   0.499405 0.779971 0.442219 -0.160435
C5    C     C_2   0.055599 0.752179 0.499001 -0.294748
C6    C     C_2   0.055636 0.247805 0.499058 -0.295585
C7    C     C_2   0.555560 0.252240 0.498915 -0.295236
C8    C     C_2   0.555596 0.747747 0.498970 -0.296193
C9    C     C_2   0.942107 0.720854 0.439985 -0.168525
C10   C     C_2   0.942145 0.279080 0.440006 -0.165750
C11   C     C_2   0.441895 0.221110 0.439545 -0.167550
C12   C     C_R   0.611363 0.250210 0.499841 0.851619
C13   C     C_2   0.441916 0.778825 0.439539 -0.162959
C14   C     C_2   0.946044 0.749169 0.504338 -0.293276
C15   C     C_2   0.946111 0.250862 0.504465 -0.294567
C16   C     C_2   0.446028 0.249194 0.504297 -0.293253
C17   C     C_2   0.446049 0.750796 0.504333 -0.295643
C18   C     C_2   0.793576 0.471457 0.497681 0.155115
C19   C     C_2   0.776480 0.526043 0.468502 0.162952
C20   C     C_2   0.219797 0.972266 0.417566 0.148367
C21   C     C_2   0.242911 0.025839 0.432837 0.180113
C22   C     C_2   0.750193 0.444005 0.498289 -0.368643
C23   C     C_R   0.111386 0.249799 0.499878 0.853160
C24   C     C_2   0.765342 0.556017 0.516229 -0.383261
C25   C     C_2   0.252612 0.943796 0.501530 -0.365252
C26   C     C_2   0.239735 0.055994 0.489245 -0.360158
C27   C     C_2   0.808799 0.028095 0.557814 -0.161719
C28   C     C_2   0.808801 0.971924 0.560364 -0.161843
C29   C     C_2   0.308797 0.528095 0.557797 -0.162043
C30   C     C_2   0.308801 0.471925 0.560347 -0.162106
C31   C     C_2   0.748473 0.056115 0.501449 -0.294949
C32   C     C_2   0.748503 0.943883 0.495648 -0.294248
C33   C     C_2   0.248473 0.556115 0.501447 -0.295011
C34   C     C_R   0.111370 0.750199 0.499857 0.851003
C35   C     C_2   0.248501 0.443883 0.495645 -0.294358
C36   C     C_R   0.888749 0.749800 0.500336 0.850305
C37   C     C_R   0.888761 0.250208 0.500363 0.853663
C38   C     C_R   0.388737 0.249817 0.500308 0.851681
C39   C     C_R   0.388737 0.750180 0.500310 0.857286
C40   C     C_R   0.749977 0.888540 0.499667 0.851608
C41   C     C_R   0.749962 0.111459 0.500298 0.852764
C42   C     C_R   0.249976 0.388539 0.499666 0.851244
C43   C     C_R   0.249962 0.611459 0.500298 0.852450
C44   C     C_R   0.751826 0.611168 0.501598 0.862791
C45   C     C_2   0.938406 0.753336 0.887746 -0.358084
C46   C     C_R   0.751269 0.388560 0.501087 0.853209
C47   C     C_R   0.249936 0.111239 0.499601 0.864627
C48   C     C_R   0.248632 0.888520 0.498530 0.851426
C49   C     C_R   0.612310 0.750472 0.222639 0.841390
C50   C     C_R   0.610859 0.250970 0.222659 0.841996
C51   C     C_R   0.112307 0.250471 0.222639 0.841783
C52   C     C_R   0.110894 0.750974 0.222617 0.841059
C53   C     C_R   0.888120 0.750230 0.777244 0.869517
C54   C     C_R   0.888872 0.250541 0.777248 0.869076
C55   C     C_R   0.388082 0.250263 0.777267 0.869108
C56   C     C_2   0.947121 0.255661 0.887667 -0.356246
C57   C     C_R   0.388871 0.750538 0.777250 0.869542
C58   C     C_2   0.044436 0.791127 0.053867 0.187291
C59   C     C_2   0.068762 0.234608 0.053737 0.182928
C60   C     C_2   0.541968 0.292099 0.054162 0.182963
C61   C     C_2   0.568754 0.734544 0.053741 0.183299
C62   C     C_2   0.057304 0.750691 0.111116 -0.367757
C63   C     C_2   0.056404 0.248527 0.111201 -0.365362
C64   C     C_2   0.556978 0.250840 0.111195 -0.364718
C65   C     C_2   0.556411 0.748528 0.111200 -0.366102
C66   C     C_2   0.995780 0.784161 0.942586 -0.156652
C67   C     C_2   0.438176 0.253306 0.887787 -0.357199
C68   C     C_2   0.006650 0.227103 0.942628 -0.158363
C69   C     C_2   0.493933 0.285647 0.942864 -0.157067
C70   C     C_2   0.506632 0.727067 0.942622 -0.158518
C71   C     C_3   0.080366 0.843042 0.101580 -0.331356
C72   C     C_3   0.045461 0.887606 0.025992 -0.927811
C73   C     C_3   0.144747 0.224864 0.101143 -0.330663
C74   C     C_3   0.151866 0.226934 0.025649 -0.914484
C75   C     C_3   0.575227 0.344473 0.102239 -0.327228
C76   C     C_3   0.534941 0.389375 0.027547 -0.919508
C77   C     C_3   0.644730 0.724701 0.101168 -0.330598
C78   C     C_2   0.447126 0.755653 0.887670 -0.356988
C79   C     C_3   0.651857 0.726577 0.025674 -0.914895
C80   C     C_3   0.859867 0.449025 0.527146 -0.344819
C81   C     C_3   0.928549 0.473640 0.625159 -0.888640
C82   C     C_3   0.767676 0.543900 0.381697 -0.343795
C83   C     C_3   0.834650 0.571356 0.419973 -0.797182
C84   C     C_3   0.159933 0.951799 0.308973 -0.363666
C85   C     C_3   0.094789 0.987458 0.243048 -0.909573
C86   C     C_3   0.269978 0.042844 0.385855 -0.344396
C87   C     C_3   0.350656 0.054487 0.467710 -0.835277
C88   C     C_2   0.999573 0.719775 0.442596 -0.160472
H1    H     H_    0.707294 0.462496 0.485597 0.126479
H2    H     H_    0.695870 0.960845 0.436171 0.150527
H3    H     H_    0.195816 0.539135 0.455351 0.150162
H4    H     H_    0.195867 0.460845 0.436178 0.150441
H5    H     H_    0.030174 0.714466 0.075643 0.142808
H6    H     H_    0.002283 0.256450 0.076060 0.141773
H7    H     H_    0.531595 0.214213 0.075629 0.141631
H8    H     H_    0.502304 0.756509 0.076058 0.141639
H9    H     H_    0.006077 0.806250 0.904233 0.187413
H10   H     H_    0.011097 0.198619 0.904585 0.186368
H11   H     H_    0.503167 0.309421 0.904830 0.186325
H12   H     H_    0.771505 0.539335 0.576030 0.148998
H13   H     H_    0.511042 0.698567 0.904561 0.186350
H14   H     H_    0.925019 0.732169 0.923092 0.159574
H15   H     H_    0.942419 0.285946 0.922850 0.160179
H16   H     H_    0.425693 0.230753 0.923024 0.159969
H17   H     H_    0.442444 0.785951 0.922855 0.160073
H18   H     H_    0.994591 0.691411 0.394921 0.175361
H19   H     H_    0.994648 0.308546 0.394987 0.175623
H20   H     H_    0.494282 0.191702 0.394309 0.175557
H21   H     H_    0.494289 0.808217 0.394274 0.176040
H22   H     H_    0.061657 0.781864 0.545321 0.150286
H23   H     H_    0.290046 0.961255 0.576954 0.135256
H24   H     H_    0.061666 0.218118 0.545351 0.150320
H25   H     H_    0.561692 0.281868 0.545388 0.150208
H26   H     H_    0.561741 0.718145 0.545486 0.150313
H27   H     H_    0.895360 0.696849 0.383424 0.171313
H28   H     H_    0.895344 0.302982 0.383288 0.173151
H29   H     H_    0.394973 0.197319 0.382625 0.172835
H30   H     H_    0.394979 0.802564 0.382551 0.174103
H31   H     H_    0.992438 0.772422 0.563576 0.150626
H32   H     H_    0.992571 0.227714 0.563857 0.150551
H33   H     H_    0.492582 0.272247 0.563847 0.150541
H34   H     H_    0.222841 0.039474 0.523690 0.138916
H35   H     H_    0.492617 0.727787 0.563940 0.150347
H36   H     H_    0.054973 0.884328 0.976314 0.257310
H37   H     H_    0.986726 0.889081 0.978429 0.273200
H38   H     H_    0.070060 0.924045 0.068890 0.255381
H39   H     H_    0.077664 0.852754 0.157469 0.204356
H40   H     H_    0.137815 0.840811 0.142584 0.225093
H41   H     H_    0.125780 0.193267 0.974084 0.255517
H42   H     H_    0.127664 0.262654 0.979909 0.271816
H43   H     H_    0.209772 0.226253 0.068582 0.253900
H44   H     H_    0.181526 0.254715 0.159624 0.209112
H45   H     H_    0.860860 0.046768 0.605443 0.175521
H46   H     H_    0.163702 0.186920 0.139183 0.219947
H47   H     H_    0.542159 0.389570 0.975060 0.255800
H48   H     H_    0.476693 0.387579 0.982749 0.271906
H49   H     H_    0.557046 0.425808 0.071055 0.252055
H50   H     H_    0.575211 0.351570 0.161650 0.207410
H51   H     H_    0.631802 0.344873 0.139280 0.222817
H52   H     H_    0.625740 0.692864 0.974235 0.255508
H53   H     H_    0.627695 0.762260 0.979805 0.272119
H54   H     H_    0.709764 0.725831 0.068617 0.253847
H55   H     H_    0.681532 0.754586 0.159540 0.209286
H56   H     H_    0.860842 0.953271 0.617190 0.175513
H57   H     H_    0.663660 0.686791 0.139346 0.220867
H58   H     H_    0.928135 0.515581 0.616137 0.268883
H59   H     H_    0.933851 0.465797 0.689403 0.261818
H60   H     H_    0.976054 0.457393 0.644358 0.248113
H61   H     H_    0.865474 0.407362 0.541518 0.209995
H62   H     H_    0.856497 0.454891 0.464317 0.199213
H63   H     H_    0.856149 0.599275 0.481209 0.269671
H64   H     H_    0.877648 0.543351 0.450345 0.236562
H65   H     H_    0.820883 0.591954 0.355444 0.236973
H66   H     H_    0.757091 0.510495 0.335458 0.175843
H67   H     H_    0.360858 0.546768 0.605413 0.175368
H68   H     H_    0.719054 0.568193 0.327276 0.215174
H69   H     H_    0.075755 0.994560 0.280187 0.267089
H70   H     H_    0.108647 0.024421 0.230900 0.260167
H71   H     H_    0.050282 0.969637 0.167265 0.254658
H72   H     H_    0.180220 0.946809 0.273145 0.200671
H73   H     H_    0.140056 0.914129 0.307976 0.209881
H74   H     H_    0.363588 0.085957 0.518698 0.261935
H75   H     H_    0.381187 0.019892 0.514744 0.248034
H76   H     H_    0.368459 0.065952 0.430423 0.241627
H77   H     H_    0.262029 0.011884 0.337585 0.186004
H78   H     H_    0.360843 0.453271 0.617162 0.175257
H79   H     H_    0.238621 0.075675 0.333429 0.224207
H80   H     H_    0.695815 0.039135 0.455343 0.150284
O1    O     O_3   0.750030 0.750030 0.500000 -0.484160
O2    O     O_R   0.750010 0.364550 0.560050 -0.633539
O3    O     O_R   0.250010 0.135450 0.560050 -0.642248
O4    O     O_R   0.250010 0.864550 0.560050 -0.636406
O5    O     O_R   0.605390 0.780070 0.439910 -0.641392
O6    O     O_R   0.605390 0.219930 0.439910 -0.642358
O7    O     O_R   0.105390 0.280070 0.439910 -0.641439
O8    O     O_R   0.105390 0.719930 0.439910 -0.642623
O9    O     O_R   0.834580 0.719970 0.439940 -0.651826
O10   O     O_R   0.834580 0.280030 0.439940 -0.647973
O11   O     O_R   0.334580 0.219970 0.439940 -0.648948
O12   O     O_3   0.750030 0.249970 0.500000 -0.485182
O13   O     O_R   0.334580 0.780030 0.439940 -0.642413
O14   O     O_R   0.665460 0.720000 0.560050 -0.644757
O15   O     O_R   0.665460 0.280000 0.560050 -0.645036
O16   O     O_R   0.165460 0.220000 0.560050 -0.644729
O17   O     O_R   0.165460 0.780000 0.560050 -0.645100
O18   O     O_R   0.894670 0.780060 0.560110 -0.644469
O19   O     O_R   0.894670 0.219940 0.560110 -0.644955
O20   O     O_R   0.394670 0.280060 0.560110 -0.644893
O21   O     O_R   0.394670 0.719940 0.560110 -0.645672
O22   O     O_R   0.689950 0.864610 0.439940 -0.645242
O23   O     O_3   0.250030 0.250030 0.500000 -0.484394
O24   O     O_R   0.689950 0.135390 0.439940 -0.644821
O25   O     O_R   0.189950 0.364610 0.439940 -0.645470
O26   O     O_R   0.189950 0.635390 0.439940 -0.644812
O27   O     O_R   0.750020 0.635440 0.439910 -0.638019
O28   O     O_R   0.750020 0.364560 0.439910 -0.655236
O29   O     O_R   0.250020 0.135440 0.439910 -0.642344
O30   O     O_R   0.250020 0.864560 0.439910 -0.650763
O31   O     O_R   0.605400 0.780060 0.270840 -0.634358
O32   O     O_R   0.605400 0.219940 0.270840 -0.634634
O33   O     O_R   0.105400 0.280060 0.270840 -0.634233
O34   O     O_3   0.250030 0.749970 0.500000 -0.485110
O35   O     O_R   0.105400 0.719940 0.270840 -0.634279
O36   O     O_R   0.834560 0.720000 0.729150 -0.642772
O37   O     O_R   0.834560 0.280000 0.729150 -0.642669
O38   O     O_R   0.334560 0.220000 0.729150 -0.643002
O39   O     O_R   0.334560 0.780000 0.729150 -0.642650
O40   O     O_R   0.665490 0.719970 0.270840 -0.656388
O41   O     O_R   0.665490 0.280030 0.270840 -0.653654
O42   O     O_R   0.165490 0.219970 0.270840 -0.657971
O43   O     O_R   0.165490 0.780030 0.270840 -0.659699
O44   O     O_R   0.894650 0.780070 0.729170 -0.644516
O45   O     O_R   0.810120 0.864610 0.560110 -0.642731
O46   O     O_R   0.894650 0.219930 0.729170 -0.644447
O47   O     O_R   0.394650 0.280070 0.729170 -0.644199
O48   O     O_R   0.394650 0.719930 0.729170 -0.644222
O49   O     O_R   0.810120 0.135390 0.560110 -0.642737
O50   O     O_R   0.310120 0.364610 0.560110 -0.642997
O51   O     O_R   0.310120 0.635390 0.560110 -0.643094
O52   O     O_R   0.750010 0.635450 0.560050 -0.641161
Zn1   Zn    Zn3+2 0.835880 0.792950 0.585850 0.961538
Zn2   Zn    Zn3+2 0.750030 0.292900 0.414160 0.942382
Zn3   Zn    Zn3+2 0.250030 0.207100 0.414160 0.940540
Zn4   Zn    Zn3+2 0.250030 0.792900 0.414160 0.944320
Zn5   Zn    Zn3+2 0.750010 0.707110 0.585820 0.970146
Zn6   Zn    Zn3+2 0.750010 0.292890 0.585820 0.969086
Zn7   Zn    Zn3+2 0.250010 0.207110 0.585820 0.969943
Zn8   Zn    Zn3+2 0.250010 0.792890 0.585820 0.969013
Zn9   Zn    Zn3+2 0.835880 0.207050 0.585850 0.962733
Zn10  Zn    Zn3+2 0.335880 0.292950 0.585850 0.961373
Zn11  Zn    Zn3+2 0.335880 0.707050 0.585850 0.964322
Zn12  Zn    Zn3+2 0.664180 0.792950 0.414160 0.967849
Zn13  Zn    Zn3+2 0.664180 0.207050 0.414160 0.967527
Zn14  Zn    Zn3+2 0.164180 0.292950 0.414160 0.967587
Zn15  Zn    Zn3+2 0.164180 0.707050 0.414160 0.965899
Zn16  Zn    Zn3+2 0.750030 0.707100 0.414160 0.938662

loop_
_geom_bond_atom_site_label_1
_geom_bond_atom_site_label_2
_ccdc_geom_bond_type
C61   C70   S    
C58   C62   D    
C87   H75   S    
C4    H21   S    
C75   C76   S    
O1    Zn16  S    
C77   H57   S    
C70   C78   D    
O47   Zn10  S    
C50   C64   S    
C73   C74   S    
C44   O52   A    
C3    C11   S    
O23   Zn10  S    
O26   Zn15  S    
C4    C8    D    
C13   H30   S    
C84   H72   S    
C70   H13   S    
O24   Zn13  S    
C79   H53   S    
C76   H49   S    
O23   Zn14  S    
C80   H62   S    
C37   O10   A    
C63   H6    S    
C1    O5    A    
C49   C65   S    
C30   C35   D    
C43   O26   A    
C66   H9    S    
C27   C28   S    
O21   Zn11  S    
C3    C7    D    
C10   C15   D    
C33   H3    S    
C9    C88   S    
C14   C36   S    
C39   O21   A    
C58   C71   S    
C64   H7    S    
O8    Zn15  S    
C23   O7    A    
C20   C25   D    
C6    C23   S    
C1    C8    S    
C29   C33   D    
C2    H19   S    
O48   Zn11  S    
C15   H32   S    
C18   C19   S    
C17   C39   S    
C4    C13   S    
C55   O38   A    
C35   C42   S    
C15   C37   S    
C73   H46   S    
O49   Zn9   S    
O34   Zn15  S    
C48   O4    A    
C5    C88   D    
O45   Zn1   S    
C17   H35   S    
C65   H8    S    
O50   Zn10  S    
C50   O41   A    
C61   C77   S    
C81   H59   S    
C40   O45   A    
C52   O43   A    
C49   O40   A    
O12   Zn2   S    
C28   H56   S    
O19   Zn9   S    
C19   C82   S    
C59   C73   S    
C36   O18   A    
C38   O11   A    
C8    H26   S    
C29   H67   S    
C82   H68   S    
C35   H4    S    
C81   H60   S    
C79   H52   S    
C73   H44   S    
C45   C53   S    
C18   C22   D    
C74   H43   S    
C72   H36   S    
O13   Zn4   S    
O41   Zn2   S    
C48   O30   A    
C71   H39   S    
C2    C6    D    
C86   H77   S    
C85   H69   S    
O20   Zn10  S    
O15   Zn6   S    
C32   H2    S    
C76   H47   S    
C58   C66   S    
C67   H16   S    
O9    Zn16  S    
C83   H63   S    
O44   Zn1   S    
C77   C79   S    
C76   H48   S    
C80   H61   S    
O1    Zn1   S    
O12   Zn9   S    
C53   O36   A    
C86   H79   S    
C27   C31   D    
C33   C43   S    
O34   Zn4   S    
C28   C32   D    
C51   C63   S    
C84   C85   S    
C30   H78   S    
C9    C14   D    
C50   O32   A    
C86   C87   S    
O34   Zn8   S    
C42   O50   A    
C56   C68   D    
O17   Zn8   S    
C47   O29   A    
C75   H50   S    
C20   C84   S    
C46   O2    A    
C82   H66   S    
O11   Zn3   S    
C31   H80   S    
C67   C69   D    
C9    H27   S    
C42   O25   A    
O30   Zn4   S    
C16   H33   S    
C77   H55   S    
O35   Zn15  S    
C29   C30   S    
O5    Zn12  S    
C59   C68   S    
C88   H18   S    
C11   C16   D    
C47   O3    A    
C57   O48   A    
O7    Zn14  S    
C5    C34   S    
C62   H5    S    
O37   Zn6   S    
O14   Zn5   S    
O32   Zn13  S    
C34   O17   A    
C25   C48   S    
C39   O13   A    
C26   C47   S    
C69   H11   S    
C22   C46   S    
O18   Zn1   S    
O3    Zn7   S    
O12   Zn13  S    
C81   H58   S    
C78   H17   S    
C24   C44   S    
O1    Zn5   S    
C71   H40   S    
C74   H41   S    
C85   H70   S    
C11   H29   S    
O6    Zn13  S    
O23   Zn3   S    
O25   Zn14  S    
O38   Zn7   S    
C10   H28   S    
C12   O6    A    
C83   H64   S    
C49   O31   A    
C54   O46   A    
O2    Zn6   S    
O40   Zn16  S    
C21   C86   S    
C44   O27   A    
O23   Zn7   S    
O42   Zn3   S    
C31   C41   S    
C41   O24   A    
C7    C12   S    
C24   H12   S    
C6    H24   S    
C57   C78   S    
C43   O51   A    
C36   O9    A    
C56   H15   S    
O51   Zn11  S    
C80   C81   S    
O29   Zn3   S    
O31   Zn12  S    
C41   O49   A    
C1    O14   A    
C54   C56   S    
C46   O28   A    
C83   H65   S    
C3    H20   S    
C26   H34   S    
C57   O39   A    
C60   C75   S    
C59   C63   D    
O1    Zn12  S    
C13   C17   D    
C72   H37   S    
C60   C64   D    
C52   O35   A    
C7    H25   S    
C74   H42   S    
C19   C24   D    
C23   O16   A    
C52   C62   S    
C55   O47   A    
O4    Zn8   S    
C51   O42   A    
O33   Zn14  S    
C37   O19   A    
C55   C67   S    
C60   C69   S    
C53   O44   A    
C38   O20   A    
O43   Zn4   S    
C21   C26   D    
O12   Zn6   S    
C12   O15   A    
C22   H1    S    
O52   Zn5   S    
C87   H76   S    
O22   Zn12  S    
C32   C40   S    
O27   Zn16  S    
C68   H10   S    
C34   O8    A    
C45   H14   S    
C25   H23   S    
C79   H54   S    
C61   C65   D    
O39   Zn8   S    
C71   C72   S    
C87   H74   S    
C40   O22   A    
C20   C21   S    
C18   C80   S    
C14   H31   S    
C5    H22   S    
C27   H45   S    
C72   H38   S    
C45   C66   D    
O10   Zn2   S    
C75   H51   S    
C85   H71   S    
O16   Zn7   S    
C82   C83   S    
O36   Zn5   S    
O46   Zn9   S    
O28   Zn2   S    
C84   H73   S    
C51   O33   A    
C16   C38   S    
O34   Zn11  S    
C54   O37   A    
C2    C10   S    
