data_mof_unit_64560.cif
_audit_creation_date              2012-12-10T19:37:35-0500
_audit_creation_method            fapswitch 2.2
_symmetry_space_group_name_H-M    P1
_symmetry_Int_Tables_number       1
_space_group_crystal_system       triclinic
_cell_length_a                    13.892497
_cell_length_b                    15.868174
_cell_length_c                    17.028296
_cell_angle_alpha                 95.334471
_cell_angle_beta                  89.194785
_cell_angle_gamma                 83.038987
_cell_volume                      3708.8369161

loop_
_atom_site_label
_atom_site_type_symbol
_atom_type_description
_atom_site_fract_x
_atom_site_fract_y
_atom_site_fract_z
_atom_type_partial_charge
C1    C     C_R   0.502420 0.509487 0.651366 0.840068
C2    C     C_R   0.497583 0.490512 0.348635 0.840070
C3    C     C_R   0.468390 0.591642 0.865001 0.630018
C4    C     C_R   0.531668 0.408367 0.135002 0.630022
C5    C     C_R   0.464917 0.585803 0.783234 -0.293373
C6    C     C_R   0.535130 0.414207 0.216769 -0.293372
C7    C     C_R   0.453241 0.250349 0.539596 -0.011050
C8    C     C_R   0.546758 0.749651 0.460403 -0.011059
C9    C     C_R   0.456302 0.161211 0.537199 0.480329
C10   C     C_R   0.543697 0.838789 0.462800 0.480327
C11   C     C_R   0.520094 0.107603 0.483457 0.215362
C12   C     C_R   0.479907 0.892397 0.516543 0.215361
C13   C     C_R   0.579323 0.147125 0.433596 -0.238361
C14   C     C_R   0.420678 0.852875 0.566405 -0.238360
C15   C     C_R   0.573857 0.236761 0.438136 -0.008859
C16   C     C_R   0.426145 0.763239 0.561865 -0.008863
C17   C     C_R   0.316361 0.513260 0.500683 0.822149
C18   C     C_R   0.683639 0.486740 0.499317 0.822142
C19   C     C_1   0.786905 0.479290 0.498912 -0.135837
C20   C     C_1   0.213095 0.520710 0.501088 -0.135833
C21   C     C_2   0.977683 0.465032 0.498130 -0.142641
C22   C     C_2   0.022317 0.534968 0.501869 -0.142638
C23   C     C_1   0.126097 0.527551 0.501463 0.033191
C24   C     C_1   0.873903 0.472449 0.498537 0.033189
C25   C     C_R   0.509672 0.513184 0.737664 -0.165689
C26   C     C_R   0.490343 0.486814 0.262337 -0.165680
C27   C     C_R   0.562618 0.446808 0.775127 -0.110840
C28   C     C_R   0.437378 0.553177 0.224870 -0.110837
C29   C     C_R   0.566432 0.453059 0.858043 -0.170295
C30   C     C_R   0.433579 0.546927 0.141953 -0.170280
C31   C     C_R   0.515937 0.524775 0.902968 0.213887
C32   C     C_R   0.484101 0.475223 0.097032 0.213885
Cu1   Cu    Cu3+1 0.495370 0.585120 0.503830 0.974230
Cu2   Cu    Cu3+1 0.504630 0.414880 0.496170 0.974229
H1    H     H_    0.981229 0.598053 0.505249 0.171496
H2    H     H_    0.018771 0.401947 0.494751 0.171495
H3    H     H_    0.425503 0.637775 0.755442 0.190642
H4    H     H_    0.574560 0.362245 0.244565 0.190632
H5    H     H_    0.619532 0.266541 0.399707 0.155889
H6    H     H_    0.380470 0.733459 0.600295 0.155891
N1    N     N_2   0.512740 0.532174 0.986383 -0.186445
N2    N     N_2   0.487300 0.467822 0.013618 -0.186471
N3    N     N_R   0.511590 0.287020 0.490400 -0.221532
N4    N     N_R   0.488410 0.712980 0.509600 -0.221533
N5    N     N_2   0.527368 0.015723 0.477326 -0.111059
N6    N     N_2   0.472633 0.984277 0.522674 -0.111058
O1    O     O_R   0.495670 0.579790 0.617520 -0.583577
O2    O     O_R   0.504330 0.420210 0.382480 -0.583576
O3    O     O_R   0.503490 0.436020 0.611040 -0.579625
O4    O     O_R   0.496510 0.563980 0.388960 -0.579623
O5    O     O_R   0.357690 0.582040 0.503680 -0.570878
O6    O     O_R   0.642310 0.417960 0.496320 -0.570883
O7    O     O_R   0.365510 0.438280 0.497200 -0.580500
O8    O     O_R   0.634490 0.561720 0.502800 -0.580499
C33   C     C_1   0.383749 0.625940 0.270795 0.306802
N7    N     N_1   0.340974 0.683985 0.307381 -0.246342
C34   C     C_1   0.616208 0.374026 0.729201 0.306824
N8    N     N_1   0.658951 0.315966 0.692612 -0.246347
C35   C     C_1   0.374814 0.611991 0.103284 0.377118
N9    N     N_1   0.327723 0.663960 0.072632 -0.162166
C36   C     C_1   0.625183 0.387982 0.896707 0.377119
N10   N     N_1   0.672263 0.336003 0.927354 -0.162131
F1    F     F_    0.422693 0.661922 0.907751 -0.622024
F2    F     F_    0.577395 0.338097 0.092255 -0.622029
C37   C     C_1   0.613180 0.697740 0.404766 0.445132
N11   N     N_1   0.666855 0.656676 0.359803 -0.266226
C38   C     C_1   0.386818 0.302260 0.595233 0.445131
N12   N     N_1   0.333143 0.343324 0.640195 -0.266232
F3    F     F_    0.603030 0.871733 0.412656 -0.632106
F4    F     F_    0.396968 0.128267 0.587342 -0.632106
C39   C     C_1   0.646229 0.096497 0.377263 0.372728
N13   N     N_1   0.699899 0.055849 0.332069 -0.189625
C40   C     C_1   0.353774 0.903503 0.622739 0.372729
N14   N     N_1   0.300105 0.944151 0.667934 -0.189627

loop_
_geom_bond_atom_site_label_1
_geom_bond_atom_site_label_2
_ccdc_geom_bond_type
N5    N6    D    
C3    C31   A    
C33   N7    T    
C6    H4    S    
C35   N9    T    
C7    N3    A    
Cu1   O5    S    
C11   C13   A    
N1    N2    D    
C4    F2    S    
C26   C28   A    
C20   C23   T    
C30   C35   S    
C17   O5    A    
C28   C30   A    
C19   C24   T    
C18   O6    A    
C39   N13   T    
C2    C26   S    
C21   H2    S    
C6    C26   A    
C21   C22   D    
C9    F4    S    
C30   C32   A    
C22   H1    S    
C9    C11   A    
C15   H5    S    
C34   N8    T    
C4    C32   A    
C10   C12   A    
C16   H6    S    
C5    C25   A    
C12   N6    S    
C28   C33   S    
C12   C14   A    
Cu1   Cu2   S    
C3    F1    S    
C13   C15   A    
C2    O4    A    
C27   C34   S    
C36   N10   T    
Cu1   O1    S    
C14   C16   A    
C11   N5    S    
C4    C6    A    
Cu2   O2    S    
C5    H3    S    
C18   O8    A    
C31   N1    S    
C15   N3    A    
C38   N12   T    
C14   C40   S    
C17   O7    A    
C8    C37   S    
C17   C20   S    
C27   C29   A    
Cu2   O7    S    
C29   C31   A    
C37   N11   T    
C40   N14   T    
C21   C24   S    
Cu1   O8    S    
C7    C9    A    
C16   N4    A    
C10   F3    S    
C18   C19   S    
Cu2   O3    S    
C32   N2    S    
Cu2   O6    S    
C13   C39   S    
C29   C36   S    
C2    O2    A    
Cu1   O4    S    
C22   C23   S    
Cu1   N4    S    
C7    C38   S    
C1    C25   S    
C8    C10   A    
C1    O1    A    
Cu2   N3    S    
C8    N4    A    
C3    C5    A    
C25   C27   A    
C1    O3    A    
