data_mof_unit_11620.cif
_audit_creation_date              2012-12-10T18:19:56-0500
_audit_creation_method            fapswitch 2.2
_symmetry_space_group_name_H-M    P1
_symmetry_Int_Tables_number       1
_space_group_crystal_system       triclinic
_cell_length_a                    10.62
_cell_length_b                    10.616794
_cell_length_c                    9.490057
_cell_angle_alpha                 90.049112
_cell_angle_beta                  90.68984
_cell_angle_gamma                 90.170928
_cell_volume                      1069.92452829

loop_
_atom_site_label
_atom_site_type_symbol
_atom_type_description
_atom_site_fract_x
_atom_site_fract_y
_atom_site_fract_z
_atom_type_partial_charge
C1    C     C_R   0.500090 0.259874 0.500103 0.827192
C2    C     C_R   0.499910 0.740126 0.499897 0.827199
C3    C     C_3   0.404145 0.956908 0.578731 -0.254031
C4    C     C_3   0.595854 0.043092 0.421270 -0.254031
C5    C     C_3   0.572901 0.586342 0.050726 0.021984
C6    C     C_3   0.427098 0.413658 0.949274 0.022015
C7    C     C_3   0.461542 0.606078 0.950675 0.032747
C8    C     C_3   0.538458 0.393922 0.049324 0.032767
C9    C     C_3   0.612692 0.480192 0.950240 -0.010068
C10   C     C_3   0.387308 0.519809 0.049760 -0.010083
C11   C     C_R   0.259781 0.498754 0.499134 0.868786
C12   C     C_R   0.740219 0.501245 0.500866 0.868784
C13   C     C_3   0.043073 0.414867 0.595208 -0.271359
C14   C     C_3   0.956927 0.585132 0.404792 -0.271366
C15   C     C_3   0.955401 0.383485 0.467778 -0.318763
C16   C     C_3   0.044599 0.616514 0.532223 -0.318761
C17   C     C_3   0.877050 0.501306 0.502229 -0.106524
C18   C     C_3   0.122950 0.498693 0.497771 -0.106526
C19   C     C_3   0.963691 0.532121 0.627364 0.599439
C20   C     C_3   0.036309 0.467878 0.372636 0.599438
C21   C     C_3   0.513776 0.041441 0.633725 -0.218012
C22   C     C_3   0.486224 0.958559 0.366275 -0.218011
C23   C     C_3   0.608702 0.959765 0.553503 0.044074
C24   C     C_3   0.391298 0.040235 0.446497 0.044068
C25   C     C_3   0.500567 0.876849 0.499408 0.005558
C26   C     C_3   0.499433 0.123151 0.500592 0.005556
Cu1   Cu    Cu3+1 0.500030 0.499990 0.643150 0.988964
Cu2   Cu    Cu3+1 0.499970 0.500010 0.356850 0.988950
H1    H     H_    0.915820 0.289284 0.441723 0.158563
H2    H     H_    0.084179 0.710715 0.558278 0.158569
H3    H     H_    0.080685 0.346646 0.673433 0.204834
H4    H     H_    0.919315 0.653353 0.326567 0.204840
H5    H     H_    0.526826 0.076063 0.743327 0.140876
H6    H     H_    0.473174 0.923937 0.256672 0.140866
H7    H     H_    0.325293 0.919525 0.642257 0.168101
H8    H     H_    0.674707 0.080475 0.357743 0.168087
H9    H     H_    0.707138 0.463029 0.905339 0.194603
H10   H     H_    0.292862 0.536972 0.094660 0.194599
N1    N     N_3   0.500090 0.499970 0.858290 -0.226934
N2    N     N_3   0.499910 0.500030 0.141710 -0.226940
O1    O     O_R   0.500060 0.316850 0.620870 -0.620597
O2    O     O_R   0.499940 0.683150 0.379130 -0.620598
O3    O     O_R   0.500000 0.316860 0.379090 -0.571036
O4    O     O_R   0.500000 0.683140 0.620910 -0.571019
O5    O     O_R   0.316880 0.499960 0.620870 -0.585680
O6    O     O_R   0.683120 0.500040 0.379130 -0.585689
O7    O     O_R   0.316830 0.499970 0.379090 -0.542295
O8    O     O_R   0.683170 0.500030 0.620910 -0.542293
O9    O     O_3   0.917191 0.563707 0.761435 -0.565132
C27   C     C_3   0.017179 0.607989 0.847125 -0.191372
H11   H     H_    0.049254 0.702295 0.811450 0.194154
H12   H     H_    0.097505 0.540914 0.850426 0.179070
H13   H     H_    0.983029 0.618686 0.956306 0.217778
O10   O     O_3   0.082808 0.436292 0.238565 -0.565125
C28   C     C_3   0.982818 0.392013 0.152875 -0.191378
H14   H     H_    0.902494 0.459091 0.149574 0.179063
H15   H     H_    0.950740 0.297708 0.188549 0.194141
H16   H     H_    0.016968 0.381315 0.043693 0.217784
C29   C     C_2   0.732741 0.918163 0.613927 0.330231
H17   H     H_    0.800443 0.988237 0.649674 0.078010
O11   O     O_2   0.758526 0.806562 0.623109 -0.524827
C30   C     C_2   0.267259 0.081837 0.386073 0.330228
H18   H     H_    0.199557 0.011763 0.350326 0.078006
O12   O     O_2   0.241474 0.193438 0.376891 -0.524824
C31   C     C_2   0.417267 0.730883 0.896707 0.357305
H19   H     H_    0.484533 0.797819 0.855010 0.092402
O13   O     O_2   0.306168 0.759055 0.902352 -0.591372
C32   C     C_2   0.582731 0.269113 0.103284 0.357274
H20   H     H_    0.515474 0.202188 0.145007 0.092441
O14   O     O_2   0.693815 0.240917 0.097585 -0.591380
C33   C     C_2   0.657062 0.687220 0.109517 0.399913
H21   H     H_    0.617487 0.765802 0.166344 0.070520
O15   O     O_2   0.770343 0.683080 0.090839 -0.577093
C34   C     C_2   0.342937 0.312780 0.890483 0.399895
H22   H     H_    0.382509 0.234204 0.833644 0.070532
O16   O     O_2   0.229657 0.316916 0.909175 -0.577086

loop_
_geom_bond_atom_site_label_1
_geom_bond_atom_site_label_2
_ccdc_geom_bond_type
Cu1   O8    S    
C7    C10   S    
C21   C26   S    
C4    H8    S    
C11   C18   S    
C11   O7    A    
C12   O8    A    
Cu2   O7    S    
C23   C29   S    
Cu2   O6    S    
C34   O16   D    
C13   C18   S    
C24   C26   S    
C21   H5    S    
Cu2   N2    S    
C16   H2    S    
C9    N1    S    
C10   N2    S    
Cu1   O1    S    
C30   O12   D    
Cu1   O4    S    
C1    O3    A    
C2    O4    A    
C8    C9    S    
C31   O13   D    
C22   C25   S    
C12   C17   S    
C27   H12   S    
C6    C34   S    
C18   C20   S    
Cu1   O5    S    
C29   H17   S    
C14   C17   S    
C3    C24   S    
C15   H1    S    
C21   C23   S    
C15   C20   S    
C22   H6    S    
C29   O11   D    
C27   H13   S    
C34   H22   S    
C13   C19   S    
C14   C20   S    
C3    C25   S    
C12   O6    A    
Cu1   N1    S    
C5    C7    S    
C4    C23   S    
C32   H20   S    
C6    C8    S    
C5    C9    S    
C30   H18   S    
C7    C31   S    
C4    C22   S    
C19   O9    S    
C3    H7    S    
C28   H14   S    
C9    H9    S    
C27   H11   S    
C20   O10   S    
C8    C32   S    
C28   H15   S    
C1    C26   S    
C14   C16   S    
C3    C21   S    
C31   H19   S    
C33   O15   D    
C1    O1    A    
C15   C17   S    
O10   C28   S    
C24   C30   S    
C13   H3    S    
C14   H4    S    
C6    C10   S    
C4    C26   S    
Cu2   O3    S    
C10   H10   S    
C13   C15   S    
C33   H21   S    
C5    C33   S    
C2    O2    A    
C16   C19   S    
Cu2   O2    S    
C17   C19   S    
C2    C25   S    
C22   C24   S    
C23   C25   S    
C11   O5    A    
C16   C18   S    
O9    C27   S    
C28   H16   S    
Cu1   Cu2   S    
C32   O14   D    
C7    N1    S    
C6    N1    S    
C8    N2    S    
C5    N2    S    
