data_mof_unit_51774.cif
_audit_creation_date              2013-03-05T15:48:37-0500
_audit_creation_method            fapswitch 2.2
_symmetry_space_group_name_H-M    P1
_symmetry_Int_Tables_number       1
_space_group_crystal_system       triclinic
_cell_length_a                    16.701001
_cell_length_b                    16.653866
_cell_length_c                    43.045572
_cell_angle_alpha                 89.80946
_cell_angle_beta                  90.135266
_cell_angle_gamma                 119.902995
_cell_volume                      10378.5773469

loop_
_atom_site_label
_atom_site_type_symbol
_atom_site_description
_atom_site_fract_x
_atom_site_fract_y
_atom_site_fract_z
_atom_type_partial_charge
O1    O     O_R   0.509640 0.171340 0.784000 -0.479476
O2    O     O_R   0.661700 0.490360 0.716000 -0.484031
O3    O     O_R   0.828660 0.338300 0.784000 -0.464547
O4    O     O_R   0.509640 0.171340 0.716000 -0.482328
O5    O     O_R   0.661700 0.490360 0.784000 -0.488636
O6    O     O_R   0.828660 0.338300 0.716000 -0.484182
O7    O     O_R   0.171340 0.509640 0.284000 -0.483602
O8    O     O_R   0.490360 0.661700 0.216000 -0.473492
O9    O     O_R   0.338300 0.828660 0.284000 -0.480689
O10   O     O_R   0.171340 0.509640 0.216000 -0.465336
O11   O     O_R   0.490360 0.661700 0.284000 -0.482503
O12   O     O_R   0.338300 0.828660 0.216000 -0.480867
O13   O     O_R   0.539230 0.345420 0.781810 -0.483066
O14   O     O_R   0.806190 0.460770 0.718190 -0.468743
O15   O     O_R   0.654580 0.193810 0.781810 -0.461096
O16   O     O_R   0.539230 0.345420 0.718190 -0.467078
O17   O     O_R   0.806190 0.460770 0.781810 -0.455833
O18   O     O_R   0.654580 0.193810 0.718190 -0.469243
O19   O     O_R   0.345420 0.539230 0.281810 -0.469020
O20   O     O_R   0.460770 0.806190 0.218190 -0.468372
O21   O     O_R   0.193810 0.654580 0.281810 -0.467780
O22   O     O_R   0.345420 0.539230 0.218190 -0.474124
O23   O     O_R   0.460770 0.806190 0.281810 -0.468642
O24   O     O_R   0.193810 0.654580 0.218190 -0.466579
C1    C     C_R   0.584166 0.425856 0.794518 0.615823
C2    C     C_R   0.842666 0.416210 0.705548 0.619295
C3    C     C_R   0.573675 0.157059 0.794582 0.595774
C4    C     C_R   0.584022 0.426712 0.705548 0.622045
C5    C     C_R   0.844701 0.417659 0.794226 0.598331
C6    C     C_R   0.573455 0.157427 0.705562 0.620581
C7    C     C_R   0.426548 0.583794 0.294434 0.621712
C8    C     C_R   0.415578 0.841781 0.205257 0.602329
C9    C     C_R   0.157366 0.573374 0.294453 0.620591
C10   C     C_R   0.425949 0.583972 0.205450 0.610917
C11   C     C_R   0.415992 0.842529 0.294460 0.622412
C12   C     C_R   0.157303 0.574128 0.205278 0.599268
Cr1   Cr    Cr6+3 0.530290 0.262330 0.750000 1.085919
Cr2   Cr    Cr6+3 0.732040 0.469710 0.750000 1.086613
Cr3   Cr    Cr6+3 0.737670 0.267960 0.750000 1.089388
Cr4   Cr    Cr6+3 0.262330 0.530290 0.250000 1.086143
Cr5   Cr    Cr6+3 0.469710 0.732040 0.250000 1.085516
Cr6   Cr    Cr6+3 0.267960 0.737670 0.250000 1.085430
O25   O     O_3   0.666667 0.333333 0.750000 -0.278850
O26   O     O_3   0.333333 0.666667 0.250000 -0.283072
H1    H     H_    0.777855 0.413099 0.979573 0.165639
H2    H     H_    0.325651 0.996955 0.527815 0.168764
H3    H     H_    0.630280 0.692456 0.968241 0.175282
H4    H     H_    0.004027 0.328601 0.528420 0.170744
H5    H     H_    0.267819 0.912036 0.968989 0.183764
H6    H     H_    0.669612 0.675844 0.527883 0.170749
H7    H     H_    0.330072 0.005143 0.471716 0.168947
H8    H     H_    0.798978 0.422008 0.035192 0.180023
H9    H     H_    0.674538 0.670993 0.471804 0.168477
H10   H     H_    0.259613 0.883114 0.024349 0.176669
H11   H     H_    0.995870 0.324428 0.472303 0.170415
H12   H     H_    0.623795 0.708875 0.023732 0.174351
C13   C     C_R   0.901238 0.456360 0.823069 0.028017
C14   C     C_R   0.559126 0.116020 0.674323 0.052994
C15   C     C_R   0.562999 0.431781 0.827170 0.046459
C16   C     C_R   0.883926 0.443520 0.674283 0.053013
C17   C     C_R   0.556257 0.104752 0.824287 0.028518
C18   C     C_R   0.556884 0.441383 0.674304 0.052106
C19   C     C_R   0.443074 0.883813 0.325728 0.052128
C20   C     C_R   0.109753 0.561079 0.174690 0.034918
C21   C     C_R   0.440866 0.556314 0.325673 0.052700
C22   C     C_R   0.447065 0.889841 0.174903 0.037369
C23   C     C_R   0.116055 0.558966 0.325710 0.052593
C24   C     C_R   0.440506 0.550687 0.175372 0.033084
C25   C     C_R   0.117056 0.581633 0.026538 0.056356
C26   C     C_R   0.597912 0.989133 0.467170 0.028038
C27   C     C_R   0.457342 0.392106 0.039234 0.023611
C28   C     C_R   0.010077 0.607917 0.466925 0.056781
C29   C     C_R   0.575411 0.067040 0.036353 0.052478
C30   C     C_R   0.393779 0.400327 0.466939 0.057022
C31   C     C_R   0.606733 0.008009 0.533221 0.046437
C32   C     C_R   0.091983 0.575650 0.960971 0.050405
C33   C     C_R   0.402136 0.392167 0.532980 0.057076
C34   C     C_R   0.583117 0.101129 0.971395 0.045479
C35   C     C_R   0.992046 0.599100 0.532912 0.056642
C36   C     C_R   0.465774 0.373166 0.973909 0.022720
C37   C     C_R   0.126231 0.580082 0.059228 0.500098
C38   C     C_R   0.586765 0.974866 0.434489 0.493921
C39   C     C_R   0.455088 0.405334 0.071711 0.463256
C40   C     C_R   0.024292 0.611175 0.434292 0.517275
C41   C     C_R   0.568080 0.046549 0.068575 0.512406
C42   C     C_R   0.390483 0.410969 0.434268 0.517110
C43   C     C_R   0.610212 0.022618 0.565821 0.512773
C44   C     C_R   0.076067 0.567976 0.928435 0.513841
C45   C     C_R   0.412744 0.389209 0.565661 0.517426
C46   C     C_R   0.583137 0.116890 0.939121 0.472237
C47   C     C_R   0.977573 0.588239 0.565545 0.516948
C48   C     C_R   0.463908 0.366985 0.941077 0.449048
O27   O     O_2   0.202734 0.613823 0.071130 -0.456522
O28   O     O_2   0.637156 0.955215 0.419903 -0.475827
O29   O     O_2   0.421062 0.339074 0.089408 -0.422301
O30   O     O_2   0.043324 0.681401 0.419662 -0.411240
O31   O     O_2   0.636765 0.080686 0.085079 -0.408023
O32   O     O_2   0.320733 0.359337 0.419702 -0.412106
O33   O     O_2   0.680120 0.041201 0.580412 -0.415027
O34   O     O_2   0.140416 0.606396 0.910249 -0.381036
O35   O     O_2   0.361840 0.319101 0.580297 -0.411073
O36   O     O_2   0.647029 0.186616 0.927730 -0.449222
O37   O     O_2   0.958916 0.639791 0.579970 -0.411495
O38   O     O_2   0.418210 0.292107 0.928303 -0.449637
N1    N     N_R   0.048987 0.540067 0.078084 -0.352692
N2    N     N_R   0.516631 0.979898 0.418991 -0.347867
N3    N     N_R   0.491836 0.493383 0.083809 -0.371427
N4    N     N_R   0.019913 0.536129 0.418948 -0.360941
N5    N     N_R   0.483262 0.987246 0.081699 -0.353205
N6    N     N_R   0.464888 0.481906 0.418815 -0.361044
N7    N     N_R   0.535756 0.019109 0.581169 -0.359735
N8    N     N_R   0.987557 0.516310 0.916910 -0.362559
N9    N     N_R   0.482806 0.464406 0.581055 -0.361292
N10   N     N_R   0.508500 0.057228 0.920712 -0.371938
N11   N     N_R   0.981215 0.517236 0.581118 -0.361269
N12   N     N_R   0.512324 0.445581 0.923099 -0.371386
C49   C     C_R   0.961306 0.499428 0.065745 0.480123
C50   C     C_R   0.457940 0.001219 0.434855 0.467984
C51   C     C_R   0.538329 0.570734 0.065301 0.447345
C52   C     C_R   0.999167 0.456149 0.435010 0.466171
C53   C     C_R   0.403496 0.948291 0.064177 0.471690
C54   C     C_R   0.544386 0.541505 0.434783 0.466020
C55   C     C_R   0.456212 0.998943 0.565119 0.467185
C56   C     C_R   0.912151 0.476347 0.936400 0.459840
C57   C     C_R   0.541547 0.544357 0.565016 0.466478
C58   C     C_R   0.423037 0.014506 0.935403 0.470728
C59   C     C_R   0.001552 0.457613 0.565294 0.466395
C60   C     C_R   0.556198 0.532356 0.936346 0.454264
O39   O     O_2   0.894238 0.466210 0.082999 -0.443205
O40   O     O_2   0.402867 0.015456 0.420524 -0.480778
O41   O     O_2   0.571816 0.647952 0.076782 -0.508189
O42   O     O_2   0.985515 0.386870 0.420850 -0.481140
O43   O     O_2   0.329180 0.896750 0.076473 -0.502706
O44   O     O_2   0.613282 0.597231 0.420531 -0.480912
O45   O     O_2   0.387360 0.986047 0.579284 -0.478607
O46   O     O_2   0.834346 0.432090 0.925507 -0.488238
O47   O     O_2   0.596480 0.613796 0.579208 -0.478514
O48   O     O_2   0.352777 0.995061 0.921063 -0.424591
O49   O     O_2   0.014620 0.401673 0.579663 -0.478489
O50   O     O_2   0.599050 0.600976 0.919983 -0.487753
C61   C     C_R   0.948936 0.496218 0.033455 0.038538
C62   C     C_R   0.458018 0.001937 0.467335 0.059756
C63   C     C_R   0.545590 0.561146 0.033281 0.041736
C64   C     C_R   0.998327 0.455529 0.467513 0.056651
C65   C     C_R   0.407489 0.966565 0.032227 0.037023
C66   C     C_R   0.544800 0.541680 0.467278 0.057315
C67   C     C_R   0.455581 0.997835 0.532612 0.056988
C68   C     C_R   0.924324 0.485785 0.968630 0.042581
C69   C     C_R   0.541751 0.544695 0.532520 0.057191
C70   C     C_R   0.417039 0.999355 0.967704 0.024530
C71   C     C_R   0.002564 0.457774 0.532794 0.056797
C72   C     C_R   0.552397 0.542065 0.968565 0.040643
C73   C     C_R   0.027150 0.537277 0.013709 -0.063965
C74   C     C_R   0.529122 0.997340 0.483631 -0.049479
C75   C     C_R   0.503902 0.471513 0.020076 -0.064847
C76   C     C_R   0.002441 0.531242 0.483603 -0.060249
C77   C     C_R   0.494016 0.024605 0.018135 -0.072937
C78   C     C_R   0.469629 0.469969 0.483496 -0.059801
C79   C     C_R   0.530660 0.000943 0.516517 -0.060447
C80   C     C_R   0.014729 0.533081 0.981066 -0.064432
C81   C     C_R   0.470902 0.468736 0.516364 -0.059988
C82   C     C_R   0.498476 0.040389 0.985696 -0.084734
C83   C     C_R   0.999092 0.529649 0.516467 -0.060266
C84   C     C_R   0.506955 0.462025 0.987495 -0.063403
C85   C     C_R   0.194609 0.626118 0.006477 0.093660
C86   C     C_R   0.672812 0.992337 0.484194 0.093437
C87   C     C_R   0.414231 0.302540 0.025440 0.121176
C88   C     C_R   0.006900 0.679931 0.483431 0.102195
C89   C     C_R   0.661163 0.127286 0.021793 0.087209
C90   C     C_R   0.322514 0.324938 0.483590 0.102068
C91   C     C_R   0.677986 0.003860 0.516751 0.144138
C92   C     C_R   0.182083 0.623911 0.973908 0.093172
C93   C     C_R   0.327650 0.319921 0.516377 0.102257
C94   C     C_R   0.664909 0.143702 0.989408 0.088783
C95   C     C_R   0.996012 0.674591 0.516178 0.101984
C96   C     C_R   0.428084 0.293529 0.993393 0.120799
C97   C     C_R   0.859872 0.453116 0.020574 -0.127751
C98   C     C_R   0.386127 0.003200 0.483763 -0.094539
C99   C     C_R   0.591218 0.639606 0.014126 -0.112588
C100  C     C_R   0.997484 0.382495 0.484171 -0.091913
C101  C     C_R   0.326772 0.927483 0.014061 -0.131610
C102  C     C_R   0.616928 0.614451 0.483784 -0.092442
C103  C     C_R   0.383223 0.997799 0.515954 -0.093743
C104  C     C_R   0.847756 0.448016 0.988613 -0.134514
C105  C     C_R   0.613726 0.617600 0.515952 -0.090950
C106  C     C_R   0.331419 0.944222 0.982269 -0.120113
C107  C     C_R   0.002879 0.385246 0.516369 -0.091306
C108  C     C_R   0.594691 0.630194 0.982228 -0.112448
C109  C     C_R   0.041434 0.464670 0.128519 0.223741
C110  C     C_R   0.405228 0.871487 0.380864 0.215138
C111  C     C_R   0.541776 0.532623 0.138527 0.246683
C112  C     C_R   0.128391 0.533188 0.380891 0.215832
C113  C     C_R   0.445803 0.998177 0.136511 0.220370
C114  C     C_R   0.466082 0.593415 0.380836 0.216375
C115  C     C_R   0.533878 0.128592 0.619123 0.216155
C116  C     C_R   0.974316 0.431477 0.868657 0.221649
C117  C     C_R   0.594480 0.467371 0.619164 0.215678
C118  C     C_R   0.448088 0.009337 0.865057 0.224272
C119  C     C_R   0.871691 0.406064 0.619132 0.216100
C120  C     C_R   0.482226 0.465036 0.867818 0.248336
C121  C     C_R   0.063463 0.472594 0.160488 0.021263
C122  C     C_R   0.378556 0.843437 0.350033 0.014490
C123  C     C_R   0.525387 0.555498 0.168603 0.025036
C124  C     C_R   0.156496 0.534695 0.350072 0.014863
C125  C     C_R   0.430625 0.962927 0.167175 0.021034
C126  C     C_R   0.464293 0.620481 0.350044 0.015066
C127  C     C_R   0.535478 0.156918 0.649918 0.015206
C128  C     C_R   0.942014 0.409262 0.837874 0.024989
C129  C     C_R   0.621310 0.465782 0.649986 0.014893
C130  C     C_R   0.465105 0.042673 0.834038 0.030047
C131  C     C_R   0.843266 0.379210 0.649940 0.015316
C132  C     C_R   0.502182 0.462938 0.835921 0.016891
C133  C     C_R   0.120394 0.639201 0.157701 0.038478
C134  C     C_R   0.532190 0.957849 0.331966 0.031213
C135  C     C_R   0.371684 0.522046 0.152262 0.070501
C136  C     C_R   0.041947 0.574067 0.331877 0.031781
C137  C     C_R   0.482555 0.854849 0.152180 0.038105
C138  C     C_R   0.426889 0.467220 0.331789 0.031727
C139  C     C_R   0.573478 0.041229 0.668229 0.031995
C140  C     C_R   0.907620 0.535777 0.837709 0.032805
C141  C     C_R   0.467731 0.426358 0.668099 0.031515
C142  C     C_R   0.629769 0.117111 0.843677 0.028680
C143  C     C_R   0.958451 0.532578 0.668112 0.031836
C144  C     C_R   0.603489 0.401931 0.849748 0.077874
C145  C     C_R   0.095459 0.630028 0.126121 0.101149
C146  C     C_R   0.556411 0.992055 0.362712 0.112335
C147  C     C_R   0.387769 0.499534 0.122513 0.084679
C148  C     C_R   0.007725 0.563959 0.362619 0.109583
C149  C     C_R   0.497986 0.890469 0.121673 0.100143
C150  C     C_R   0.437313 0.442693 0.362509 0.109783
C151  C     C_R   0.563228 0.006776 0.637515 0.109894
C152  C     C_R   0.942798 0.559138 0.868177 0.107921
C153  C     C_R   0.443346 0.436568 0.637351 0.109534
C154  C     C_R   0.611259 0.083529 0.874447 0.115195
C155  C     C_R   0.992963 0.556888 0.637388 0.109899
C156  C     C_R   0.585827 0.405760 0.881257 0.083943
C157  C     C_R   0.061212 0.544460 0.111309 0.230102
C158  C     C_R   0.493532 0.947464 0.387245 0.233930
C159  C     C_R   0.472715 0.505237 0.115546 0.192761
C160  C     C_R   0.052355 0.545554 0.387209 0.227237
C161  C     C_R   0.478184 0.960516 0.113839 0.229265
C162  C     C_R   0.454945 0.505192 0.387108 0.227105
C163  C     C_R   0.545434 0.051845 0.612877 0.227828
C164  C     C_R   0.971975 0.504636 0.883918 0.236019
C165  C     C_R   0.506104 0.455018 0.612805 0.227201
C166  C     C_R   0.521652 0.049836 0.887005 0.198503
C167  C     C_R   0.948249 0.494219 0.612819 0.227295
C168  C     C_R   0.524748 0.436557 0.890413 0.190261
N13   N     N_3   0.875623 0.590833 0.822088 -0.580551
H13   H     H_    0.930068 0.659050 0.820498 0.240631
H14   H     H_    0.822113 0.589645 0.834998 0.244193
N14   N     N_3   0.596446 0.999802 0.693427 -0.620667
H15   H     H_    0.545711 0.929999 0.695054 0.237639
H16   H     H_    0.659721 0.004061 0.688545 0.245961
N15   N     N_3   0.662344 0.366480 0.840394 -0.591255
H17   H     H_    0.632999 0.298212 0.848329 0.251740
H18   H     H_    0.725961 0.405087 0.851514 0.261045
N16   N     N_3   0.999572 0.596747 0.693245 -0.620418
H19   H     H_    0.069191 0.615535 0.694898 0.237814
H20   H     H_    0.995270 0.655945 0.688269 0.246116
N17   N     N_3   0.723166 0.167391 0.832746 -0.581313
H21   H     H_    0.752836 0.125198 0.834538 0.238500
H22   H     H_    0.759708 0.225473 0.846893 0.250990
N18   N     N_3   0.403485 0.402688 0.693217 -0.617003
H23   H     H_    0.383936 0.453162 0.694791 0.238419
H24   H     H_    0.344936 0.339026 0.688285 0.246032
N19   N     N_3   0.596569 0.998767 0.306880 -0.618868
H25   H     H_    0.616103 0.068802 0.305259 0.238323
H26   H     H_    0.655102 0.993602 0.311884 0.245658
N20   N     N_3   0.159451 0.728549 0.172141 -0.575300
H27   H     H_    0.112162 0.752171 0.170673 0.243187
H28   H     H_    0.219912 0.774876 0.160413 0.243611
N21   N     N_3   0.404154 0.403240 0.306611 -0.619125
H29   H     H_    0.455101 0.384482 0.304993 0.238377
H30   H     H_    0.341018 0.343994 0.311509 0.246329
N22   N     N_3   0.497459 0.779311 0.159704 -0.588423
H31   H     H_    0.566564 0.799550 0.155444 0.254213
H32   H     H_    0.455605 0.723182 0.145413 0.230988
N23   N     N_3   0.001001 0.597698 0.306727 -0.619655
H33   H     H_    0.931241 0.547253 0.305150 0.237984
H34   H     H_    0.005846 0.661395 0.311626 0.246396
N24   N     N_3   0.287048 0.521323 0.158516 -0.579813
H35   H     H_    0.232365 0.454713 0.154088 0.270632
H36   H     H_    0.281711 0.567326 0.143200 0.249819
N25   N     N_3   0.261232 0.670331 0.953941 -0.503372
H37   H     H_    0.297130 0.740860 0.959356 0.241896
H38   H     H_    0.304426 0.642460 0.957478 0.257477
N26   N     N_3   0.755337 0.008881 0.533152 -0.521731
H39   H     H_    0.757444 0.948178 0.528897 0.252006
H40   H     H_    0.815876 0.065072 0.524475 0.261242
N27   N     N_3   0.409261 0.205192 0.981012 -0.537392
H41   H     H_    0.465250 0.216747 0.967070 0.240205
H42   H     H_    0.413987 0.164582 0.998661 0.227178
N28   N     N_3   0.991244 0.747156 0.532525 -0.539827
H43   H     H_    0.934625 0.751620 0.524345 0.241663
H44   H     H_    0.051721 0.809967 0.528410 0.231145
N29   N     N_3   0.752584 0.198496 0.974372 -0.531635
H45   H     H_    0.792331 0.166627 0.977591 0.246322
H46   H     H_    0.786734 0.263981 0.984501 0.237164
N30   N     N_3   0.255904 0.242361 0.532883 -0.539444
H47   H     H_    0.192767 0.239153 0.528586 0.231755
H48   H     H_    0.252662 0.181532 0.524993 0.240786
N31   N     N_3   0.746638 0.986746 0.469239 -0.625275
H49   H     H_    0.777147 0.039167 0.452535 0.278509
H50   H     H_    0.720559 0.921596 0.459003 0.294608
N32   N     N_3   0.286407 0.674383 0.019198 -0.551281
H51   H     H_    0.318498 0.743908 0.012471 0.232646
H52   H     H_    0.324229 0.644679 0.010680 0.236877
N33   N     N_3   0.245900 0.252149 0.467128 -0.539941
H53   H     H_    0.243986 0.189433 0.471444 0.230831
H54   H     H_    0.184680 0.247646 0.475039 0.241961
N34   N     N_3   0.744618 0.171730 0.039853 -0.513329
H55   H     H_    0.791051 0.152306 0.031367 0.247919
H56   H     H_    0.773929 0.243503 0.037813 0.248809
N35   N     N_3   0.012496 0.757580 0.466855 -0.539914
H57   H     H_    0.952385 0.760623 0.470870 0.231781
H58   H     H_    0.069479 0.818389 0.474933 0.240745
N36   N     N_3   0.352870 0.222065 0.043664 -0.507010
H59   H     H_    0.301302 0.233831 0.052470 0.257543
H60   H     H_    0.315479 0.163603 0.029847 0.243868
N37   N     N_3   0.944713 0.635367 0.884282 -0.581226
H61   H     H_    0.877401 0.624040 0.885761 0.244774
H62   H     H_    0.985166 0.696102 0.871654 0.256885
N38   N     N_3   0.569626 0.925750 0.631073 -0.563000
H63   H     H_    0.518853 0.870362 0.643864 0.232133
H64   H     H_    0.634411 0.937548 0.638266 0.260539
N39   N     N_3   0.632942 0.380577 0.903816 -0.565272
H65   H     H_    0.667055 0.435165 0.919506 0.257784
H66   H     H_    0.584557 0.321893 0.915898 0.273447
N40   N     N_3   0.073708 0.644197 0.630869 -0.563025
H67   H     H_    0.128910 0.648531 0.643706 0.232213
H68   H     H_    0.061787 0.697286 0.637958 0.260479
N41   N     N_3   0.680956 0.077721 0.892356 -0.554753
H69   H     H_    0.740675 0.142779 0.893136 0.294131
H70   H     H_    0.697310 0.032268 0.881078 0.236447
N42   N     N_3   0.355812 0.429387 0.630774 -0.562894
H71   H     H_    0.350708 0.479932 0.643526 0.232288
H72   H     H_    0.303359 0.364177 0.637925 0.260552
N43   N     N_3   0.643907 0.072323 0.369299 -0.565958
H73   H     H_    0.649077 0.128124 0.356488 0.232011
H74   H     H_    0.696401 0.059647 0.362229 0.257858
N44   N     N_3   0.107383 0.708144 0.108238 -0.574743
H75   H     H_    0.177098 0.759158 0.108568 0.281686
H76   H     H_    0.068576 0.734621 0.118357 0.250755
N45   N     N_3   0.431259 0.355336 0.368997 -0.562538
H77   H     H_    0.482117 0.351083 0.356208 0.232284
H78   H     H_    0.366537 0.302299 0.361830 0.260576
N46   N     N_3   0.529873 0.853242 0.097803 -0.582968
H79   H     H_    0.482225 0.782777 0.095201 0.258212
H80   H     H_    0.593376 0.860754 0.104575 0.264482
N47   N     N_3   0.927388 0.571152 0.369141 -0.563478
H81   H     H_    0.871908 0.520561 0.356389 0.232206
H82   H     H_    0.939692 0.636336 0.361954 0.260439
N48   N     N_3   0.318353 0.475214 0.099010 -0.585596
H83   H     H_    0.346749 0.521876 0.080512 0.257807
H84   H     H_    0.298344 0.408719 0.090952 0.264928
N49   N     N_3   0.042250 0.391522 0.178397 -0.571762
H85   H     H_    0.970527 0.349406 0.179502 0.281720
H86   H     H_    0.070015 0.355107 0.167341 0.264853
N50   N     N_3   0.288363 0.767188 0.343475 -0.583935
H87   H     H_    0.239384 0.786492 0.348945 0.283467
H88   H     H_    0.277548 0.711778 0.357639 0.250412
N51   N     N_3   0.593001 0.581006 0.192787 -0.588868
H89   H     H_    0.612485 0.530427 0.194425 0.268971
H90   H     H_    0.650763 0.644419 0.187032 0.284540
N52   N     N_3   0.232788 0.520712 0.343566 -0.584085
H91   H     H_    0.213797 0.452379 0.349121 0.283214
H92   H     H_    0.287886 0.565161 0.357703 0.250754
N53   N     N_3   0.400568 0.002147 0.190950 -0.583488
H93   H     H_    0.444786 0.073881 0.191284 0.271009
H94   H     H_    0.333661 0.988003 0.185747 0.282784
N54   N     N_3   0.477192 0.710648 0.343574 -0.584839
H95   H     H_    0.545108 0.760189 0.349136 0.282891
H96   H     H_    0.432378 0.720645 0.357731 0.250919
N55   N     N_3   0.522159 0.233839 0.656358 -0.584869
H97   H     H_    0.454174 0.215267 0.650780 0.283380
H98   H     H_    0.566837 0.288981 0.642206 0.250380
N56   N     N_3   0.953140 0.340812 0.821285 -0.570200
H99   H     H_    0.023325 0.361107 0.821149 0.266734
H100  H     H_    0.917503 0.277431 0.832872 0.272109
N57   N     N_3   0.711565 0.479758 0.656531 -0.583894
H101  H     H_    0.760463 0.548105 0.650998 0.283158
H102  H     H_    0.722374 0.435346 0.642400 0.250576
N58   N     N_3   0.391589 0.009803 0.811711 -0.576223
H103  H     H_    0.362075 0.938090 0.809445 0.273508
H104  H     H_    0.341785 0.025379 0.819631 0.282558
N59   N     N_3   0.766535 0.289106 0.656450 -0.584294
H105  H     H_    0.785117 0.239498 0.650982 0.283320
H106  H     H_    0.711664 0.279020 0.642248 0.250626
N60   N     N_3   0.459105 0.488939 0.812151 -0.610005
H107  H     H_    0.387576 0.451764 0.815431 0.275580
H108  H     H_    0.482227 0.559667 0.814147 0.283981
N61   N     N_R   0.004007 0.376729 0.113147 0.094224
O51   O     O_R   0.042609 0.368656 0.088033 -0.308849
O52   O     O_R   0.929079 0.305272 0.123419 -0.280585
N62   N     N_R   0.344510 0.819489 0.405986 0.091493
O53   O     O_R   0.260145 0.804107 0.406827 -0.281877
O54   O     O_R   0.374565 0.789825 0.428692 -0.248343
N63   N     N_R   0.628065 0.537543 0.131134 0.102644
O55   O     O_R   0.706074 0.610583 0.138268 -0.313498
O56   O     O_R   0.629142 0.471557 0.115375 -0.247724
N64   N     N_R   0.180378 0.524322 0.406055 0.092249
O57   O     O_R   0.196260 0.455402 0.406993 -0.282277
O58   O     O_R   0.209584 0.583868 0.428695 -0.249305
N65   N     N_R   0.427759 0.071394 0.128194 0.098332
O59   O     O_R   0.349274 0.065478 0.135203 -0.304602
O60   O     O_R   0.487013 0.141162 0.111567 -0.248807
N66   N     N_R   0.474117 0.653622 0.406021 0.091578
O61   O     O_R   0.542335 0.738504 0.407009 -0.289482
O62   O     O_R   0.414564 0.622588 0.428640 -0.250121
N67   N     N_R   0.525669 0.181011 0.593911 0.092041
O63   O     O_R   0.457356 0.197553 0.592917 -0.281145
O64   O     O_R   0.585158 0.209882 0.571273 -0.249344
N68   N     N_R   0.004781 0.376366 0.885011 0.083302
O65   O     O_R   0.947290 0.289310 0.890578 -0.336180
O66   O     O_R   0.088722 0.413892 0.895652 -0.244788
N69   N     N_R   0.655079 0.476248 0.594034 0.091294
O67   O     O_R   0.739419 0.545270 0.593098 -0.282056
O68   O     O_R   0.624988 0.416525 0.571446 -0.249804
N70   N     N_R   0.366401 0.922268 0.871689 0.120222
O69   O     O_R   0.285206 0.906167 0.862769 -0.292324
O70   O     O_R   0.373102 0.858738 0.887270 -0.269917
N71   N     N_R   0.819638 0.345707 0.593965 0.092093
O71   O     O_R   0.803142 0.260708 0.593115 -0.281595
O72   O     O_R   0.791063 0.376719 0.571223 -0.249500
N72   N     N_R   0.418296 0.494342 0.877355 0.107983
O73   O     O_R   0.424189 0.569709 0.866123 -0.288906
O74   O     O_R   0.357016 0.448530 0.898678 -0.253759

loop_
_geom_bond_atom_site_label_1
_geom_bond_atom_site_label_2
_geom_bond_distance
_ccdc_geom_bond_type
C88   C95   1.418550 A    
N15   H18   1.043960 S    
N49   H85   1.044690 S    
C38   O28   1.219855 D    
C19   C122  1.409276 A    
N67   O64   1.301161 A    
C51   C63   1.400523 A    
H11   C100  1.083571 S    
N4    C52   1.380991 Am   
N27   H41   1.045955 S    
C52   C64   1.399140 A    
C109  C157  1.407355 A    
C120  C168  1.415876 A    
N31   H50   1.045070 S    
N63   O56   1.301101 A    
N41   H69   1.045182 S    
C85   N32   1.437577 S    
C33   C45   1.421215 A    
N24   H35   1.044702 S    
C134  N19   1.434049 S    
C8    C22   1.483606 S    
N70   O69   1.301483 A    
C42   N6    1.384653 Am   
N62   O54   1.301159 A    
N8    C56   1.377824 Am   
O21   C9    1.292883 A    
C145  C157  1.398586 A    
N54   H95   1.044776 S    
O10   Cr4   2.010293 S    
C68   C80   1.414168 A    
C18   C141  1.406394 A    
O12   Cr6   2.009155 S    
C54   C66   1.398764 A    
H5    C106  1.083441 S    
N38   H63   1.044990 S    
C120  N72   1.438649 S    
C152  N37   1.434751 S    
C123  N51   1.434728 S    
H7    C98   1.083601 S    
C146  N43   1.433721 S    
C43   O33   1.221049 D    
O1    Cr1   2.005921 S    
C71   C83   1.411905 A    
O3    Cr3   2.012331 S    
N2    C50   1.380204 Am   
N68   O66   1.300394 A    
O7    C9    1.278347 A    
Cr6   O26   1.969145 S    
C45   N9    1.384690 Am   
C147  N48   1.435503 S    
N35   H58   1.044996 S    
N40   H67   1.044990 S    
C91   N26   1.436189 S    
C10   C24   1.477587 S    
N44   H75   1.044672 S    
C56   O46   1.223157 D    
N60   H108  1.044478 S    
C99   C108  1.387131 A    
C102  C105  1.388014 A    
C36   C48   1.416494 A    
C100  C107  1.388099 A    
O14   Cr2   1.903650 S    
C65   C77   1.413517 A    
N6    C162  1.449272 S    
O15   C3    1.295868 A    
N31   H49   1.045385 S    
C121  N49   1.435328 S    
N32   H51   1.044754 S    
C112  C124  1.404230 A    
O14   C2    1.293426 A    
C48   N12   1.380924 Am   
O15   Cr3   1.901223 S    
C28   C40   1.421502 A    
C57   C69   1.398803 A    
O5    C1    1.283863 A    
N66   O62   1.301141 A    
C145  N44   1.435423 S    
N57   H101  1.044767 S    
N20   H28   1.045353 S    
N59   H105  1.044767 S    
C142  N17   1.433227 S    
N30   H47   1.044944 S    
C7    C21   1.475954 S    
C142  C154  1.409724 A    
N7    C163  1.449930 S    
C45   O35   1.221011 D    
C47   O37   1.221024 D    
N42   H71   1.044992 S    
N58   H104  1.045204 S    
N55   H97   1.044770 S    
C89   N34   1.436981 S    
C97   C104  1.386803 A    
N61   O51   1.301167 A    
O23   Cr5   1.902156 S    
C109  C121  1.413127 A    
Cr2   O25   1.969251 S    
N25   H38   1.044945 S    
N65   O59   1.300688 A    
N5    C53   1.378863 Am   
N9    C165  1.449294 S    
C117  C165  1.411170 A    
N46   H79   1.045118 S    
C117  N69   1.439156 S    
C17   C130  1.411880 A    
C46   N10   1.390923 Am   
C26   C38   1.423737 A    
C41   O31   1.221616 D    
C15   C144  1.406351 A    
C48   O38   1.222081 D    
O21   Cr6   1.900031 S    
N8    C164  1.439426 S    
N37   H61   1.045093 S    
N1    C157  1.441142 S    
C11   C19   1.477187 S    
C129  N57   1.433264 S    
N56   H99   1.045575 S    
C12   C20   1.495435 S    
C77   C82   1.415268 A    
N6    C54   1.380845 Am   
H1    C104  1.083931 S    
N26   H40   1.045726 S    
N14   H15   1.044923 S    
C64   C76   1.411940 A    
C28   C76   1.412161 A    
C156  C168  1.408484 A    
C151  C163  1.411417 A    
N47   H81   1.044988 S    
C141  N18   1.434089 S    
C153  C165  1.411136 A    
N13   H13   1.044969 S    
C136  C148  1.418548 A    
N27   H42   1.044191 S    
C148  C160  1.411349 A    
C22   C137  1.413688 A    
N17   H21   1.044938 S    
N10   C58   1.389989 Am   
C112  C160  1.411278 A    
N63   O55   1.300688 A    
C65   C101  1.405679 A    
N34   H55   1.044839 S    
C32   C92   1.418989 A    
C24   C135  1.410450 A    
H8    C97   1.083578 S    
C54   O44   1.223285 D    
N36   H60   1.042839 S    
C59   C71   1.399096 A    
C60   C72   1.402057 A    
C36   C84   1.412117 A    
C64   C100  1.403896 A    
N34   H56   1.045059 S    
N18   H23   1.044928 S    
C51   O41   1.223344 D    
C21   C138  1.406310 A    
C63   C99   1.403903 A    
C49   O39   1.222953 D    
C35   C47   1.421520 A    
C68   C104  1.403726 A    
C156  N39   1.435523 S    
N23   H34   1.045061 S    
O22   Cr4   1.903782 S    
C27   C87   1.424432 A    
C28   C88   1.419605 A    
C23   C136  1.406372 A    
N50   H87   1.044762 S    
N69   O68   1.301151 A    
O4    Cr1   2.012077 S    
C27   C39   1.419436 A    
N33   H54   1.044986 S    
C90   N33   1.436575 S    
O22   C10   1.290867 A    
C37   N1    1.382492 Am   
C111  C159  1.410676 A    
C113  C125  1.413947 A    
C20   C133  1.422281 A    
O8    Cr5   2.012403 S    
N39   H66   1.043938 S    
C22   C125  1.413356 A    
C110  C122  1.404181 A    
C55   O45   1.223265 D    
C127  N55   1.433212 S    
C116  C128  1.408773 A    
C150  C162  1.411209 A    
O2    Cr2   2.007891 S    
C63   C75   1.415516 A    
N23   H33   1.044923 S    
N22   H32   1.044556 S    
H10   C101  1.083514 S    
O8    C10   1.285414 A    
C62   C74   1.412276 A    
C114  N66   1.439138 S    
C128  N56   1.435667 S    
C29   C41   1.418210 A    
C31   C43   1.421116 A    
C138  N21   1.434055 S    
C136  N23   1.434068 S    
C16   C143  1.406348 A    
C153  N42   1.433720 S    
O9    C11   1.280154 A    
N64   O57   1.300987 A    
O20   C8    1.293354 A    
C115  C163  1.411244 A    
C141  C153  1.418333 A    
O6    Cr3   2.011883 S    
C113  C161  1.408196 A    
C139  C151  1.418632 A    
N59   H106  1.042241 S    
C70   C106  1.404353 A    
C101  C106  1.390270 A    
C66   C78   1.411881 A    
C13   C140  1.422135 A    
N24   H36   1.045936 S    
C73   C80   1.416722 A    
N70   O70   1.301812 A    
N16   H19   1.044925 S    
C60   O50   1.223051 D    
C74   C79   1.416672 A    
H9    C102  1.083575 S    
C31   C91   1.417659 A    
C58   C70   1.407151 A    
C130  N58   1.434776 S    
C62   C98   1.404059 A    
N21   H30   1.045058 S    
N54   H96   1.042252 S    
C135  C147  1.399207 A    
O17   Cr2   1.898722 S    
C38   N2    1.384844 Am   
C19   C134  1.406449 A    
C118  C130  1.418219 A    
C25   C85   1.420003 A    
C133  C145  1.407080 A    
O19   Cr4   1.899774 S    
Cr4   O26   1.969564 S    
N22   H31   1.044963 S    
C122  N50   1.433305 S    
N48   H83   1.045454 S    
C95   N28   1.436585 S    
C1    C15   1.465695 S    
O5    Cr2   2.013593 S    
C2    C16   1.476737 S    
N53   H94   1.044504 S    
C4    C18   1.476253 S    
C20   C121  1.418026 A    
C69   C105  1.403863 A    
O24   Cr6   1.902451 S    
C110  C158  1.411109 A    
C72   C108  1.403242 A    
O19   C7    1.295561 A    
N71   O72   1.301159 A    
C119  N71   1.439180 S    
C34   C46   1.412938 A    
C71   C107  1.403895 A    
C56   C68   1.399643 A    
C13   C128  1.418565 A    
N40   H68   1.045001 S    
C116  N68   1.434029 S    
C41   N5    1.380688 Am   
N28   H43   1.044986 S    
N44   H76   1.044856 S    
C43   N7    1.384688 Am   
N72   O73   1.300709 A    
C67   C103  1.403454 A    
N52   H91   1.044761 S    
C138  C150  1.418447 A    
C78   C81   1.415144 A    
C58   O48   1.217312 D    
N12   C168  1.441916 S    
C76   C83   1.415525 A    
C133  N20   1.436109 S    
N32   H52   1.044983 S    
N51   H89   1.045546 S    
N45   H78   1.045006 S    
C98   C103  1.387676 A    
O16   Cr1   1.895891 S    
N35   H57   1.044942 S    
N49   H86   1.045285 S    
C52   O42   1.223267 D    
C140  N13   1.435656 S    
N1    C49   1.376604 Am   
N3    C51   1.376900 Am   
N30   H48   1.044999 S    
N69   O67   1.300986 A    
N11   C167  1.449761 S    
N41   H70   1.045236 S    
C33   C81   1.412172 A    
C70   C82   1.410125 A    
C66   C102  1.403830 A    
N7    C55   1.381049 Am   
N62   O53   1.300943 A    
H4    C107  1.083572 S    
N42   H72   1.045005 S    
C30   C78   1.412154 A    
C148  N47   1.433727 S    
C57   O47   1.223283 D    
N3    C159  1.440115 S    
C25   C73   1.413535 A    
Cr1   O25   1.974967 S    
C49   C61   1.402004 A    
O18   Cr3   1.902422 S    
N25   H37   1.045196 S    
C50   O40   1.223326 D    
C149  C161  1.401934 A    
N43   H73   1.044989 S    
N5    C161  1.441598 S    
N29   H46   1.042378 S    
C27   C75   1.415652 A    
N46   H80   1.044949 S    
C135  N24   1.433677 S    
C96   N27   1.445837 S    
O24   C12   1.290228 A    
C44   O34   1.221563 D    
C5    C13   1.497119 S    
O23   C11   1.295131 A    
N68   O65   1.300802 A    
Cr5   O26   1.974960 S    
C69   C81   1.411934 A    
N56   H100  1.043389 S    
N14   H16   1.045056 S    
C111  N63   1.438404 S    
C33   C93   1.419550 A    
C150  N45   1.433706 S    
C110  N62   1.439105 S    
C152  C164  1.398496 A    
N47   H82   1.045001 S    
N60   H107  1.045516 S    
N19   H25   1.044925 S    
N65   O60   1.301123 A    
C144  C156  1.397128 A    
N39   H65   1.045491 S    
C154  C166  1.418175 A    
C92   N25   1.437254 S    
N19   H26   1.045058 S    
O3    C5    1.289402 A    
C86   N31   1.435927 S    
N10   C166  1.482648 S    
C118  C166  1.424601 A    
C40   N4    1.384826 Am   
C47   N11   1.384744 Am   
C42   O32   1.221031 D    
C16   C131  1.408959 A    
C25   C37   1.416658 A    
C44   N8    1.379391 Am   
C115  C127  1.404231 A    
N66   O61   1.300956 A    
N18   H24   1.045059 S    
N2    C158  1.450059 S    
N67   O63   1.300944 A    
N57   H102  1.042239 S    
C87   N36   1.445397 S    
N20   H27   1.044929 S    
O10   C12   1.291753 A    
C144  N15   1.434889 S    
C90   C93   1.418428 A    
O16   C4    1.294536 A    
C146  C158  1.411340 A    
C29   C77   1.415312 A    
N29   H45   1.044948 S    
C67   C79   1.412104 A    
N58   H103  1.045176 S    
C154  N41   1.437399 S    
N50   H88   1.042319 S    
O20   Cr5   1.895729 S    
O6    C2    1.278529 A    
N33   H53   1.044954 S    
N61   O52   1.300738 A    
O9    Cr6   2.012454 S    
C120  C132  1.418315 A    
C116  C164  1.403740 A    
C61   C73   1.416731 A    
C118  N70   1.439435 S    
C26   C86   1.426198 A    
O17   C5    1.292692 A    
N9    C57   1.380819 Am   
C151  N38   1.433723 S    
C93   N30   1.436577 S    
N11   C59   1.380999 Am   
C124  N52   1.433215 S    
C40   O30   1.221008 D    
C23   C124  1.409013 A    
C3    C17   1.490027 S    
C137  C149  1.409525 A    
C17   C142  1.410887 A    
C46   O36   1.220950 D    
N4    C160  1.449846 S    
N37   H62   1.044859 S    
O7    Cr4   2.013849 S    
C131  N59   1.433198 S    
O18   C6    1.295547 A    
C32   C44   1.419177 A    
O13   Cr1   1.902016 S    
C119  C167  1.411160 A    
C85   C92   1.414914 A    
C147  C159  1.406810 A    
C86   C91   1.411735 A    
O12   C8    1.283834 A    
C24   C123  1.410484 A    
N51   H90   1.044449 S    
O13   C1    1.287428 A    
C59   O49   1.223275 D    
C155  C167  1.411358 A    
N64   O58   1.301155 A    
N55   H98   1.042299 S    
C126  N54   1.433122 S    
C114  C126  1.403613 A    
N13   H14   1.045230 S    
C140  C152  1.410124 A    
C35   C95   1.419511 A    
C36   C96   1.421738 A    
N71   O71   1.300974 A    
N17   H22   1.045226 S    
Cr3   O25   1.969450 S    
C21   C126  1.408619 A    
C112  N64   1.439178 S    
H2    C103  1.083594 S    
C89   C94   1.415203 A    
N16   H20   1.045055 S    
N36   H59   1.046000 S    
C37   O27   1.222154 D    
C14   C139  1.406349 A    
C61   C97   1.403361 A    
C39   O29   1.221541 D    
N21   H29   1.044928 S    
C88   N35   1.436590 S    
C30   C42   1.421212 A    
C72   C84   1.415567 A    
C143  C155  1.418666 A    
C125  N53   1.435181 S    
N38   H64   1.045003 S    
N43   H74   1.045001 S    
C55   C67   1.399432 A    
C34   C82   1.405211 A    
C137  N22   1.434759 S    
N48   H84   1.044674 S    
C111  C123  1.416000 A    
C113  N65   1.438320 S    
C53   C65   1.402131 A    
N15   H17   1.045024 S    
C15   C132  1.404058 A    
C9    C23   1.476863 S    
O1    C3    1.287774 A    
N53   H93   1.045558 S    
C31   C79   1.411458 A    
C32   C80   1.415890 A    
C114  C162  1.411139 A    
C26   C74   1.414815 A    
C35   C83   1.412189 A    
C50   C62   1.398203 A    
C143  N16   1.434054 S    
C109  N61   1.437100 S    
C75   C84   1.415708 A    
C94   N29   1.436641 S    
C139  N14   1.434060 S    
N26   H39   1.045717 S    
H3    C108  1.083501 S    
N28   H44   1.044952 S    
C149  N46   1.435194 S    
C132  N60   1.433946 S    
N72   O74   1.301231 A    
C14   C127  1.408916 A    
C6    C14   1.476876 S    
C18   C129  1.408957 A    
C39   N3    1.379979 Am   
O11   Cr5   2.005541 S    
C119  C131  1.404058 A    
C134  C146  1.418644 A    
N52   H92   1.042222 S    
C30   C90   1.419426 A    
C117  C129  1.403761 A    
O11   C7    1.280836 A    
C155  N40   1.433696 S    
C115  N67   1.439112 S    
N12   C60   1.377758 Am   
C34   C94   1.415225 A    
O2    C4    1.279958 A    
C53   O43   1.222805 D    
N45   H77   1.044989 S    
H6    C105  1.083572 S    
C29   C89   1.420515 A    
O4    C6    1.280859 A    
C87   C96   1.420012 A    
H12   C99   1.083543 S    
