data_mof_unit_44801.cif
_audit_creation_date              2012-12-10T18:48:22-0500
_audit_creation_method            fapswitch 2.2
_symmetry_space_group_name_H-M    P1
_symmetry_Int_Tables_number       1
_space_group_crystal_system       triclinic
_cell_length_a                    10.84856
_cell_length_b                    9.982646
_cell_length_c                    11.48242
_cell_angle_alpha                 90.119127
_cell_angle_beta                  93.469284
_cell_angle_gamma                 90.057177
_cell_volume                      1241.23311762

loop_
_atom_site_label
_atom_site_type_symbol
_atom_type_description
_atom_site_fract_x
_atom_site_fract_y
_atom_site_fract_z
_atom_type_partial_charge
C1    C     C_R   0.259950 0.500329 0.496974 0.950846
C2    C     C_R   0.934889 0.624215 0.481398 0.302496
C3    C     C_R   0.938228 0.383601 0.514160 0.319241
C4    C     C_R   0.062596 0.625180 0.495290 0.320027
C5    C     C_R   0.872114 0.503019 0.499385 -0.432607
C6    C     C_R   0.126703 0.502180 0.492372 -0.422496
C7    C     C_R   0.573602 0.071682 0.579305 0.370703
C8    C     C_R   0.416712 0.928046 0.428897 0.294975
C9    C     C_R   0.426311 0.071097 0.420613 0.352170
C10   C     C_R   0.584313 0.929084 0.570199 0.305724
C11   C     C_3   0.066400 0.203396 0.362661 0.154177
C12   C     C_R   0.739712 0.500583 0.501120 0.937701
C13   C     C_3   0.037585 0.056515 0.380463 -0.708228
C14   C     C_3   0.850758 0.754292 0.335842 0.201706
C15   C     C_3   0.754363 0.862205 0.308125 -0.822864
C16   C     C_3   0.919476 0.253018 0.673961 0.211123
C17   C     C_3   0.962424 0.110566 0.696404 -0.823532
C18   C     C_3   0.118291 0.786978 0.627767 0.194286
C19   C     C_3   0.226593 0.879049 0.661705 -0.838139
C20   C     C_3   0.577898 0.130400 0.770613 0.138894
C21   C     C_3   0.648233 0.206760 0.868761 -0.861187
C22   C     C_3   0.318023 0.806845 0.276251 0.279383
C23   C     C_R   0.501355 0.500160 0.282409 0.848795
C24   C     C_3   0.214743 0.855957 0.191344 -0.965145
C25   C     C_3   0.411843 0.135245 0.230248 0.136091
C26   C     C_3   0.336528 0.216410 0.138926 -0.854959
C27   C     C_3   0.684128 0.803345 0.718896 0.264444
C28   C     C_3   0.786210 0.847048 0.807432 -0.983295
C29   C     C_R   0.498310 0.500415 0.717567 0.851310
C30   C     C_1   0.501759 0.501550 0.161859 -0.217533
C31   C     C_1   0.496654 0.502342 0.838048 -0.215923
C32   C     C_1   0.500214 0.503196 0.059389 -0.024459
C33   C     C_1   0.497529 0.503622 0.940504 -0.024475
C34   C     C_R   0.060899 0.381074 0.488345 0.335892
H1    H     H_    0.135055 0.212700 0.295694 0.185675
H2    H     H_    0.662778 0.827580 0.333607 0.263354
H3    H     H_    0.838097 0.273658 0.724471 0.181559
H4    H     H_    0.994603 0.321464 0.709192 0.075723
H5    H     H_    0.051485 0.094942 0.656067 0.265135
H6    H     H_    0.975717 0.092342 0.791677 0.189695
H7    H     H_    0.893250 0.039300 0.657197 0.314133
H8    H     H_    0.122968 0.701250 0.690358 0.088289
H9    H     H_    0.030998 0.842266 0.637773 0.165513
H10   H     H_    0.228225 0.965691 0.601545 0.265614
H11   H     H_    0.218134 0.917010 0.751837 0.184904
H12   H     H_    0.980248 0.252188 0.325171 0.093700
H13   H     H_    0.314721 0.823192 0.658896 0.269250
H14   H     H_    0.568285 0.025797 0.799864 0.103924
H15   H     H_    0.482791 0.171725 0.758793 0.153538
H16   H     H_    0.668776 0.310009 0.840840 0.253472
H17   H     H_    0.592231 0.210937 0.946480 0.213291
H18   H     H_    0.737100 0.157118 0.893972 0.227135
H19   H     H_    0.301325 0.698022 0.285035 0.174059
H20   H     H_    0.409297 0.820765 0.238424 0.086241
H21   H     H_    0.234633 0.827776 0.100786 0.215297
H22   H     H_    0.126066 0.809319 0.212367 0.244153
H23   H     H_    0.965648 0.045472 0.444298 0.281296
H24   H     H_    0.204437 0.965740 0.197084 0.284572
H25   H     H_    0.419335 0.032418 0.196156 0.110517
H26   H     H_    0.507584 0.175347 0.239147 0.153290
H27   H     H_    0.313847 0.316290 0.174159 0.259744
H28   H     H_    0.389667 0.228941 0.060027 0.215610
H29   H     H_    0.248648 0.164770 0.112870 0.221058
H30   H     H_    0.701420 0.695521 0.704970 0.177079
H31   H     H_    0.593052 0.815149 0.757430 0.097890
H32   H     H_    0.774510 0.796278 0.892032 0.216949
H33   H     H_    0.877695 0.819445 0.776462 0.249185
H34   H     H_    0.003757 0.011586 0.296086 0.181991
H35   H     H_    0.783320 0.956190 0.821263 0.281200
H36   H     H_    0.121509 0.003339 0.413921 0.320522
H37   H     H_    0.815066 0.659137 0.295059 0.097158
H38   H     H_    0.937456 0.782127 0.295471 0.123034
H39   H     H_    0.778635 0.956218 0.355791 0.260378
H40   H     H_    0.748177 0.882815 0.212961 0.180230
N1    N     N_R   0.500000 0.857200 0.500000 -0.220196
N2    N     N_R   0.500000 0.142800 0.500000 -0.198714
O1    O     O_R   0.316770 0.614620 0.499990 -0.552118
O2    O     O_3   0.873069 0.743294 0.458111 -0.529134
O3    O     O_3   0.884895 0.268094 0.553647 -0.552083
O4    O     O_3   0.123785 0.746208 0.510029 -0.525298
O5    O     O_3   0.641520 0.139265 0.666462 -0.548431
O6    O     O_3   0.308007 0.867116 0.386654 -0.543112
O7    O     O_3   0.353678 0.138993 0.337526 -0.555463
O8    O     O_3   0.694654 0.870701 0.611715 -0.540007
O9    O     O_R   0.683230 0.385380 0.500010 -0.548483
O10   O     O_R   0.683230 0.614620 0.500010 -0.556996
O11   O     O_R   0.316770 0.385380 0.499990 -0.542427
O12   O     O_R   0.500020 0.614670 0.334450 -0.661138
O13   O     O_R   0.499980 0.385330 0.665550 -0.591660
O14   O     O_R   0.499980 0.614670 0.665550 -0.665867
O15   O     O_R   0.500020 0.385330 0.334450 -0.595081
O16   O     O_3   0.116811 0.259210 0.469023 -0.553975
Zn1   Zn    Zn3+2 0.500000 0.653120 0.500000 0.957288
Zn2   Zn    Zn3+2 0.500000 0.346880 0.500000 1.022392

loop_
_geom_bond_atom_site_label_1
_geom_bond_atom_site_label_2
_ccdc_geom_bond_type
C1    O11   A    
C7    C10   A    
C1    O1    A    
C14   H37   S    
C28   H32   S    
C28   H35   S    
C3    O3    S    
C29   O13   A    
C22   H20   S    
C24   H21   S    
C12   O9    A    
C27   H31   S    
C22   O6    S    
C27   O8    S    
C26   H27   S    
C4    O4    S    
C18   H8    S    
C19   H13   S    
C13   H23   S    
C13   H36   S    
O11   Zn2   S    
C18   C19   S    
C17   H5    S    
O1    Zn1   S    
O13   Zn2   S    
C29   O14   A    
N2    Zn2   S    
C11   O16   S    
C8    C9    A    
C31   C33   T    
C25   H26   S    
C16   H3    S    
C20   O5    S    
C21   H16   S    
C22   H19   S    
C17   H7    S    
C1    C6    S    
C23   C30   S    
C28   H33   S    
C5    C12   S    
C4    C6    A    
C16   C17   S    
C3    C34   A    
C25   C26   S    
C8    N1    A    
C6    C34   A    
C17   H6    S    
C2    C4    A    
C26   H29   S    
C20   H15   S    
C2    O2    S    
O10   Zn1   S    
O9    Zn2   S    
C9    N2    A    
C20   H14   S    
C9    O7    S    
C24   H24   S    
C7    O5    S    
C23   O12   A    
C23   O15   A    
C2    C5    A    
C15   H2    S    
C21   H17   S    
C19   H10   S    
N1    Zn1   S    
O14   Zn1   S    
O12   Zn1   S    
C15   H39   S    
C14   H38   S    
C3    C5    A    
C19   H11   S    
C10   N1    A    
C7    N2    A    
C24   H22   S    
C12   O10   A    
C16   O3    S    
C32   C33   S    
C11   H1    S    
C26   H28   S    
C29   C31   S    
C18   H9    S    
O15   Zn2   S    
C30   C32   T    
C11   C13   S    
C10   O8    S    
C22   C24   S    
C14   O2    S    
C34   O16   S    
C27   H30   S    
C8    O6    S    
C15   H40   S    
C20   C21   S    
C18   O4    S    
C27   C28   S    
C25   O7    S    
C14   C15   S    
C11   H12   S    
C25   H25   S    
C21   H18   S    
C16   H4    S    
C13   H34   S    
