data_mof_unit_44704.cif
_audit_creation_date              2013-03-05T15:55:27-0500
_audit_creation_method            fapswitch 2.2
_symmetry_space_group_name_H-M    P1
_symmetry_Int_Tables_number       1
_space_group_crystal_system       triclinic
_cell_length_a                    10.808261
_cell_length_b                    12.353586
_cell_length_c                    13.166315
_cell_angle_alpha                 116.841907
_cell_angle_beta                  76.298716
_cell_angle_gamma                 99.992322
_cell_volume                      1519.42975946

loop_
_atom_site_label
_atom_site_type_symbol
_atom_site_description
_atom_site_fract_x
_atom_site_fract_y
_atom_site_fract_z
_atom_type_partial_charge
O1    O     O_R   0.537340 0.972510 0.318130 -0.525325
O2    O     O_R   0.487200 0.806530 0.359650 -0.623680
C1    C     C_R   0.516265 0.854738 0.285612 0.782242
O3    O     O_R   0.707380 0.082980 0.479220 -0.593536
O4    O     O_R   0.657240 0.917000 0.520740 -0.576066
C2    C     C_R   0.739168 0.995329 0.495387 0.807628
Cu1   Cu    Cu3+1 0.529690 0.098270 0.475420 1.083617
Cu2   Cu    Cu3+1 0.470310 0.901730 0.524580 1.003606
O5    O     O_R   0.512800 0.193470 0.640350 -0.542667
O6    O     O_R   0.462660 0.027490 0.681870 -0.592800
O7    O     O_R   0.342760 0.083000 0.479260 -0.495875
O8    O     O_R   0.292620 0.917020 0.520780 -0.561367
C3    C     C_R   0.481596 0.144823 0.713724 0.867302
C4    C     C_R   0.259757 0.999284 0.498919 0.838861
C5    C     C_3   0.957885 0.996259 0.382501 -0.477958
C6    C     C_3   0.101790 0.014520 0.391202 0.141444
C7    C     C_3   0.915388 0.104154 0.599669 -0.340967
C8    C     C_3   0.902080 0.867898 0.491932 0.120265
C9    C     C_3   0.875000 0.990480 0.494135 -0.139770
C10   C     C_3   0.119712 0.994966 0.497654 -0.264967
C11   C     C_3   0.046741 0.088384 0.615542 0.160303
C12   C     C_3   0.048886 0.863507 0.477294 0.028236
H1    H     H_    0.082132 0.801627 0.384720 0.099879
H2    H     H_    0.024536 0.047877 0.677996 0.207877
C13   C     C_R   0.342621 0.281921 0.030795 -0.096525
C14   C     C_R   0.461951 0.227560 0.836845 -0.058714
C15   C     C_R   0.637448 0.802775 0.083954 0.195276
C16   C     C_R   0.699850 0.711657 0.983445 0.187551
C17   C     C_R   0.662355 0.588332 0.956589 0.160965
C18   C     C_R   0.547303 0.555859 0.019963 -0.065191
C19   C     C_R   0.487944 0.647905 0.124051 0.003119
C20   C     C_R   0.489370 0.434728 0.984429 0.131874
C21   C     C_R   0.391825 0.403332 0.061968 0.111004
C22   C     C_R   0.337052 0.494675 0.164932 -0.156825
C23   C     C_R   0.378033 0.615501 0.190931 -0.091048
C24   C     C_R   0.515445 0.347041 0.870020 -0.110853
C25   C     C_R   0.380001 0.193483 0.918982 -0.096890
C26   C     C_R   0.540593 0.770151 0.160822 -0.235704
H3    H     H_    0.569609 0.372895 0.803358 0.191343
C27   C     C_R   0.722032 0.346861 0.334971 0.254549
N1    N     N_R   0.574690 0.246280 0.438200 -0.261403
C28   C     C_R   0.340443 0.772552 0.660015 0.095563
C29   C     C_R   0.329633 0.695450 0.713511 0.266310
C30   C     C_R   0.402792 0.594557 0.658519 -0.143522
C31   C     C_R   0.478920 0.564895 0.547759 0.006049
C32   C     C_R   0.498913 0.654996 0.506041 0.287379
C33   C     C_R   0.544291 0.454666 0.482474 -0.114970
C34   C     C_R   0.648838 0.449592 0.392526 0.019679
C35   C     C_R   0.674574 0.545132 0.359143 -0.135687
C36   C     C_R   0.599967 0.644018 0.413130 -0.139981
C37   C     C_R   0.504242 0.346333 0.498022 0.445856
C38   C     C_R   0.682457 0.246755 0.360840 0.022327
N2    N     N_R   0.426100 0.754320 0.561190 -0.241973
H4    H     H_    0.289290 0.853933 0.702434 0.191092
H5    H     H_    0.405940 0.545081 0.706847 0.219389
H6    H     H_    0.929913 0.068627 0.366181 0.257798
N3    N     N_R   0.077647 0.805973 0.545215 0.195798
O9    O     O_R   0.059176 0.858508 0.657758 -0.272147
O10   O     O_R   0.119537 0.697837 0.491397 -0.299458
H7    H     H_    0.844524 0.120762 0.680587 0.207276
H8    H     H_    0.337024 0.101253 0.894468 0.185606
H9    H     H_    0.256627 0.473312 0.221752 0.202218
H10   H     H_    0.270766 0.256693 0.090938 0.194236
N4    N     N_R   0.683034 0.927556 0.113375 0.161815
O11   O     O_R   0.801336 0.963327 0.125625 -0.304225
O12   O     O_R   0.609595 0.002658 0.116834 -0.281663
N5    N     N_R   0.748340 0.498733 0.873481 0.137509
O13   O     O_R   0.786789 0.423596 0.901832 -0.297958
O14   O     O_R   0.788763 0.492074 0.769640 -0.271416
N6    N     N_R   0.808179 0.744966 0.913127 0.203902
O15   O     O_R   0.797152 0.818239 0.869879 -0.190994
O16   O     O_R   0.920360 0.711273 0.901023 -0.183137
H11   H     H_    0.940206 0.910057 0.305766 0.169089
H12   H     H_    0.322270 0.683280 0.264604 0.173782
H13   H     H_    0.738431 0.168517 0.319329 0.205278
H14   H     H_    0.750367 0.542994 0.288065 0.194595
N7    N     N_R   0.837752 0.343596 0.253126 0.132505
O17   O     O_R   0.924565 0.434299 0.279059 -0.314718
O18   O     O_R   0.866545 0.242322 0.162744 -0.252839
N8    N     N_R   0.379782 0.334635 0.560982 0.145080
O19   O     O_R   0.283816 0.359621 0.533824 -0.240542
O20   O     O_R   0.367477 0.340571 0.663709 -0.314706
N9    N     N_R   0.250108 0.722607 0.825342 0.165357
O21   O     O_R   0.193645 0.823640 0.881813 -0.279296
O22   O     O_R   0.233738 0.646837 0.871976 -0.264542
H15   H     H_    0.629491 0.712939 0.382975 0.179432
H16   H     H_    0.151005 0.942135 0.310975 0.117270
N10   N     N_R   0.158541 0.131993 0.392422 0.199672
O23   O     O_R   0.090969 0.226062 0.441405 -0.260257
O24   O     O_R   0.262910 0.134156 0.319488 -0.302561
H17   H     H_    0.917105 0.185858 0.584611 0.259950
N11   N     N_R   0.120060 0.203921 0.672226 0.184671
O25   O     O_R   0.190160 0.209142 0.742448 -0.325676
O26   O     O_R   0.085982 0.305688 0.684271 -0.177469
N12   N     N_R   0.829086 0.843569 0.590455 0.197283
O27   O     O_R   0.796623 0.930509 0.692726 -0.296315
O28   O     O_R   0.802046 0.731480 0.576631 -0.270440
H18   H     H_    0.871444 0.792477 0.412708 0.083919

loop_
_geom_bond_atom_site_label_1
_geom_bond_atom_site_label_2
_geom_bond_distance
_ccdc_geom_bond_type
N7    O17   1.301504 A    
C23   H12   1.081652 S    
C29   N9    1.440058 S    
N12   O27   1.300284 A    
C7    H17   1.109449 S    
C38   H13   1.080803 S    
C12   N3    1.477794 S    
Cu1   Cu2   2.721677 S    
C31   C32   1.414122 A    
C5    C9    1.554592 S    
C2    C9    1.475580 S    
C20   C24   1.397568 A    
C16   C17   1.406219 A    
C22   C23   1.386464 A    
C28   N2    1.355703 A    
C18   C19   1.418494 A    
O7    C4    1.323299 A    
N3    O10   1.301812 A    
C15   C26   1.415131 A    
C5    C6    1.556430 S    
C22   H9    1.084232 S    
C32   N2    1.382735 A    
C27   C34   1.416551 A    
C8    C9    1.577921 S    
C13   H10   1.083917 S    
O5    C3    1.306825 A    
C37   N8    1.424807 S    
C13   C25   1.393940 A    
C17   N5    1.437946 S    
C33   C34   1.416651 A    
C1    C26   1.483526 S    
C6    H16   1.115451 S    
N6    O15   1.301086 A    
N1    C38   1.354686 A    
Cu2   O8    1.976491 S    
C31   C33   1.442742 A    
O1    Cu1   1.940928 S    
C8    N12   1.476623 S    
O3    Cu1   1.976493 S    
C12   H1    1.116028 S    
N7    O18   1.301306 A    
O2    Cu2   1.926757 S    
N5    O13   1.301471 A    
C4    C10   1.509092 S    
O3    C2    1.306800 A    
C33   C37   1.422926 A    
C27   C38   1.398614 A    
C7    C11   1.539628 S    
N5    O14   1.301859 A    
N4    O12   1.301213 A    
Cu1   O7    1.986974 S    
C29   C30   1.399577 A    
C17   C18   1.428677 A    
N9    O21   1.301685 A    
C6    C10   1.584572 S    
N11   O26   1.301662 A    
C21   C22   1.389885 A    
C35   H14   1.081467 S    
N10   O23   1.301679 A    
N8    O20   1.296536 A    
C34   C35   1.400069 A    
N9    O22   1.301747 A    
O8    C4    1.296012 A    
C19   C23   1.415838 A    
C3    C14   1.460678 S    
C28   C29   1.394707 A    
C10   C12   1.602458 S    
C30   C31   1.411234 A    
C14   C24   1.394622 A    
Cu1   O5    1.926755 S    
C5    H11   1.113792 S    
C8    C12   1.559912 S    
C24   H3    1.077001 S    
C16   N6    1.435518 S    
N10   O24   1.301881 A    
N8    O19   1.298256 A    
O6    C3    1.306722 A    
Cu2   N2    2.039230 S    
O4    Cu2   1.986976 S    
C25   H8    1.083226 S    
N12   O28   1.301191 A    
C14   C25   1.399723 A    
C32   C36   1.405860 A    
C19   C26   1.418047 A    
C20   C21   1.417737 A    
O2    C1    1.310684 A    
C28   H4    1.080676 S    
C18   C20   1.425330 A    
C30   H5    1.071583 S    
N3    O9    1.301192 A    
O4    C2    1.298529 A    
N4    O11   1.301327 A    
N11   O25   1.301559 A    
C7    C9    1.551060 S    
Cu1   N1    2.051245 S    
C5    H6    1.111254 S    
C15   N4    1.434084 S    
C36   H15   1.065522 S    
C7    H7    1.111019 S    
C10   C11   1.575234 S    
Cu2   O6    1.940928 S    
C35   C36   1.390672 A    
C11   H2    1.104813 S    
C15   C16   1.403081 A    
C6    N10   1.468751 S    
C27   N7    1.437692 S    
N6    O16   1.300949 A    
C8    H18   1.115646 S    
O1    C1    1.311714 A    
N1    C37   1.375210 A    
C13   C21   1.404116 A    
C11   N11   1.465553 S    
