data_mof_unit_64604.cif
_audit_creation_date              2012-12-10T16:55:27-0500
_audit_creation_method            fapswitch 2.2
_symmetry_space_group_name_H-M    P1
_symmetry_Int_Tables_number       1
_space_group_crystal_system       triclinic
_cell_length_a                    11.712179
_cell_length_b                    10.944436
_cell_length_c                    9.694883
_cell_angle_alpha                 90.455949
_cell_angle_beta                  89.89678
_cell_angle_gamma                 90.166203
_cell_volume                      1242.6745212

loop_
_atom_site_label
_atom_site_type_symbol
_atom_type_description
_atom_site_fract_x
_atom_site_fract_y
_atom_site_fract_z
_atom_type_partial_charge
C1    C     C_R   0.499619 0.265142 0.499135 0.881978
C2    C     C_2   0.488337 0.866458 0.503486 -0.357902
C3    C     C_2   0.479106 0.065101 0.384750 0.441695
C4    C     C_2   0.504783 0.132664 0.497562 -0.327862
C5    C     C_2   0.433713 0.428358 0.920558 0.500438
C6    C     C_2   0.440012 0.423702 0.077438 -0.157624
C7    C     C_R   0.283998 0.499922 0.500108 0.823827
C8    C     C_R   0.497837 0.734657 0.500631 0.867649
C9    C     C_R   0.716007 0.500017 0.499893 0.809973
C10   C     C_1   0.162329 0.499864 0.500274 -0.157932
C11   C     C_1   0.059889 0.499851 0.500146 0.009916
C12   C     C_1   0.940132 0.499887 0.499873 0.006807
C13   C     C_1   0.837689 0.499945 0.499737 -0.166049
C14   C     C_2   0.491395 0.931033 0.386820 -0.262885
Cu1   Cu    Cu3+1 0.500020 0.500020 0.638630 0.995894
Cu2   Cu    Cu3+1 0.499980 0.499980 0.361370 0.974850
H1    H     H_    0.500224 0.884320 0.288064 0.172102
H2    H     H_    0.473829 0.908875 0.603312 0.153685
H3    H     H_    0.534617 0.091407 0.591998 0.107250
H4    H     H_    0.560638 0.549945 0.895015 0.145321
H5    H     H_    0.390281 0.354233 0.129707 0.191827
H6    H     H_    0.541268 0.569199 0.106328 0.185778
N1    N     N_2   0.498780 0.498660 0.846910 -0.280958
N2    N     N_2   0.498750 0.498630 0.153040 -0.293420
O1    O     O_R   0.500020 0.321960 0.617040 -0.545900
O2    O     O_R   0.499980 0.321920 0.382900 -0.516665
O3    O     O_R   0.337220 0.500030 0.617070 -0.521947
O4    O     O_R   0.337180 0.499990 0.382930 -0.574917
O5    O     O_R   0.500020 0.678080 0.617100 -0.587177
O6    O     O_R   0.499980 0.678040 0.382960 -0.580358
O7    O     O_R   0.662820 0.500010 0.617070 -0.579204
O8    O     O_R   0.662780 0.499970 0.382930 -0.568976
O9    O     O_3   0.443385 0.121527 0.265088 -0.719803
H7    H     H_    0.426422 0.057982 0.194552 0.314159
O10   O     O_3   0.357181 0.353577 0.851966 -0.679786
H8    H     H_    0.313539 0.306103 0.920996 0.296216

loop_
_geom_bond_atom_site_label_1
_geom_bond_atom_site_label_2
_ccdc_geom_bond_type
Cu2   O4    S    
C7    C10   S    
C11   C12   S    
Cu1   O7    S    
C2    H2    S    
Cu1   O3    S    
O10   H8    S    
C5    N1    D    
H4    N1    S    
C1    C4    S    
C8    O6    A    
Cu1   N1    S    
O9    H7    S    
C6    N2    D    
Cu2   N2    S    
C1    O1    A    
C4    H3    S    
C14   H1    S    
C5    C6    S    
C3    C14   S    
C8    O5    A    
C5    O10   S    
Cu1   O5    S    
Cu2   O2    S    
C1    O2    A    
C2    C14   D    
H6    N2    S    
Cu1   O1    S    
Cu2   O8    S    
C10   C11   T    
C9    O7    A    
Cu2   O6    S    
Cu1   Cu2   S    
C7    O3    A    
C12   C13   T    
C3    O9    S    
C9    C13   S    
C9    O8    A    
C6    H5    S    
C2    C8    S    
C7    O4    A    
C3    C4    D    
