data_mof_unit_34300.cif
_audit_creation_date              2013-03-05T16:11:42-0500
_audit_creation_method            fapswitch 2.2
_symmetry_space_group_name_H-M    P1
_symmetry_Int_Tables_number       1
_space_group_crystal_system       triclinic
_cell_length_a                    10.6847
_cell_length_b                    9.862575
_cell_length_c                    10.588437
_cell_angle_alpha                 88.717718
_cell_angle_beta                  89.4203
_cell_angle_gamma                 89.075432
_cell_volume                      1115.31746974

loop_
_atom_site_label
_atom_site_type_symbol
_atom_site_description
_atom_site_fract_x
_atom_site_fract_y
_atom_site_fract_z
_atom_type_partial_charge
O1    O     O_R   0.316770 0.614620 0.499990 -0.604409
O2    O     O_R   0.683230 0.385380 0.500010 -0.604403
O3    O     O_R   0.683230 0.614620 0.500010 -0.584560
O4    O     O_R   0.316770 0.385380 0.499990 -0.584553
C1    C     C_R   0.872233 0.495870 0.497179 -0.335903
C2    C     C_R   0.127766 0.504127 0.502811 -0.335908
C3    C     C_R   0.260295 0.501230 0.499724 1.007400
C4    C     C_R   0.739705 0.498769 0.500273 1.007415
O5    O     O_R   0.499970 0.614650 0.313950 -0.594572
O6    O     O_R   0.500030 0.385350 0.686050 -0.594576
O7    O     O_R   0.500030 0.614650 0.686050 -0.618739
O8    O     O_R   0.499970 0.385350 0.313950 -0.618734
C5    C     C_R   0.497109 0.501555 0.257711 1.030854
C6    C     C_R   0.502886 0.498445 0.742288 1.030847
Zn1   Zn    Zn3+2 0.500000 0.653120 0.500000 1.076780
Zn2   Zn    Zn3+2 0.500000 0.346880 0.500000 1.076790
H1    H     H_    0.610714 0.120066 0.663648 0.219346
H2    H     H_    0.389287 0.879934 0.336350 0.219342
H3    H     H_    0.388743 0.131805 0.335907 0.198379
H4    H     H_    0.611258 0.868195 0.664093 0.198366
N1    N     N_R   0.500000 0.857200 0.500000 -0.123707
N2    N     N_R   0.500000 0.142800 0.500000 -0.123707
C7    C     C_3   0.490282 0.628190 0.034426 0.247976
C8    C     C_3   0.509709 0.371810 0.965572 0.247972
C9    C     C_3   0.598724 0.568233 0.957870 0.247366
C10   C     C_3   0.401268 0.431767 0.042129 0.247375
C11   C     C_3   0.393114 0.557360 0.952630 -0.271997
C12   C     C_3   0.606876 0.442640 0.047369 -0.271984
H5    H     H_    0.306644 0.604421 0.912735 0.250524
H6    H     H_    0.693346 0.395578 0.087267 0.250524
C13   C     C_3   0.503992 0.496069 0.876441 -0.292752
C14   C     C_3   0.495999 0.503931 0.123558 -0.292738
C15   C     C_R   0.561547 0.068512 0.591053 0.035269
C16   C     C_R   0.438453 0.931488 0.408946 0.035266
C17   C     C_R   0.438299 0.075121 0.408874 0.003042
C18   C     C_R   0.561701 0.924879 0.591126 0.003028
C19   C     C_R   0.065331 0.420576 0.591314 0.206289
C20   C     C_R   0.934666 0.579416 0.408672 0.206261
C21   C     C_R   0.936112 0.415753 0.587613 0.218508
C22   C     C_R   0.063886 0.584242 0.412375 0.218523
N3    N     N_R   0.475417 0.768439 0.073075 0.241464
O9    O     O_R   0.566366 0.853369 0.057580 -0.262889
O10   O     O_R   0.365766 0.812940 0.108722 -0.303827
N4    N     N_R   0.524570 0.231561 0.926923 0.241465
O11   O     O_R   0.433637 0.146619 0.942470 -0.262888
O12   O     O_R   0.634219 0.187063 0.891265 -0.303850
N5    N     N_R   0.708183 0.642342 0.912393 0.267798
O13   O     O_R   0.784067 0.694174 0.992724 -0.195251
O14   O     O_R   0.735383 0.649919 0.792549 -0.376836
N6    N     N_R   0.291812 0.357648 0.087606 0.267822
O15   O     O_R   0.215912 0.305850 0.007278 -0.195263
O16   O     O_R   0.264637 0.350033 0.207455 -0.376825
N7    N     N_R   0.132668 0.344347 0.686878 0.261776
O17   O     O_R   0.215961 0.403259 0.754469 -0.373478
O18   O     O_R   0.110066 0.216505 0.707721 -0.234622
N8    N     N_R   0.867328 0.655637 0.313101 0.261762
O19   O     O_R   0.784022 0.596719 0.245523 -0.373497
O20   O     O_R   0.889969 0.783459 0.292204 -0.234586
N9    N     N_R   0.869564 0.336380 0.680481 0.244840
O21   O     O_R   0.837596 0.213523 0.654505 -0.313318
O22   O     O_R   0.863880 0.375724 0.796855 -0.270747
N10   N     N_R   0.130437 0.663601 0.319500 0.244850
O23   O     O_R   0.162399 0.786465 0.345461 -0.313301
O24   O     O_R   0.136164 0.624215 0.203141 -0.270801

loop_
_geom_bond_atom_site_label_1
_geom_bond_atom_site_label_2
_geom_bond_distance
_ccdc_geom_bond_type
C9    C13   1.530629 S    
C1    C4    1.415912 S    
N6    O16   1.299742 A    
O4    Zn2   1.988218 S    
C2    C3    1.415924 S    
O1    Zn1   2.000249 S    
C7    C11   1.544243 S    
C11   H5    1.110306 S    
C20   N8    1.438765 S    
O2    Zn2   2.000248 S    
N3    O9    1.299908 A    
C9    N5    1.460946 S    
C5    C14   1.420310 S    
N10   O24   1.300672 A    
N5    O13   1.299612 A    
C7    N3    1.457017 S    
Zn1   N1    2.012754 S    
C6    C13   1.420304 S    
C21   N9    1.433421 S    
C7    C14   1.530788 S    
C15   C18   1.416553 A    
N7    O18   1.301178 A    
N6    O15   1.299567 A    
O5    Zn1   2.014508 S    
C8    C13   1.530784 S    
C19   N7    1.438741 S    
N9    O21   1.300268 A    
N5    O14   1.299733 A    
N1    C18   1.366399 A    
H3    C17   1.081306 S    
N7    O17   1.300007 A    
N8    O19   1.300055 A    
C9    C12   1.544531 S    
C20   C22   1.383246 A    
N2    C17   1.366401 A    
H2    C16   1.076862 S    
C8    C10   1.526303 S    
C10   C11   1.544535 S    
N10   O23   1.300268 A    
H1    C15   1.076862 S    
N2    C15   1.365442 A    
O4    C3    1.283454 A    
C12   H6    1.110306 S    
N8    O20   1.301152 A    
C16   C17   1.416553 A    
C10   N6    1.460958 S    
C8    N4    1.457018 S    
O7    C6    1.279734 A    
C2    C22   1.403252 A    
N9    O22   1.300664 A    
C11   C13   1.548893 S    
H4    C18   1.081308 S    
C8    C12   1.544242 S    
C12   C14   1.548889 S    
C7    C9    1.526305 S    
C22   N10   1.433408 S    
O8    C5    1.279735 A    
N3    O10   1.299844 A    
C19   C21   1.383228 A    
O3    C4    1.283462 A    
O6    C6    1.277049 A    
O6    Zn2   2.014506 S    
C1    C21   1.403242 A    
O5    C5    1.277051 A    
C10   C14   1.530631 S    
O3    Zn1   1.988217 S    
Zn2   N2    2.012754 S    
N1    C16   1.365444 A    
O1    C3    1.279337 A    
C1    C20   1.404531 A    
O7    Zn1   1.997830 S    
O2    C4    1.279325 A    
N4    O11   1.299911 A    
O8    Zn2   1.997831 S    
C2    C19   1.404536 A    
N4    O12   1.299845 A    
