data_mof_unit_46154.cif
_audit_creation_date              2013-03-05T16:24:53-0500
_audit_creation_method            fapswitch 2.2
_symmetry_space_group_name_H-M    P1
_symmetry_Int_Tables_number       1
_space_group_crystal_system       triclinic
_cell_length_a                    15.124444
_cell_length_b                    13.85672
_cell_length_c                    10.857994
_cell_angle_alpha                 90.029274
_cell_angle_beta                  90.22387
_cell_angle_gamma                 89.737044
_cell_volume                      2275.52449679

loop_
_atom_site_label
_atom_site_type_symbol
_atom_site_description
_atom_site_fract_x
_atom_site_fract_y
_atom_site_fract_z
_atom_type_partial_charge
O1    O     O_R   0.371460 0.581430 0.500010 -0.600564
O2    O     O_R   0.628540 0.581430 0.499990 -0.600597
O3    O     O_R   0.371470 0.418560 0.500010 -0.538301
O4    O     O_R   0.628530 0.418560 0.499990 -0.546398
C1    C     C_R   0.330017 0.500247 0.502363 0.878459
C2    C     C_R   0.670319 0.499640 0.500391 0.892233
O5    O     O_R   0.499990 0.581450 0.319660 -0.586214
O6    O     O_R   0.500010 0.581450 0.680340 -0.585620
O7    O     O_R   0.500010 0.418580 0.319660 -0.598479
O8    O     O_R   0.499990 0.418580 0.680340 -0.602257
C3    C     C_R   0.499540 0.499883 0.262561 0.803730
C4    C     C_R   0.499698 0.499910 0.737417 0.783850
Cu1   Cu    Cu3+1 0.500000 0.596430 0.500000 0.932455
Cu2   Cu    Cu3+1 0.500000 0.403570 0.500000 0.968177
C5    C     C_R   0.500450 0.583295 0.061999 0.123395
C6    C     C_R   0.500514 0.583302 0.938052 0.126902
C7    C     C_R   0.498195 0.498690 0.129997 -0.099008
C8    C     C_R   0.498285 0.498720 0.869920 -0.104606
C9    C     C_R   0.494663 0.410745 0.064442 -0.214658
C10   C     C_R   0.494674 0.410762 0.935276 -0.238817
H1    H     H_    0.492265 0.342200 0.112173 0.163265
H2    H     H_    0.492227 0.342233 0.887387 0.163405
C11   C     C_3   0.506088 0.690365 0.929161 -0.466107
C12   C     C_3   0.505998 0.690372 0.071055 -0.463615
H3    H     H_    0.569655 0.714490 0.888655 0.192874
H4    H     H_    0.445422 0.722804 0.111758 0.194973
H5    H     H_    0.445560 0.722790 0.887717 0.205483
H6    H     H_    0.569516 0.714519 0.112383 0.205390
C13   C     C_R   0.094647 0.577333 0.456631 0.515571
C14   C     C_R   0.902562 0.581941 0.563234 0.518547
C15   C     C_R   0.186601 0.575714 0.453918 -0.383035
C16   C     C_R   0.810626 0.580724 0.551511 -0.391369
H7    H     H_    0.220987 0.631265 0.402992 0.193066
H8    H     H_    0.773030 0.643426 0.580389 0.190943
C17   C     C_R   0.233830 0.501527 0.511851 -0.287444
C18   C     C_R   0.767222 0.499043 0.505767 -0.274037
C19   C     C_R   0.189116 0.431417 0.581672 0.395375
C20   C     C_R   0.816710 0.417400 0.469169 0.366585
C21   C     C_R   0.096736 0.434227 0.588954 0.429507
C22   C     C_R   0.909345 0.421901 0.469000 0.379543
C23   C     C_R   0.049150 0.506134 0.523615 -0.104085
C24   C     C_R   0.952159 0.503493 0.518342 -0.107949
C25   C     C_R   0.539184 0.107763 0.596657 -0.289623
C26   C     C_R   0.461205 0.108042 0.403148 -0.273534
H9    H     H_    0.568851 0.071742 0.674982 0.127825
H10   H     H_    0.431671 0.072220 0.324748 0.125815
C27   C     C_R   0.538936 0.209243 0.594427 0.074640
C28   C     C_R   0.461201 0.209519 0.405504 0.115731
H11   H     H_    0.569956 0.248345 0.669039 0.111459
H12   H     H_    0.430185 0.248842 0.330863 0.112679
N1    N     N_R   0.500000 0.258690 0.500000 -0.165338
C29   C     C_R   0.500202 0.054658 0.499905 0.136325
C30   C     C_R   0.433665 0.892370 0.438651 -0.274080
C31   C     C_R   0.566518 0.891694 0.561297 -0.280346
H13   H     H_    0.379733 0.928574 0.391790 0.134941
H14   H     H_    0.620481 0.927335 0.608166 0.128138
C32   C     C_R   0.435223 0.790877 0.439045 0.084087
C33   C     C_R   0.564802 0.790228 0.561006 0.086094
H15   H     H_    0.384008 0.751742 0.390717 0.118144
H16   H     H_    0.615925 0.750604 0.609491 0.113292
N2    N     N_R   0.500000 0.741330 0.500000 -0.172957
C34   C     C_R   0.500141 0.945274 0.499932 0.130437
O9    O     O_3   0.049861 0.652045 0.398944 -0.514682
C35   C     C_3   0.035939 0.627562 0.274396 -0.328001
H17   H     H_    0.984082 0.571447 0.266002 0.146447
H18   H     H_    0.097920 0.603771 0.228033 0.139009
H19   H     H_    0.011497 0.692546 0.225074 0.195522
O10   O     O_3   0.945111 0.662196 0.610686 -0.517221
C36   C     C_3   0.926180 0.670689 0.737362 -0.325260
H20   H     H_    0.940968 0.602607 0.787997 0.130613
H21   H     H_    0.856397 0.693145 0.752568 0.152894
H22   H     H_    0.969008 0.727709 0.776952 0.195741
O11   O     O_3   0.234981 0.357264 0.639064 -0.523242
C37   C     C_3   0.262452 0.388837 0.756662 -0.235066
H23   H     H_    0.302079 0.456216 0.752035 0.120492
H24   H     H_    0.305287 0.332255 0.798130 0.183804
H25   H     H_    0.204952 0.399421 0.818589 0.146656
O12   O     O_3   0.774925 0.336536 0.422465 -0.550773
C38   C     C_3   0.774224 0.264421 0.514255 -0.205433
H26   H     H_    0.733311 0.203411 0.480997 0.174179
H27   H     H_    0.744176 0.291024 0.601494 0.125657
H28   H     H_    0.841824 0.235936 0.532448 0.197845
O13   O     O_3   0.054366 0.361816 0.653686 -0.504182
C39   C     C_3   0.016400 0.400032 0.762058 -0.318491
H29   H     H_    0.947022 0.422512 0.744361 0.152317
H30   H     H_    0.054337 0.461299 0.802459 0.117800
H31   H     H_    0.014708 0.342122 0.832483 0.187045
O14   O     O_3   0.957592 0.343099 0.428214 -0.526683
C40   C     C_3   0.975919 0.354849 0.301980 -0.273043
H32   H     H_    0.029015 0.408861 0.288750 0.132430
H33   H     H_    0.915971 0.374804 0.247484 0.157529
H34   H     H_    0.000719 0.285137 0.265278 0.191798

loop_
_geom_bond_atom_site_label_1
_geom_bond_atom_site_label_2
_geom_bond_distance
_ccdc_geom_bond_type
C14   C16   1.395972 A    
C13   O9    1.383416 S    
O6    Cu1   1.969207 S    
O11   C37   1.411168 S    
C9    C10   1.402490 A    
C39   H31   1.109170 S    
C27   H11   1.081167 S    
O5    C3    1.288880 A    
C37   H24   1.109312 S    
O1    C1    1.290599 A    
C16   C18   1.400848 A    
C17   C19   1.409501 A    
C12   H4    1.111688 S    
C25   C29   1.411052 A    
C32   H15   1.081585 S    
C33   H16   1.081518 S    
C5    C6    1.345825 A    
C23   C24   1.468448 S    
C36   H21   1.111888 S    
O2    Cu1   1.954227 S    
C28   N1    1.363664 A    
Cu2   N1    2.007560 S    
O10   C36   1.410776 S    
C37   H25   1.110505 S    
C11   C12   1.540693 S    
C15   H7    1.084037 S    
C11   H5    1.111577 S    
C40   H33   1.114592 S    
C26   C29   1.410937 A    
C33   N2    1.363461 A    
C28   H12   1.081164 S    
Cu1   Cu2   2.672408 S    
O2    C2    1.295055 A    
C26   H10   1.081300 S    
C30   H13   1.081280 S    
C19   C21   1.400103 A    
C31   H14   1.081302 S    
C37   H23   1.113042 S    
C35   H19   1.109136 S    
C39   H29   1.109273 S    
O4    C2    1.291603 A    
O8    Cu2   1.969041 S    
C38   H27   1.114070 S    
C30   C32   1.406455 A    
O12   C38   1.411798 S    
C27   N1    1.363727 A    
C20   O12   1.384025 S    
C38   H26   1.109392 S    
C35   H18   1.114258 S    
C36   H22   1.109427 S    
O7    Cu2   1.969253 S    
C25   H9    1.081268 S    
C30   C34   1.411404 A    
O13   C39   1.413021 S    
O6    C4    1.288992 A    
C40   H34   1.109085 S    
O7    C3    1.286177 A    
O3    Cu2   1.954063 S    
O8    C4    1.285858 A    
C5    C12   1.489664 S    
C10   H2    1.083106 S    
C6    C11   1.489522 S    
C15   C17   1.397537 A    
O1    Cu1   1.956124 S    
C31   C33   1.406341 A    
C5    C7    1.386412 A    
C19   O11   1.384207 S    
C3    C7    1.439522 S    
C13   C23   1.409510 A    
C12   H6    1.111599 S    
C39   H30   1.115567 S    
O3    C1    1.291717 A    
C38   H28   1.111275 S    
C32   N2    1.363259 A    
C31   C34   1.411189 A    
C35   H17   1.110415 S    
C22   O14   1.384070 S    
C18   C20   1.411411 A    
C21   O13   1.386213 S    
C13   C15   1.391251 A    
C29   C34   1.515703 S    
C20   C22   1.402729 A    
C1    C17   1.458833 S    
C22   C24   1.409956 A    
C7    C9    1.412089 A    
C2    C18   1.466522 S    
C8    C10   1.412032 A    
C11   H3    1.111719 S    
O4    Cu2   1.955957 S    
C36   H20   1.113508 S    
O9    C35   1.409328 S    
O5    Cu1   1.968997 S    
Cu1   N2    2.007839 S    
O14   C40   1.409113 S    
C21   C23   1.415719 A    
C6    C8    1.386126 A    
C4    C8    1.439067 S    
C14   C24   1.405982 A    
C40   H32   1.110046 S    
C25   C27   1.406384 A    
C14   O10   1.385526 S    
C26   C28   1.406366 A    
C16   H8    1.083108 S    
C9    H1    1.083053 S    
