data_mof_unit_25941.cif
_audit_creation_date              2012-12-10T17:03:54-0500
_audit_creation_method            fapswitch 2.2
_symmetry_space_group_name_H-M    P1
_symmetry_Int_Tables_number       1
_space_group_crystal_system       triclinic
_cell_length_a                    9.78503
_cell_length_b                    11.049936
_cell_length_c                    15.857595
_cell_angle_alpha                 94.914692
_cell_angle_beta                  78.190711
_cell_angle_gamma                 111.440088
_cell_volume                      1562.04671859

loop_
_atom_site_label
_atom_site_type_symbol
_atom_type_description
_atom_site_fract_x
_atom_site_fract_y
_atom_site_fract_z
_atom_type_partial_charge
C1    C     C_R   0.556215 0.745455 0.506209 0.863739
C2    C     C_R   0.443785 0.254545 0.493790 0.863705
C3    C     C_R   0.351727 0.538321 0.079255 -0.219243
C4    C     C_R   0.647446 0.460055 0.920845 -0.219194
C5    C     C_R   0.259701 0.547521 0.026350 -0.227925
C6    C     C_R   0.739432 0.450809 0.973763 -0.227899
C7    C     C_2   0.587911 0.884709 0.509596 -0.359137
C8    C     C_2   0.412091 0.115291 0.490401 -0.359111
C9    C     C_2   0.484366 0.930503 0.498483 -0.155206
C10   C     C_2   0.515639 0.069498 0.501510 -0.155234
C11   C     C_2   0.921737 0.486964 0.494614 -0.079943
C12   C     C_2   0.078252 0.513014 0.505405 -0.079888
C13   C     C_R   0.410363 0.490795 0.663336 0.795072
C14   C     C_R   0.589625 0.509164 0.336666 0.795069
C15   C     C_R   0.356832 0.495180 0.757881 -0.090169
C16   C     C_R   0.643064 0.504499 0.242131 -0.090081
C17   C     C_R   0.198759 0.541176 0.886345 -0.231935
C18   C     C_R   0.800633 0.457639 0.113747 -0.232006
C19   C     C_R   0.229793 0.527394 0.796580 0.161470
C20   C     C_R   0.769839 0.471865 0.203487 0.161471
C21   C     C_R   0.446098 0.476508 0.810877 -0.284389
C22   C     C_R   0.553840 0.523157 0.189106 -0.284313
C23   C     C_R   0.419671 0.496505 0.900785 0.086855
C24   C     C_R   0.579885 0.502521 0.099254 0.086853
C25   C     C_R   0.292469 0.527908 0.937876 0.130612
C26   C     C_R   0.706895 0.470820 0.062203 0.130598
C27   C     C_R   0.516742 0.488305 0.954647 0.076974
C28   C     C_R   0.482670 0.510471 0.045411 0.076993
Cu1   Cu    Cu3+1 0.362980 0.479380 0.485080 0.929009
Cu2   Cu    Cu3+1 0.637020 0.520620 0.514920 0.929000
H1    H     H_    0.162106 0.571329 0.055139 0.141433
H2    H     H_    0.836837 0.426695 0.945008 0.141406
H3    H     H_    0.462544 0.552497 0.220501 0.160119
H4    H     H_    0.537807 0.447784 0.779408 0.160239
H5    H     H_    0.102324 0.566083 0.916360 0.131055
H6    H     H_    0.896878 0.432434 0.083770 0.130969
H7    H     H_    0.315639 0.553887 0.146678 0.144641
H8    H     H_    0.683266 0.443998 0.853464 0.144542
H9    H     H_    0.624538 0.134773 0.512991 0.178824
H10   H     H_    0.375468 0.865228 0.487001 0.178838
H11   H     H_    0.303417 0.049751 0.478872 0.149972
H12   H     H_    0.696584 0.950249 0.521127 0.149967
H13   H     H_    0.126992 0.587981 0.550435 0.159040
H14   H     H_    0.872990 0.411978 0.449599 0.159066
H15   H     H_    0.107694 0.377061 0.420614 0.191068
H16   H     H_    0.892308 0.622947 0.579381 0.191082
N1    N     N_2   0.842890 0.551600 0.537350 -0.287068
N2    N     N_2   0.157110 0.448400 0.462650 -0.287079
O1    O     O_R   0.426810 0.668300 0.492040 -0.581819
O2    O     O_R   0.573190 0.331700 0.507960 -0.581851
O3    O     O_R   0.658240 0.703130 0.517240 -0.572429
O4    O     O_R   0.341760 0.296870 0.482760 -0.572438
O5    O     O_R   0.319390 0.472820 0.610170 -0.571831
O6    O     O_R   0.680610 0.527180 0.389830 -0.571831
O7    O     O_R   0.550820 0.507640 0.635370 -0.572194
O8    O     O_R   0.449180 0.492360 0.364630 -0.572150
C29   C     C_3   0.871747 0.445690 0.253839 -0.400150
C30   C     C_3   0.994667 0.571604 0.273340 -0.798302
H17   H     H_    0.063043 0.620288 0.212360 0.236357
H18   H     H_    0.946850 0.639465 0.312866 0.271874
H19   H     H_    0.068970 0.549267 0.308976 0.232684
H20   H     H_    0.807285 0.391047 0.313229 0.201569
H21   H     H_    0.926805 0.380981 0.215983 0.189232
C31   C     C_3   0.127861 0.553627 0.746273 -0.400053
C32   C     C_3   0.005116 0.427708 0.726593 -0.798211
H22   H     H_    0.930817 0.450081 0.690971 0.232724
H23   H     H_    0.053108 0.360020 0.686985 0.271851
H24   H     H_    0.936698 0.378818 0.787503 0.236306
H25   H     H_    0.072647 0.618155 0.784227 0.189260
H26   H     H_    0.192311 0.608487 0.686960 0.201540

loop_
_geom_bond_atom_site_label_1
_geom_bond_atom_site_label_2
_ccdc_geom_bond_type
C9    H10   S    
C6    H2    S    
Cu2   O3    S    
Cu1   Cu2   S    
C2    O4    A    
Cu1   O8    S    
C23   C27   A    
C1    O3    A    
Cu2   O7    S    
C14   O8    A    
C18   C26   A    
C12   N2    D    
C19   C31   S    
C16   C20   A    
C32   H24   S    
C17   C25   A    
C31   C32   S    
C30   H19   S    
C13   C15   S    
C11   N1    D    
Cu2   O2    S    
C11   H14   S    
Cu1   O1    S    
C31   H25   S    
C15   C19   A    
Cu2   O6    S    
C29   C30   S    
C6    C26   A    
C15   C21   A    
Cu1   O5    S    
C5    C25   A    
C14   C16   S    
C3    C28   A    
C14   O6    A    
C5    H1    S    
C24   C26   A    
C29   H21   S    
C12   H13   S    
C13   O5    A    
C23   C25   A    
C21   C23   A    
C31   H26   S    
C22   C24   A    
H15   N2    S    
C13   O7    A    
Cu1   N2    S    
C30   H18   S    
C3    C5    A    
Cu2   N1    S    
C29   H20   S    
C4    C27   A    
C17   H5    S    
C8    H11   S    
C3    H7    S    
C18   C20   A    
C4    C6    A    
C32   H22   S    
C9    C10   S    
C7    H12   S    
C27   C28   A    
C7    C9    D    
C22   H3    S    
H16   N1    S    
C16   C22   A    
C21   H4    S    
C2    O2    A    
C17   C19   A    
C20   C29   S    
C1    C7    S    
C30   H17   S    
C18   H6    S    
C8    C10   D    
C2    C8    S    
C24   C28   A    
C11   C12   S    
C4    H8    S    
C10   H9    S    
C32   H23   S    
Cu1   O4    S    
C1    O1    A    
