data_mof_unit_33274.cif
_audit_creation_date              2012-12-11T14:27:50-0500
_audit_creation_method            fapswitch 2.2
_symmetry_space_group_name_H-M    P1
_symmetry_Int_Tables_number       1
_space_group_crystal_system       triclinic
_cell_length_a                    6.997424
_cell_length_b                    14.569757
_cell_length_c                    16.287394
_cell_angle_alpha                 90.766004
_cell_angle_beta                  88.604497
_cell_angle_gamma                 90.106801
_cell_volume                      1659.86949704

loop_
_atom_site_label
_atom_site_type_symbol
_atom_type_description
_atom_site_fract_x
_atom_site_fract_y
_atom_site_fract_z
_atom_type_partial_charge
O1    O     O_R   0.494510 0.415970 0.413200 -0.542406
O2    O     O_R   0.823800 0.407430 0.586200 -0.539830
O3    O     O_R   0.994130 0.584030 0.586800 -0.540875
C1    C     C_R   0.653550 0.385872 0.613985 0.743432
O4    O     O_R   0.824220 0.405090 0.413820 -0.538272
O5    O     O_R   0.994560 0.581670 0.413190 -0.533911
C2    C     C_R   0.657490 0.381329 0.386543 0.735072
O6    O     O_R   0.494090 0.418330 0.586810 -0.541245
O7    O     O_3   0.660810 0.557940 0.500000 -0.374337
V1    V     V_3+5 0.935650 0.489250 0.500000 1.378418
O8    O     O_R   0.324270 0.592570 0.413800 -0.552270
C3    C     C_R   0.155417 0.620016 0.389521 0.680745
O9    O     O_R   0.323850 0.594910 0.586180 -0.541795
C4    C     C_R   0.154594 0.617540 0.614526 0.669765
V2    V     V_3+5 0.435660 0.510750 0.500000 1.354674
O10   O     O_3   0.160630 0.442060 0.500000 -0.368239
C5    C     C_3   0.004858 0.677677 0.760963 0.094940
C6    C     C_3   0.169659 0.699767 0.819878 0.113026
C7    C     C_3   0.124569 0.803017 0.812537 -0.079590
C8    C     C_3   0.958711 0.781514 0.754157 -0.180028
C9    C     C_3   0.104276 0.788908 0.681456 0.110675
C10   C     C_3   0.268431 0.809986 0.740002 -0.142236
C11   C     C_3   0.311674 0.706001 0.745664 -0.186091
C12   C     C_3   0.145976 0.685394 0.686357 -0.094238
H1    H     H_    0.378572 0.864348 0.732229 0.107133
C13   C     C_2   0.981085 0.733054 0.299257 0.101375
C14   C     C_2   0.147149 0.701457 0.331614 -0.092704
C15   C     C_2   0.978565 0.798651 0.227784 -0.171809
C16   C     C_2   0.110382 0.802557 0.166049 -0.305329
H2    H     H_    0.865670 0.849861 0.228357 0.127587
C17   C     C_2   0.780586 0.207706 0.778784 -0.136602
C18   C     C_2   0.616950 0.174767 0.812136 -0.308616
C19   C     C_2   0.790006 0.276519 0.712012 -0.138484
C20   C     C_2   0.636843 0.318188 0.680343 -0.317801
C21   C     C_2   0.771646 0.191960 0.218715 -0.159954
C22   C     C_2   0.611114 0.177050 0.176323 -0.340629
H3    H     H_    0.896646 0.151457 0.201153 0.142030
C23   C     C_2   0.796741 0.259103 0.288258 0.112404
C24   C     C_2   0.648640 0.310962 0.319573 -0.337104
H4    H     H_    0.507452 0.302023 0.295067 0.118875
O11   O     O_R   0.771000 0.074870 0.906030 -0.537797
O12   O     O_R   0.440710 0.088040 0.078970 -0.544301
O13   O     O_R   0.270540 0.911420 0.079570 -0.539461
C25   C     C_R   0.607578 0.109393 0.107825 0.755785
O14   O     O_R   0.441280 0.085700 0.906600 -0.544688
O15   O     O_R   0.271110 0.909060 0.905960 -0.541243
C26   C     C_R   0.611056 0.107148 0.878726 0.741433
O16   O     O_R   0.770430 0.077230 0.079640 -0.537479
O17   O     O_3   0.604340 0.935220 0.992820 -0.374862
V3    V     V_3+5 0.329430 0.003850 0.992770 1.389586
O18   O     O_R   0.941400 0.898110 0.906530 -0.543223
C27   C     C_R   0.111660 0.874210 0.880081 0.679728
O19   O     O_R   0.940830 0.900450 0.078910 -0.541770
C28   C     C_R   0.107495 0.876595 0.104894 0.739954
V4    V     V_3+5 0.829450 0.982250 0.992700 1.393932
O20   O     O_3   0.104410 0.051000 0.992740 -0.371008
C29   C     C_3   0.216384 0.662196 0.904490 -0.375108
C30   C     C_3   0.240154 0.557953 0.904121 -0.311658
C31   C     C_3   0.288940 0.524167 0.989381 -0.779678
H5    H     H_    0.421110 0.557957 0.011209 0.228647
H6    H     H_    0.169666 0.539614 0.033656 0.230069
H7    H     H_    0.311415 0.448742 0.987128 0.216773
H8    H     H_    0.108767 0.523022 0.885168 0.210566
H9    H     H_    0.351689 0.537767 0.858587 0.202699
H10   H     H_    0.351067 0.695076 0.924703 0.170943
H11   H     H_    0.102165 0.682875 0.949501 0.153814
H12   H     H_    0.221285 0.751192 0.159259 0.120498
H13   H     H_    0.916352 0.183175 0.800767 0.136225
H14   H     H_    0.479665 0.197322 0.790899 0.127810
H15   H     H_    0.932118 0.293569 0.688559 0.136954
H16   H     H_    0.493434 0.303565 0.702888 0.127402
H17   H     H_    0.479345 0.212962 0.191332 0.126052
C32   C     C_3   0.998255 0.262713 0.321792 -0.313758
C33   C     C_3   0.011353 0.209020 0.401981 -0.286587
C34   C     C_3   0.216709 0.206186 0.431423 -0.778494
H18   H     H_    0.311269 0.171674 0.384801 0.218788
H19   H     H_    0.269956 0.276684 0.442954 0.255226
H20   H     H_    0.222898 0.167753 0.489583 0.212888
H21   H     H_    0.918742 0.240694 0.450856 0.200590
H22   H     H_    0.961331 0.137382 0.391635 0.187082
H23   H     H_    0.101114 0.231279 0.276548 0.141824
H24   H     H_    0.050748 0.334160 0.328416 0.188155
C35   C     C_3   0.867039 0.595722 0.764256 -0.344660
C36   C     C_3   0.760003 0.584203 0.846746 -0.337352
C37   C     C_3   0.711518 0.482836 0.860561 -0.767178
H25   H     H_    0.614382 0.457259 0.812462 0.227973
H26   H     H_    0.841923 0.439611 0.858221 0.224198
H27   H     H_    0.642949 0.474140 0.921910 0.229775
H28   H     H_    0.843699 0.609607 0.898904 0.205719
H29   H     H_    0.628066 0.625850 0.847654 0.190361
H30   H     H_    0.761544 0.602138 0.714836 0.170522
H31   H     H_    0.953587 0.533330 0.749983 0.171328
H32   H     H_    0.813786 0.812474 0.757504 0.112755
C38   C     C_3   0.078980 0.847823 0.606281 -0.404237
C39   C     C_3   0.064026 0.950272 0.628535 -0.280338
C40   C     C_3   0.004217 0.006116 0.554888 -0.795963
H33   H     H_    0.111861 0.999122 0.503962 0.230331
H34   H     H_    0.862816 0.982595 0.533166 0.231772
H35   H     H_    0.992252 0.079597 0.573180 0.221971
H36   H     H_    0.956136 0.960828 0.679027 0.193131
H37   H     H_    0.204244 0.976078 0.649697 0.187113
H38   H     H_    0.199837 0.835513 0.562181 0.159978
H39   H     H_    0.945714 0.826592 0.578921 0.186251
H40   H     H_    0.455790 0.675312 0.739470 0.116516
C41   C     C_3   0.796781 0.729358 0.350222 -0.361443
C42   C     C_3   0.820149 0.772129 0.437067 -0.285104
C43   C     C_3   0.636421 0.774244 0.490605 -0.749525
H41   H     H_    0.548906 0.712198 0.482135 0.258330
H42   H     H_    0.667107 0.776560 0.556891 0.195350
H43   H     H_    0.552587 0.836264 0.477880 0.212782
H44   H     H_    0.927398 0.733069 0.470785 0.195169
H45   H     H_    0.874810 0.843450 0.431087 0.173260
H46   H     H_    0.692926 0.771112 0.318118 0.160759
H47   H     H_    0.737825 0.658719 0.352459 0.193523
C44   C     C_3   0.320781 0.763892 0.325752 -0.364121
C45   C     C_3   0.282257 0.864179 0.355327 -0.275739
C46   C     C_3   0.438749 0.930499 0.326452 -0.788265
H48   H     H_    0.577858 0.914026 0.353549 0.228754
H49   H     H_    0.453958 0.928276 0.258398 0.232357
H50   H     H_    0.399669 0.001516 0.345822 0.215199
H51   H     H_    0.146154 0.891781 0.333283 0.204788
H52   H     H_    0.268630 0.866531 0.423171 0.167911
H53   H     H_    0.425181 0.736156 0.366324 0.183892
H54   H     H_    0.389602 0.761148 0.264148 0.174087

loop_
_geom_bond_atom_site_label_1
_geom_bond_atom_site_label_2
_ccdc_geom_bond_type
O16   V4    S    
C8    H32   S    
C32   C33   S    
C39   C40   S    
C29   H11   S    
C1    O6    A    
C42   H45   S    
O19   C28   A    
C35   H31   S    
C13   C14   D    
O12   C25   A    
C41   H46   S    
C15   C16   D    
C21   H3    S    
C46   H49   S    
O5    C3    A    
C23   C24   D    
C42   C43   S    
C22   H17   S    
V2    O10   S    
C40   H35   S    
O15   C27   A    
C5    C8    S    
C45   C46   S    
C6    C7    S    
O14   C26   A    
C4    C12   S    
O11   V4    S    
C6    C29   S    
C16   H12   S    
O8    V2    S    
C7    C27   S    
C21   C22   D    
C10   H1    S    
C40   H34   S    
C43   H41   S    
C17   C19   S    
O1    V2    S    
O7    V1    S    
O19   V4    S    
C31   H5    S    
C33   H22   S    
O9    C4    A    
C43   H42   S    
C36   H29   S    
C13   C41   S    
C32   H23   S    
C19   C20   D    
C42   H44   S    
C37   H26   S    
C30   H9    S    
C17   H13   S    
C1    C20   S    
C31   H6    S    
C5    C12   S    
C44   H53   S    
C33   C34   S    
C3    C14   S    
C6    C11   S    
C41   H47   S    
C7    C10   S    
C36   C37   S    
C45   H51   S    
C46   H50   S    
C24   H4    S    
O4    C2    A    
C39   H36   S    
C30   C31   S    
O17   V4    S    
V3    O20   S    
O18   C27   A    
C5    C35   S    
O2    C1    A    
C34   H18   S    
O13   C28   A    
C35   C36   S    
C11   C12   S    
C40   H33   S    
C21   C23   S    
V4    O20   S    
C5    C6    S    
O11   C26   A    
C34   H19   S    
C37   H25   S    
O3    C4    A    
C45   H52   S    
C19   H15   S    
O12   V3    S    
C38   H39   S    
O6    V2    S    
C33   H21   S    
O9    V2    S    
C43   H43   S    
C22   C25   S    
C36   H28   S    
O2    V1    S    
C32   H24   S    
C37   H27   S    
C30   H8    S    
C31   H7    S    
C44   H54   S    
O1    C2    A    
C17   C18   D    
C29   H10   S    
O5    V1    S    
O8    C3    A    
O13   V3    S    
C18   H14   S    
C35   H30   S    
C41   C42   S    
O15   V3    S    
C13   C15   S    
C16   C28   S    
C7    C8    S    
C15   H2    S    
O7    V2    S    
O4    V1    S    
O3    V1    S    
V1    O10   S    
C46   H48   S    
C29   C30   S    
O14   V3    S    
C18   C26   S    
O18   V4    S    
C11   H40   S    
C38   C39   S    
C34   H20   S    
C25   O16   A    
C8    C9    S    
C38   H38   S    
O17   V3    S    
C9    C38   S    
C9    C12   S    
C2    C24   S    
C10   C11   S    
C44   C45   S    
C9    C10   S    
C20   H16   S    
C39   H37   S    
C23   C32   S    
C14   C44   S    
