data_mof_unit_42653.cif
_audit_creation_date              2013-03-05T16:33:14-0500
_audit_creation_method            fapswitch 2.2
_symmetry_space_group_name_H-M    P1
_symmetry_Int_Tables_number       1
_space_group_crystal_system       triclinic
_cell_length_a                    27.761653
_cell_length_b                    10.810846
_cell_length_c                    9.535836
_cell_angle_alpha                 90.003578
_cell_angle_beta                  90.199676
_cell_angle_gamma                 90.207646
_cell_volume                      2861.92524257

loop_
_atom_site_label
_atom_site_type_symbol
_atom_site_description
_atom_site_fract_x
_atom_site_fract_y
_atom_site_fract_z
_atom_type_partial_charge
O1    O     O_R   0.500000 0.319640 0.618810 -0.583586
O2    O     O_R   0.500010 0.319680 0.381230 -0.593620
C1    C     C_R   0.500922 0.262285 0.499972 0.797488
O3    O     O_R   0.430260 0.500000 0.618780 -0.587016
O4    O     O_R   0.430270 0.500040 0.381190 -0.583718
C2    C     C_R   0.407416 0.499162 0.499742 0.808636
Cu1   Cu    Cu3+1 0.500000 0.499980 0.640670 0.955797
Cu2   Cu    Cu3+1 0.500000 0.500020 0.359330 0.949739
O5    O     O_R   0.499990 0.680320 0.618770 -0.571642
O6    O     O_R   0.500000 0.680360 0.381190 -0.586963
O7    O     O_R   0.569730 0.499960 0.618810 -0.571142
O8    O     O_R   0.569740 0.500000 0.381220 -0.580838
C3    C     C_R   0.500804 0.737714 0.499917 0.849988
C4    C     C_R   0.592450 0.501530 0.499929 0.867272
C5    C     C_R   0.178047 0.370820 0.478675 0.516674
O9    O     O_2   0.203412 0.264681 0.473205 -0.539836
N1    N     N_R   0.201633 0.481577 0.492464 -0.456047
C6    C     C_R   0.177036 0.590893 0.498265 0.579836
C7    C     C_R   0.279160 0.463901 0.373550 -0.165656
C8    C     C_R   0.329270 0.469858 0.374140 -0.217713
C9    C     C_R   0.328468 0.514906 0.623239 -0.288799
C10   C     C_R   0.278010 0.508907 0.623435 0.304064
C11   C     C_R   0.253299 0.483476 0.497280 0.341124
C12   C     C_R   0.101595 0.478693 0.474666 -0.047278
C13   C     C_R   0.127542 0.367112 0.471573 -0.017393
C14   C     C_R   0.102574 0.254781 0.461444 -0.142267
C15   C     C_R   0.126583 0.591584 0.489162 -0.032136
C16   C     C_R   0.354382 0.495156 0.498982 -0.066157
H1    H     H_    0.347309 0.534779 0.720404 0.158167
H2    H     H_    0.121687 0.167691 0.456821 0.189212
C17   C     C_R   0.645354 0.499521 0.497915 -0.111756
C18   C     C_R   0.974493 0.363723 0.474060 0.044049
C19   C     C_R   0.974732 0.588903 0.430477 -0.026146
C20   C     C_R   0.949295 0.476629 0.454422 0.062289
C21   C     C_R   0.947780 0.255734 0.505444 -0.177333
C22   C     C_R   0.897844 0.258590 0.515809 -0.117007
C23   C     C_R   0.872656 0.368563 0.492731 -0.025332
C24   C     C_R   0.898276 0.477262 0.459361 -0.041729
C25   C     C_R   0.872796 0.586666 0.431680 -0.046740
C26   C     C_R   0.822286 0.585863 0.439055 0.558527
N2    N     N_R   0.798030 0.480523 0.477228 -0.462669
C27   C     C_R   0.822228 0.372738 0.503597 0.547520
C28   C     C_R   0.717865 0.406231 0.403991 -0.074256
C29   C     C_R   0.667859 0.413456 0.409757 -0.237011
C30   C     C_R   0.673829 0.580773 0.580438 -0.056755
C31   C     C_R   0.724137 0.568619 0.577944 -0.130647
C32   C     C_R   0.746331 0.483435 0.488301 0.307611
O10   O     O_2   0.797660 0.270259 0.541759 -0.526030
C33   C     C_R   0.025496 0.363146 0.464964 0.045636
C34   C     C_R   0.050634 0.477415 0.464329 0.075423
C35   C     C_R   0.025220 0.590623 0.456044 0.066553
C36   C     C_R   0.052435 0.252525 0.459631 -0.201404
H3    H     H_    0.646562 0.351635 0.344793 0.158906
H4    H     H_    0.734524 0.341237 0.332832 0.162478
H5    H     H_    0.879036 0.173801 0.542222 0.198965
H6    H     H_    0.964721 0.168363 0.528221 0.158825
H7    H     H_    0.035628 0.162757 0.450408 0.154859
O11   O     O_2   0.201396 0.698570 0.511284 -0.529296
C37   C     C_R   0.100642 0.702027 0.497052 -0.137769
H8    H     H_    0.348329 0.454005 0.276909 0.163542
H9    H     H_    0.260236 0.445056 0.276315 0.150222
H10   H     H_    0.118751 0.789626 0.514626 0.185487
C38   C     C_R   0.948264 0.694340 0.384017 -0.038794
C39   C     C_R   0.897906 0.693100 0.391176 -0.179231
O12   O     O_2   0.797561 0.689437 0.407009 -0.522785
C40   C     C_R   0.050764 0.701324 0.482886 -0.145095
H11   H     H_    0.878122 0.774601 0.358839 0.218198
H12   H     H_    0.746516 0.629814 0.640562 0.185040
H13   H     H_    0.032475 0.788334 0.497552 0.142297
C41   C     C_R   0.507266 0.063570 0.625608 0.144007
C42   C     C_R   0.505889 0.129248 0.499670 -0.096324
C43   C     C_R   0.511636 0.064528 0.372919 -0.213150
H14   H     H_    0.513709 0.112715 0.273521 0.163993
C44   C     C_R   0.511599 0.935618 0.372871 -0.195276
H15   H     H_    0.513659 0.887503 0.273451 0.158203
C45   C     C_R   0.505768 0.870791 0.499558 -0.080541
C46   C     C_R   0.507166 0.936382 0.625496 0.112893
C47   C     C_3   0.474934 0.929259 0.750296 -0.465897
C48   C     C_3   0.474993 0.069766 0.750467 -0.476107
H16   H     H_    0.439138 0.888140 0.725331 0.202771
H17   H     H_    0.493484 0.888792 0.842973 0.194795
H18   H     H_    0.439224 0.110463 0.725665 0.197920
H19   H     H_    0.493550 0.110134 0.843375 0.196868
C49   C     C_R   0.519320 0.597151 0.074065 0.234860
N3    N     N_R   0.500300 0.500930 0.147930 -0.182284
C50   C     C_R   0.476420 0.410809 0.074188 -0.078930
H20   H     H_    0.458066 0.337387 0.129764 0.137439
C51   C     C_R   0.476403 0.410839 0.925229 -0.075045
H21   H     H_    0.457952 0.337633 0.869251 0.136984
N4    N     N_R   0.500310 0.500890 0.852020 -0.182107
C52   C     C_R   0.519260 0.597280 0.926693 0.224916
C53   C     C_3   0.570020 0.642311 0.922172 -0.435745
C54   C     C_3   0.570040 0.641999 0.081246 -0.468353
H22   H     H_    0.595055 0.573214 0.876729 0.227351
H23   H     H_    0.572593 0.736918 0.877534 0.201890
H24   H     H_    0.595073 0.572661 0.126830 0.228782
H25   H     H_    0.572748 0.736154 0.127501 0.198150
C55   C     C_2   0.970761 0.799294 0.307369 0.823833
O13   O     O_2   0.954694 0.903920 0.320111 -0.605032
O14   O     O_R   0.009416 0.777760 0.217012 -0.743100
H26   H     H_    0.021496 0.856254 0.170539 0.339071
C56   C     C_2   0.652934 0.686578 0.657992 0.835456
O15   O     O_2   0.672706 0.725242 0.764227 -0.584062
O16   O     O_R   0.612166 0.746642 0.605633 -0.774126
H27   H     H_    0.603151 0.821942 0.662999 0.325057
N5    N     N_2   0.252229 0.531367 0.749524 -0.416554
H28   H     H_    0.269176 0.593348 0.815752 0.256115
C57   C     C_3   0.237240 0.420626 0.822646 -0.659348
H29   H     H_    0.216016 0.446512 0.916605 0.230299
H30   H     H_    0.269241 0.366888 0.857012 0.219271
H31   H     H_    0.214165 0.361978 0.754369 0.256222

loop_
_geom_bond_atom_site_label_1
_geom_bond_atom_site_label_2
_geom_bond_distance
_ccdc_geom_bond_type
N2    C27   1.369975 A    
C7    C11   1.399756 A    
C21   C22   1.390606 A    
C12   C15   1.408187 A    
C4    C17   1.469131 S    
Cu1   Cu2   2.682811 S    
C46   C47   1.493261 S    
Cu1   O7    1.947734 S    
C25   C39   1.398294 A    
N1    C11   1.434992 S    
C44   C45   1.406215 A    
C22   C23   1.398523 A    
C38   C55   1.486542 S    
C37   C40   1.390797 A    
N3    C50   1.369379 A    
C24   C25   1.404903 A    
O7    C4    1.299292 A    
C47   H16   1.112204 S    
C5    C13   1.403923 A    
C40   H13   1.079866 S    
N5    H28   1.031866 S    
C5    O9    1.349569 S    
C55   O13   1.223568 D    
C57   H29   1.110467 S    
C5    N1    1.368736 A    
Cu2   N3    2.015947 S    
C23   C27   1.405040 A    
O5    C3    1.292356 A    
C53   C54   1.516912 S    
C29   H3    1.083776 S    
C6    O11   1.349636 S    
C2    C16   1.472778 S    
C7    C8    1.392363 A    
C41   C42   1.395646 A    
C49   C52   1.405311 A    
C8    H8    1.083085 S    
Cu2   O8    1.946592 S    
C41   C48   1.494215 S    
O1    Cu1   1.960727 S    
C9    C10   1.402063 A    
C41   C46   1.375009 A    
O3    Cu1   1.946598 S    
O16   H27   1.013387 S    
C19   C20   1.420924 A    
C45   C46   1.394960 A    
C12   C34   1.417877 A    
C17   C29   1.403765 A    
C18   C21   1.413433 A    
C12   C13   1.407580 A    
C43   C44   1.393630 A    
C44   H15   1.083126 S    
C52   C53   1.489994 S    
C47   C48   1.518993 S    
C8    C16   1.403872 A    
C34   C35   1.416956 A    
C13   C14   1.399271 A    
C10   N5    1.422722 S    
Cu1   N4    2.015412 S    
C9    H1    1.083515 S    
C53   H23   1.110008 S    
O1    C1    1.292106 A    
C35   C40   1.411816 A    
C18   C20   1.421123 A    
C1    C42   1.445331 S    
C28   C29   1.391999 A    
C39   H11   1.084177 S    
C31   H12   1.083788 S    
C23   C24   1.408421 A    
C14   C36   1.392119 A    
C48   H18   1.112257 S    
C28   H4    1.082826 S    
C3    C45   1.444760 S    
C19   C38   1.428052 A    
C33   C36   1.413804 A    
C53   H22   1.111145 S    
N1    C6    1.368234 A    
N2    C32   1.439962 S    
C27   O10   1.349569 S    
C49   N3    1.362251 A    
C56   O16   1.397600 S    
O3    C2    1.298353 A    
C26   N2    1.370779 A    
C9    C16   1.405047 A    
C51   N4    1.369034 A    
C14   H2    1.083392 S    
C54   H24   1.111548 S    
C55   O14   1.398741 S    
C26   O12   1.349990 S    
C36   H7    1.078738 S    
C54   H25   1.111515 S    
C25   C26   1.404241 A    
C50   H20   1.081444 S    
Cu1   O5    1.960794 S    
C31   C32   1.402187 A    
C37   H10   1.083334 S    
C21   H6    1.078467 S    
C20   C24   1.417360 A    
O2    Cu2   1.960796 S    
C6    C15   1.403105 A    
O8    C4    1.293873 A    
C43   H14   1.083201 S    
O6    C3    1.290885 A    
O4    Cu2   1.947737 S    
C19   C35   1.421893 A    
C57   H31   1.109207 S    
O2    C1    1.291423 A    
C42   C43   1.406397 A    
C22   H5    1.083420 S    
C15   C37   1.398742 A    
C48   H19   1.111709 S    
C47   H17   1.111816 S    
N4    C52   1.364928 A    
O4    C2    1.298309 A    
N5    C57   1.446083 S    
C7    H9    1.083086 S    
O14   H26   1.013887 S    
C57   H30   1.111710 S    
C50   C51   1.420445 A    
C49   C54   1.488888 S    
C56   O15   1.223381 D    
C18   C33   1.418917 A    
C30   C56   1.483068 S    
C38   C39   1.399943 A    
C30   C31   1.403553 A    
C51   H21   1.081094 S    
Cu2   O6    1.960726 S    
C33   C34   1.416659 A    
C17   C30   1.416437 A    
C10   C11   1.409341 A    
C28   C32   1.399361 A    
