data_mof_unit_34680.cif
_audit_creation_date              2013-03-05T16:13:37-0500
_audit_creation_method            fapswitch 2.2
_symmetry_space_group_name_H-M    P1
_symmetry_Int_Tables_number       1
_space_group_crystal_system       triclinic
_cell_length_a                    7.423794
_cell_length_b                    24.836369
_cell_length_c                    25.516996
_cell_angle_alpha                 90.042387
_cell_angle_beta                  90.349446
_cell_angle_gamma                 90.509675
_cell_volume                      4704.55081766

loop_
_atom_site_label
_atom_site_type_symbol
_atom_site_description
_atom_site_fract_x
_atom_site_fract_y
_atom_site_fract_z
_atom_type_partial_charge
O1    O     O_R   0.607880 0.800910 0.198150 -0.542687
O2    O     O_R   0.392120 0.199090 0.801850 -0.545411
O3    O     O_R   0.392120 0.199090 0.698150 -0.544057
O4    O     O_R   0.607880 0.800910 0.301850 -0.547851
O5    O     O_R   0.107880 0.699090 0.301850 -0.540927
O6    O     O_R   0.892120 0.300910 0.698150 -0.547054
O7    O     O_R   0.892120 0.300910 0.801850 -0.544243
O8    O     O_R   0.107880 0.699090 0.198150 -0.560797
O9    O     O_R   0.278160 0.807580 0.301500 -0.553743
O10   O     O_R   0.721840 0.192420 0.698500 -0.569880
O11   O     O_R   0.721840 0.192420 0.801500 -0.552249
O12   O     O_R   0.278160 0.807580 0.198500 -0.586274
O13   O     O_R   0.778160 0.692420 0.198500 -0.550862
O14   O     O_R   0.221840 0.307580 0.801500 -0.569243
O15   O     O_R   0.221840 0.307580 0.698500 -0.555167
O16   O     O_R   0.778160 0.692420 0.301500 -0.565004
C1    C     C_R   0.446923 0.821559 0.317783 0.965805
C2    C     C_R   0.552819 0.178261 0.682293 0.982677
C3    C     C_R   0.553508 0.178799 0.818220 0.965785
C4    C     C_R   0.446201 0.820248 0.181247 0.996493
C5    C     C_R   0.945745 0.680092 0.180439 1.000546
C6    C     C_R   0.054715 0.322511 0.817088 0.987392
C7    C     C_R   0.053894 0.321553 0.682236 0.954902
C8    C     C_R   0.945862 0.678720 0.318458 0.995779
O17   O     O_3   0.441370 0.714400 0.250000 -0.255808
O18   O     O_3   0.558630 0.285600 0.750000 -0.244774
O19   O     O_3   0.941370 0.785600 0.250000 -0.253963
O20   O     O_3   0.058630 0.214400 0.750000 -0.244376
V1    V     V_3+5 0.166530 0.756600 0.250000 1.307173
V2    V     V_3+5 0.833470 0.243400 0.750000 1.318372
V3    V     V_3+5 0.666530 0.743400 0.250000 1.323740
V4    V     V_3+5 0.333470 0.256600 0.750000 1.321153
C9    C     C_R   0.184121 0.439821 0.590224 0.495005
C10   C     C_R   0.811303 0.574598 0.426160 0.500424
C11   C     C_R   0.811672 0.582006 0.066683 0.476819
C12   C     C_R   0.201602 0.433642 0.916229 0.492130
C13   C     C_R   0.677219 0.062018 0.912441 0.494561
C14   C     C_R   0.314045 0.931857 0.083627 0.487756
C15   C     C_R   0.316810 0.938348 0.411091 0.493350
C16   C     C_R   0.684533 0.071738 0.578636 0.499718
C17   C     C_R   0.190410 0.402395 0.632011 0.201402
C18   C     C_R   0.798359 0.605847 0.379322 0.129365
C19   C     C_R   0.803672 0.610613 0.115276 0.199353
C20   C     C_R   0.207390 0.399948 0.870884 0.139530
C21   C     C_R   0.686905 0.099055 0.870389 0.200219
C22   C     C_R   0.315669 0.899322 0.129343 0.134302
C23   C     C_R   0.311352 0.901527 0.368693 0.209627
C24   C     C_R   0.695577 0.103266 0.625309 0.134983
C25   C     C_R   0.047043 0.364436 0.640014 -0.532062
C26   C     C_R   0.952905 0.636386 0.361951 -0.515115
C27   C     C_R   0.954741 0.642206 0.133430 -0.537608
C28   C     C_R   0.050703 0.368583 0.856693 -0.524725
C29   C     C_R   0.544510 0.136071 0.860847 -0.542009
C30   C     C_R   0.451927 0.859771 0.136278 -0.449739
C31   C     C_R   0.454661 0.864247 0.360366 -0.531561
C32   C     C_R   0.542686 0.134482 0.640613 -0.516495
C33   C     C_R   0.895635 0.367623 0.605874 0.649343
C34   C     C_R   0.116851 0.627528 0.389358 0.651093
C35   C     C_R   0.115758 0.638970 0.103772 0.627127
C36   C     C_R   0.888693 0.381032 0.882881 0.665558
C37   C     C_R   0.392767 0.132639 0.894504 0.649905
C38   C     C_R   0.581084 0.853868 0.096045 0.601346
C39   C     C_R   0.605527 0.867685 0.394776 0.646247
C40   C     C_R   0.378769 0.124574 0.613250 0.652636
C41   C     C_R   0.884322 0.408478 0.568301 -0.351630
C42   C     C_R   0.131872 0.584142 0.424571 -0.349471
C43   C     C_R   0.133020 0.598923 0.065635 -0.292067
C44   C     C_R   0.879713 0.426714 0.915462 -0.366940
C45   C     C_R   0.373364 0.089625 0.929885 -0.327258
C46   C     C_R   0.593196 0.893801 0.056266 -0.449843
C47   C     C_R   0.615353 0.907667 0.433382 -0.351946
C48   C     C_R   0.363585 0.080510 0.578748 -0.356014
H1    H     H_    0.765393 0.410858 0.544214 0.176715
H2    H     H_    0.262006 0.572914 0.439460 0.193294
H3    H     H_    0.264639 0.591538 0.050279 0.203816
H4    H     H_    0.751059 0.440224 0.928958 0.189774
H5    H     H_    0.252546 0.086837 0.952995 0.175998
H6    H     H_    0.695276 0.891538 0.026760 0.151121
H7    H     H_    0.733774 0.910229 0.457738 0.175414
H8    H     H_    0.233266 0.068454 0.564032 0.191917
C49   C     C_R   0.026076 0.444295 0.559726 -0.139252
C50   C     C_R   0.980018 0.558795 0.444237 -0.124974
C51   C     C_R   0.984334 0.570508 0.046238 -0.170957
C52   C     C_R   0.035358 0.451478 0.934380 -0.113574
C53   C     C_R   0.513172 0.053565 0.938925 -0.144420
C54   C     C_R   0.464290 0.933750 0.051007 -0.061886
C55   C     C_R   0.473471 0.942591 0.442376 -0.137155
C56   C     C_R   0.516052 0.055455 0.559783 -0.121854
C57   C     C_1   0.008323 0.484423 0.518806 0.008788
C58   C     C_1   0.996357 0.518017 0.484602 0.056345
C59   C     C_1   0.010961 0.528776 0.006813 -0.017161
C60   C     C_1   0.023833 0.493942 0.973595 0.034896
C61   C     C_1   0.491802 0.010409 0.977437 0.032117
C62   C     C_1   0.479858 0.975026 0.010345 0.034575
C63   C     C_1   0.490268 0.981826 0.484272 0.003195
C64   C     C_1   0.500992 0.014882 0.519096 0.055808
O21   O     O_3   0.333151 0.473370 0.583016 -0.629524
C65   C     C_3   0.407766 0.471089 0.531772 0.276701
H9    H     H_    0.549795 0.484216 0.535649 0.154343
H10   H     H_    0.344116 0.500934 0.505706 0.109905
C66   C     C_3   0.409049 0.415203 0.505724 -0.507389
H11   H     H_    0.470001 0.386505 0.533597 0.223551
H12   H     H_    0.270085 0.401371 0.496353 0.212255
C67   C     C_3   0.514281 0.416093 0.454462 -0.834583
H13   H     H_    0.447464 0.443117 0.425781 0.293577
H14   H     H_    0.518166 0.374831 0.437749 0.257047
H15   H     H_    0.654631 0.430474 0.460891 0.263156
O22   O     O_3   0.660399 0.556030 0.452515 -0.633241
C68   C     C_3   0.607586 0.595379 0.489737 0.166934
H16   H     H_    0.465164 0.587611 0.499715 0.121208
H17   H     H_    0.613621 0.636495 0.473241 0.068356
C69   C     C_3   0.717561 0.593456 0.541039 -0.364408
H18   H     H_    0.743782 0.551317 0.552466 0.227465
H19   H     H_    0.848949 0.614382 0.535463 0.196304
C70   C     C_3   0.618011 0.619892 0.586369 -0.883653
H20   H     H_    0.582504 0.662002 0.576816 0.254133
H21   H     H_    0.705211 0.619990 0.621877 0.277339
H22   H     H_    0.492690 0.596946 0.595219 0.280585
O23   O     O_3   0.651310 0.561444 0.044710 -0.624092
C71   C     C_3   0.650034 0.561295 0.988823 0.228791
H23   H     H_    0.670498 0.519431 0.975256 0.137002
H24   H     H_    0.754246 0.587861 0.971194 0.086933
C72   C     C_3   0.469537 0.579463 0.966724 -0.340939
H25   H     H_    0.363580 0.550622 0.978827 0.234879
H26   H     H_    0.438691 0.620124 0.981728 0.190374
C73   C     C_3   0.471538 0.581565 0.906934 -0.852203
H27   H     H_    0.571404 0.611962 0.893303 0.250111
H28   H     H_    0.336177 0.593043 0.892202 0.263096
H29   H     H_    0.506058 0.541582 0.890460 0.308543
O24   O     O_3   0.357172 0.452650 0.940321 -0.638923
C74   C     C_3   0.407463 0.416853 0.981195 0.173147
H30   H     H_    0.553855 0.421540 0.987391 0.127215
H31   H     H_    0.381518 0.373815 0.971115 0.059418
C75   C     C_3   0.319663 0.430709 0.033738 -0.329165
H32   H     H_    0.328936 0.474800 0.040654 0.244976
H33   H     H_    0.176044 0.417894 0.033128 0.193340
C76   C     C_3   0.412610 0.402228 0.079338 -0.890202
H34   H     H_    0.406158 0.357930 0.073901 0.255958
H35   H     H_    0.343949 0.412546 0.116507 0.284386
H36   H     H_    0.555806 0.415303 0.082401 0.270720
O25   O     O_3   0.834291 0.036069 0.927228 -0.628036
C77   C     C_3   0.885595 0.048455 0.979805 0.234370
H37   H     H_    0.025678 0.035016 0.985134 0.151816
H38   H     H_    0.806050 0.025062 0.008224 0.105163
C78   C     C_3   0.880765 0.108368 0.994782 -0.466242
H39   H     H_    0.952999 0.132075 0.964600 0.241009
H40   H     H_    0.739521 0.122615 0.996444 0.203739
C79   C     C_3   0.966448 0.116893 0.048886 -0.891433
H41   H     H_    0.896781 0.091553 0.078501 0.287468
H42   H     H_    0.954808 0.159550 0.061113 0.265580
H43   H     H_    0.111329 0.106104 0.048146 0.265936
O26   O     O_3   0.165399 0.961959 0.070246 -0.627423
C80   C     C_3   0.044549 0.929016 0.040754 0.199151
H44   H     H_    0.914368 0.949914 0.041052 0.148073
H45   H     H_    0.020674 0.889146 0.059602 0.114965
C81   C     C_3   0.104560 0.920824 0.983385 -0.426586
H46   H     H_    0.156980 0.958938 0.966935 0.240367
H47   H     H_    0.214521 0.890897 0.981958 0.208786
C82   C     C_3   0.952012 0.901313 0.947583 -0.881783
H48   H     H_    0.907920 0.860173 0.958462 0.230990
H49   H     H_    0.000464 0.900060 0.906521 0.290392
H50   H     H_    0.835834 0.929046 0.949335 0.280857
O27   O     O_3   0.170029 0.972300 0.417194 -0.627038
C83   C     C_3   0.093692 0.972412 0.468231 0.280583
H51   H     H_    0.952153 0.984681 0.463146 0.151768
H52   H     H_    0.156461 0.004051 0.492812 0.104827
C84   C     C_3   0.089684 0.918023 0.497019 -0.512630
H53   H     H_    0.028769 0.887854 0.470387 0.220439
H54   H     H_    0.227463 0.904895 0.507585 0.214419
C85   C     C_3   0.982297 0.921343 0.547776 -0.820948
H55   H     H_    0.049013 0.949914 0.575402 0.294919
H56   H     H_    0.975974 0.880962 0.566356 0.256244
H57   H     H_    0.842800 0.935111 0.540174 0.263676
O28   O     O_3   0.836621 0.054726 0.552400 -0.634818
C86   C     C_3   0.887178 0.094668 0.515223 0.168908
H58   H     H_    0.030558 0.088791 0.505822 0.119812
H59   H     H_    0.876017 0.135813 0.531473 0.064851
C87   C     C_3   0.779831 0.091235 0.463471 -0.371659
H60   H     H_    0.752229 0.048875 0.452846 0.227435
H61   H     H_    0.649021 0.112090 0.467991 0.197055
C88   C     C_3   0.882788 0.116445 0.417859 -0.879328
H62   H     H_    0.920798 0.158758 0.426479 0.254625
H63   H     H_    0.796944 0.115624 0.382077 0.280153
H64   H     H_    0.006950 0.093215 0.409959 0.279206
N1    N     N_R   0.342988 0.405129 0.666525 0.286580
O29   O     O_R   0.379728 0.450471 0.690004 -0.289867
O30   O     O_R   0.471130 0.370318 0.661265 -0.313313
N2    N     N_R   0.640370 0.599414 0.346843 0.278555
O31   O     O_R   0.659676 0.596175 0.296496 -0.284683
O32   O     O_R   0.493962 0.578884 0.366294 -0.344174
N3    N     N_R   0.654755 0.600321 0.149449 0.280292
O33   O     O_R   0.689617 0.584707 0.196896 -0.307384
O34   O     O_R   0.495444 0.590091 0.130494 -0.315153
N4    N     N_R   0.358701 0.404815 0.836006 0.281956
O35   O     O_R   0.330001 0.403689 0.785740 -0.309813
O36   O     O_R   0.507987 0.427024 0.852244 -0.341389
N5    N     N_R   0.844611 0.098281 0.838454 0.285606
O37   O     O_R   0.886168 0.054004 0.814290 -0.293404
O38   O     O_R   0.969265 0.134543 0.845824 -0.324299
N6    N     N_R   0.186479 0.909022 0.169794 0.278955
O39   O     O_R   0.242377 0.916301 0.217643 -0.330623
O40   O     O_R   0.017361 0.916617 0.158671 -0.343676
N7    N     N_R   0.159365 0.904193 0.333926 0.288328
O41   O     O_R   0.121674 0.949963 0.311830 -0.273737
O42   O     O_R   0.031549 0.868469 0.338100 -0.314265
N8    N     N_R   0.847689 0.096369 0.659980 0.281494
O43   O     O_R   0.820726 0.094166 0.710253 -0.311404
O44   O     O_R   0.995776 0.075758 0.642389 -0.332679
O45   O     O_3   0.754117 0.331254 0.608818 -0.597624
C89   C     C_3   0.796082 0.284642 0.579747 0.223754
H65   H     H_    0.721944 0.250317 0.597335 0.108513
H66   H     H_    0.939883 0.274371 0.583026 0.048288
C90   C     C_3   0.742381 0.290982 0.521938 -0.352487
H67   H     H_    0.608296 0.309188 0.519324 0.236683
H68   H     H_    0.838987 0.318344 0.501922 0.196732
C91   C     C_3   0.736074 0.237250 0.493127 -1.018341
H69   H     H_    0.871350 0.219237 0.492551 0.259022
H70   H     H_    0.690769 0.243619 0.452072 0.288081
H71   H     H_    0.641523 0.208718 0.512303 0.259109
O46   O     O_3   0.265349 0.660052 0.380369 -0.588139
C92   C     C_3   0.313582 0.687981 0.426796 0.158463
H72   H     H_    0.460285 0.694723 0.425374 0.114014
H73   H     H_    0.288375 0.665210 0.463674 0.075018
C93   C     C_3   0.218108 0.742101 0.429319 -0.291814
H74   H     H_    0.264809 0.768232 0.397003 0.199691
H75   H     H_    0.072084 0.735649 0.423754 0.188822
C94   C     C_3   0.251121 0.770101 0.481816 -1.036975
H76   H     H_    0.173383 0.749820 0.513270 0.288119
H77   H     H_    0.210830 0.812623 0.478880 0.265646
H78   H     H_    0.394602 0.770124 0.492830 0.271831
O47   O     O_3   0.267130 0.670070 0.114851 -0.593336
C95   C     C_3   0.253767 0.721591 0.091387 0.221103
H79   H     H_    0.371427 0.745336 0.105394 0.126648
H80   H     H_    0.134211 0.743796 0.105255 0.076974
C96   C     C_3   0.263716 0.719777 0.031166 -0.387189
H81   H     H_    0.392117 0.701328 0.019781 0.211984
H82   H     H_    0.154319 0.694470 0.014359 0.207753
C97   C     C_3   0.252226 0.775840 0.006915 -0.987487
H83   H     H_    0.110571 0.787257 0.001177 0.268761
H84   H     H_    0.318113 0.776060 0.967967 0.275136
H85   H     H_    0.316584 0.806758 0.032255 0.244219
O48   O     O_3   0.738145 0.348446 0.876722 -0.589147
C98   C     C_3   0.699876 0.322420 0.924729 0.186589
H86   H     H_    0.557894 0.309081 0.923171 0.109141
H87   H     H_    0.709590 0.349810 0.959042 0.069000
C99   C     C_3   0.823560 0.274152 0.933584 -0.321324
H88   H     H_    0.794248 0.242135 0.904243 0.213274
H89   H     H_    0.965537 0.287144 0.928899 0.174686
C100  C     C_3   0.803074 0.251827 0.988779 -1.023157
H90   H     H_    0.811764 0.284347 0.018637 0.274278
H91   H     H_    0.912094 0.223357 0.996676 0.288226
H92   H     H_    0.674695 0.229665 0.992581 0.277285
O49   O     O_3   0.262259 0.171929 0.894602 -0.600044
C101  C     C_3   0.325755 0.216918 0.923550 0.218526
H93   H     H_    0.246400 0.252274 0.910934 0.117906
H94   H     H_    0.468288 0.226537 0.914639 0.040020
C102  C     C_3   0.304066 0.208136 0.982751 -0.358391
H95   H     H_    0.177449 0.186420 0.990134 0.229082
H96   H     H_    0.413687 0.182170 0.997804 0.185360
C103  C     C_3   0.302476 0.261036 0.013269 -1.008164
H97   H     H_    0.430334 0.283552 0.007925 0.263011
H98   H     H_    0.285482 0.252464 0.055651 0.286825
H99   H     H_    0.189482 0.286735 0.000075 0.270433
O50   O     O_3   0.688030 0.807913 0.096038 -0.648366
C104  C     C_3   0.726413 0.790403 0.044511 0.154287
H100  H     H_    0.848254 0.811834 0.031072 0.100715
H101  H     H_    0.614750 0.798029 0.016361 0.126121
C105  C     C_3   0.762654 0.730298 0.043603 -0.270143
H102  H     H_    0.887207 0.722633 0.065465 0.177353
H103  H     H_    0.653511 0.707702 0.063525 0.211977
C106  C     C_3   0.784210 0.710067 0.987437 -1.035926
H104  H     H_    0.651388 0.706770 0.967491 0.275331
H105  H     H_    0.848668 0.670183 0.988090 0.259232
H106  H     H_    0.871612 0.737530 0.964344 0.276882
O51   O     O_3   0.748628 0.832728 0.390845 -0.595419
C107  C     C_3   0.710912 0.785342 0.419460 0.225835
H107  H     H_    0.783894 0.751849 0.400616 0.106667
H108  H     H_    0.567375 0.774231 0.417318 0.052205
C108  C     C_3   0.771028 0.790992 0.476825 -0.357553
H109  H     H_    0.907927 0.807974 0.478152 0.237636
H110  H     H_    0.680845 0.818970 0.497906 0.199897
C109  C     C_3   0.772849 0.737162 0.505408 -1.024661
H111  H     H_    0.634741 0.720712 0.508215 0.260441
H112  H     H_    0.826683 0.742960 0.545724 0.288092
H113  H     H_    0.858505 0.707635 0.484792 0.256286
O52   O     O_3   0.230383 0.156520 0.621836 -0.586151
C110  C     C_3   0.186142 0.184896 0.575531 0.156601
H114  H     H_    0.040741 0.193227 0.577207 0.112304
H115  H     H_    0.207696 0.161660 0.538794 0.074803
C111  C     C_3   0.289323 0.238275 0.572712 -0.290011
H116  H     H_    0.245394 0.265154 0.604697 0.203992
H117  H     H_    0.434428 0.230863 0.578316 0.184264
C112  C     C_3   0.260758 0.265799 0.519905 -1.033886
H118  H     H_    0.334618 0.244348 0.488617 0.286982
H119  H     H_    0.308169 0.307876 0.522298 0.269033
H120  H     H_    0.117289 0.267107 0.509008 0.270510

loop_
_geom_bond_atom_site_label_1
_geom_bond_atom_site_label_2
_geom_bond_distance
_ccdc_geom_bond_type
O17   V3    1.814221 S    
C106  H106  1.109445 S    
N4    O36   1.298983 A    
N7    O41   1.301190 A    
C56   C64   1.449431 S    
C99   H89   1.106748 S    
C43   C51   1.392981 A    
C61   C62   1.218947 T    
C13   C21   1.415610 A    
O12   V1    2.003479 S    
O19   V1    1.825989 S    
C111  C112  1.525923 S    
C45   H5    1.078164 S    
O51   C107  1.412273 S    
C10   C18   1.428731 A    
C91   H71   1.109135 S    
C15   C55   1.409741 A    
C87   C88   1.527817 S    
C74   C75   1.534548 S    
C35   O47   1.385543 S    
C93   H74   1.105288 S    
C75   C76   1.526596 S    
C47   H7    1.074929 S    
C87   H60   1.103371 S    
N1    O29   1.301166 A    
C25   C33   1.420683 A    
C72   H25   1.104752 S    
C86   H59   1.106497 S    
C88   H62   1.107262 S    
O16   V3    2.006164 S    
O18   V4    1.814221 S    
N7    O42   1.298199 A    
C97   H85   1.106792 S    
O11   C3    1.362827 A    
C109  H111  1.103066 S    
C112  H118  1.109857 S    
C13   O25   1.387743 S    
C14   C54   1.396274 A    
O8    V1    1.989806 S    
C13   C53   1.410553 A    
C81   H46   1.104424 S    
C91   H70   1.110172 S    
C111  H116  1.106561 S    
C112  H120  1.099907 S    
C52   C60   1.456722 S    
C68   H17   1.105455 S    
O49   C101  1.414730 S    
C18   N2    1.439669 S    
C12   C20   1.428549 A    
N8    O44   1.299163 A    
C7    C25   1.516457 S    
C46   H6    1.073292 S    
C85   H55   1.111070 S    
C21   N5    1.430775 S    
C98   H86   1.102553 S    
C42   H2    1.075126 S    
C97   H84   1.110341 S    
O21   C65   1.424477 S    
O1    V3    1.996760 S    
C41   H1    1.074767 S    
O22   C68   1.421570 S    
C38   C46   1.422348 A    
O3    C2    1.367893 A    
O2    V4    1.996758 S    
C102  H95   1.096916 S    
C108  C109  1.523546 S    
C17   C25   1.431213 A    
N5    O38   1.298323 A    
C94   H76   1.109981 S    
O28   C86   1.422673 S    
C69   H18   1.105269 S    
C101  H94   1.107676 S    
C54   C62   1.463487 S    
C48   C56   1.386122 A    
C19   C27   1.437192 A    
C99   H88   1.110980 S    
C53   C61   1.462931 S    
C82   H49   1.110370 S    
C34   C42   1.408287 A    
C17   N1    1.431661 S    
O27   C83   1.423451 S    
N2    O32   1.298001 A    
N6    O39   1.299155 A    
C70   H21   1.110328 S    
C104  C105  1.519386 S    
C55   C63   1.450075 S    
C37   O49   1.381223 S    
C96   H81   1.101780 S    
C32   C40   1.418765 A    
C80   H45   1.114403 S    
C28   C36   1.415915 A    
C104  H100  1.102078 S    
C1    C31   1.518028 S    
C9    O21   1.392287 S    
C59   C60   1.215496 T    
C71   C72   1.522828 S    
O9    V1    1.995604 S    
C49   C57   1.450227 S    
C3    C29   1.521549 S    
O15   C7    1.359696 A    
N4    O35   1.299163 A    
O2    C3    1.367063 A    
C23   C31   1.433284 A    
C21   C29   1.427039 A    
O16   C8    1.361683 A    
O7    V2    1.989805 S    
C96   H82   1.106703 S    
C77   C78   1.536804 S    
O12   C4    1.359776 A    
N5    O37   1.300785 A    
C29   C37   1.422702 A    
C103  H99   1.109413 S    
C14   O26   1.379759 S    
C67   H13   1.111004 S    
C78   H40   1.110691 S    
C71   H24   1.109869 S    
C78   H39   1.107916 S    
C84   C85   1.527567 S    
O5    V1    1.994735 S    
C90   H68   1.110557 S    
C105  H103  1.107810 S    
C8    C26   1.530325 S    
C76   H36   1.111065 S    
C33   O45   1.381853 S    
C100  H91   1.097278 S    
C14   C22   1.419602 A    
N1    O30   1.298659 A    
C23   N7    1.433078 S    
N3    O33   1.296841 A    
C26   C34   1.418955 A    
C66   H11   1.105083 S    
O15   V4    2.006164 S    
C79   H43   1.111021 S    
C40   O52   1.381760 S    
C79   H41   1.110998 S    
O11   V2    2.003479 S    
C4    C30   1.511132 S    
C88   H63   1.110335 S    
C38   O50   1.396134 S    
C84   H53   1.103282 S    
C11   C51   1.418160 A    
C86   C87   1.540143 S    
O50   C104  1.415959 S    
C72   C73   1.526769 S    
C75   H33   1.109985 S    
C30   C38   1.417434 A    
C73   H29   1.110733 S    
C98   H87   1.109963 S    
C90   H67   1.098637 S    
C93   H75   1.102726 S    
C95   C96   1.539531 S    
N6    O40   1.300905 A    
C84   H54   1.108114 S    
C31   C39   1.420861 A    
N2    O31   1.296045 A    
C102  H96   1.109773 S    
C44   C52   1.388001 A    
N3    O34   1.297984 A    
C89   C90   1.534270 S    
C101  H93   1.108640 S    
C45   C53   1.395174 A    
C12   O24   1.384138 S    
C42   C50   1.383378 A    
C92   H72   1.101233 S    
C76   H35   1.110362 S    
O10   V2    1.995604 S    
C35   C43   1.398228 A    
C41   C49   1.390347 A    
C82   H48   1.106252 S    
C105  C106  1.528156 S    
C108  H109  1.097200 S    
C70   H22   1.111152 S    
C22   C30   1.426623 A    
C103  H98   1.110115 S    
C110  H115  1.113584 S    
O45   C89   1.412634 S    
C100  H90   1.111090 S    
C82   H50   1.109635 S    
O13   C5    1.366575 A    
C44   H4    1.073760 S    
O9    C1    1.359612 A    
C80   C81   1.546590 S    
C110  C111  1.527168 S    
C104  H101  1.111193 S    
C36   C44   1.408374 A    
C67   H15   1.109651 S    
C39   C47   1.399346 A    
C18   C26   1.441989 A    
C47   C55   1.390461 A    
C69   H19   1.111105 S    
C79   H42   1.108487 S    
O1    C4    1.364410 A    
C39   O51   1.382040 S    
O6    V2    1.994737 S    
C107  H108  1.099393 S    
C89   H65   1.107395 S    
C66   C67   1.527744 S    
C89   H66   1.102507 S    
C110  H114  1.101966 S    
C27   C35   1.421516 A    
C96   C97   1.527018 S    
C77   H38   1.100862 S    
C68   C69   1.539566 S    
C43   H3    1.072235 S    
O4    C1    1.368452 A    
C15   O27   1.393171 S    
C74   H30   1.102394 S    
C65   C66   1.538622 S    
C93   C94   1.526329 S    
C106  H105  1.104020 S    
C5    C27   1.526145 S    
C78   C79   1.530301 S    
C11   C19   1.430445 A    
C71   H23   1.107669 S    
C15   C23   1.416248 A    
C66   H12   1.109075 S    
C90   C91   1.523359 S    
C37   C45   1.406192 A    
C16   C24   1.426389 A    
C106  H104  1.109233 S    
C97   H83   1.100555 S    
C83   H51   1.103569 S    
C98   C99   1.532564 S    
C73   H28   1.110420 S    
C88   H64   1.111170 S    
O48   C98   1.414666 S    
C95   H80   1.108774 S    
N8    O43   1.300663 A    
C36   O48   1.382160 S    
O13   V3    2.011552 S    
C81   C82   1.526075 S    
C12   C52   1.396529 A    
C33   C41   1.399224 A    
C103  H97   1.106580 S    
C74   H31   1.114065 S    
O8    C5    1.363313 A    
C87   H61   1.111239 S    
O23   C71   1.426044 S    
C67   H14   1.110373 S    
C2    C32   1.521493 S    
C92   C93   1.526635 S    
O7    C6    1.370581 A    
C51   C59   1.459434 S    
C76   H34   1.109380 S    
C19   N3    1.433531 S    
C75   H32   1.110512 S    
C34   O46   1.381293 S    
C50   C58   1.450358 S    
C92   H73   1.114193 S    
C102  C103  1.526972 S    
C9    C17   1.415905 A    
O14   C6    1.359800 A    
C81   H47   1.109644 S    
O24   C74   1.421339 S    
C57   C58   1.211280 T    
C10   O22   1.385789 S    
O20   V2    1.825989 S    
C48   H8    1.075589 S    
C86   H58   1.103479 S    
C68   H16   1.104391 S    
C108  H110  1.110198 S    
C16   O28   1.385198 S    
C20   C28   1.438522 A    
C11   O23   1.404645 S    
O52   C110  1.414654 S    
O5    C8    1.370385 A    
C85   H56   1.110387 S    
O10   C2    1.361896 A    
C73   H27   1.110917 S    
O6    C7    1.365803 A    
C83   H52   1.103288 S    
C20   N4    1.441669 S    
O46   C92   1.414933 S    
C6    C28   1.526681 S    
C111  H117  1.102929 S    
C22   N6    1.434955 S    
C83   C84   1.538259 S    
O3    V4    1.998878 S    
C65   H10   1.103745 S    
C100  H92   1.101179 S    
O4    V3    1.998876 S    
C72   H26   1.106106 S    
C109  H112  1.110189 S    
C91   H69   1.103203 S    
C101  C102  1.535684 S    
C94   H78   1.099958 S    
O14   V4    2.011552 S    
C107  H107  1.107845 S    
C24   C32   1.436125 A    
C109  H113  1.109365 S    
C112  H119  1.101272 S    
C65   H9    1.104718 S    
C107  C108  1.533683 S    
C24   N8    1.441777 S    
O47   C95   1.417172 S    
C77   H37   1.102683 S    
O26   C80   1.420729 S    
C10   C50   1.391964 A    
C94   H77   1.102674 S    
C80   H44   1.101132 S    
O25   C77   1.425016 S    
C9    C49   1.409210 A    
C85   H57   1.109492 S    
C69   C70   1.527461 S    
C63   C64   1.211143 T    
C16   C56   1.393828 A    
C70   H20   1.107796 S    
C40   C48   1.407357 A    
C95   H79   1.106900 S    
C105  H102  1.095179 S    
C99   C100  1.521984 S    
C46   C54   1.390597 A    
