data_mof_unit_51654.cif
_audit_creation_date              2012-12-11T14:46:02-0500
_audit_creation_method            fapswitch 2.2
_symmetry_space_group_name_H-M    P1
_symmetry_Int_Tables_number       1
_space_group_crystal_system       triclinic
_cell_length_a                    10.907302
_cell_length_b                    10.934538
_cell_length_c                    18.834392
_cell_angle_alpha                 89.732888
_cell_angle_beta                  90.450493
_cell_angle_gamma                 119.842816
_cell_volume                      1948.37309922

loop_
_atom_site_label
_atom_site_type_symbol
_atom_type_description
_atom_site_fract_x
_atom_site_fract_y
_atom_site_fract_z
_atom_type_partial_charge
C1    C     C_R   0.862979 0.638568 0.602831 0.579736
C2    C     C_R   0.445447 0.713469 0.771799 -0.113581
C3    C     C_R   0.402478 0.683472 0.701259 0.066727
C4    C     C_R   0.259022 0.629430 0.684116 0.124516
C5    C     C_R   0.823971 0.143884 0.817846 -0.035789
C6    C     C_R   0.079137 0.228165 0.825002 -0.092431
C7    C     C_R   0.202952 0.250296 0.792997 -0.118555
C8    C     C_R   0.203864 0.224755 0.720895 -0.091318
C9    C     C_R   0.083006 0.184257 0.679837 -0.063700
C10   C     C_R   0.958086 0.168835 0.710427 -0.003098
C11   C     C_R   0.953253 0.179793 0.785006 -0.024448
C12   C     C_R   0.210988 0.595787 0.611013 0.628112
C13   C     C_R   0.706811 0.093239 0.701103 -0.035125
C14   C     C_R   0.701976 0.112961 0.774463 -0.002310
C15   C     C_R   0.581441 0.038708 0.659687 -0.079336
C16   C     C_R   0.457050 0.025292 0.687311 0.066529
C17   C     C_R   0.455571 0.060077 0.758027 -0.159991
C18   C     C_R   0.575381 0.104929 0.800373 -0.123734
C19   C     C_R   0.838687 0.142863 0.668567 -0.045111
C20   C     C_R   0.717989 0.543671 0.712713 0.066883
C21   C     C_R   0.706573 0.563264 0.785585 0.086617
C22   C     C_R   0.779878 0.700292 0.814399 0.025365
C23   C     C_R   0.860491 0.220389 0.600851 0.534048
C24   C     C_R   0.860158 0.815616 0.770294 -0.184533
C25   C     C_R   0.874676 0.796222 0.698924 -0.156013
C26   C     C_R   0.810037 0.660334 0.670280 0.031728
C27   C     C_R   0.396510 0.615299 0.295065 -0.167876
C28   C     C_R   0.415822 0.623652 0.223018 -0.135805
C29   C     C_R   0.370547 0.699589 0.180472 0.025213
C30   C     C_R   0.316562 0.779479 0.211785 0.078847
C31   C     C_R   0.302456 0.776248 0.285972 0.130006
C32   C     C_R   0.333225 0.684442 0.326662 0.014091
C33   C     C_R   0.719260 0.102252 0.292999 -0.164620
C34   C     C_R   0.863749 0.638640 0.397814 0.587144
C35   C     C_R   0.708670 0.082015 0.220840 -0.161218
C36   C     C_R   0.830430 0.138727 0.178162 0.004774
C37   C     C_R   0.966069 0.209994 0.209335 0.018986
C38   C     C_R   0.975145 0.229790 0.282662 -0.145051
C39   C     C_R   0.851933 0.180118 0.323831 -0.011535
C40   C     C_R   0.881759 0.789964 0.296997 0.062928
C41   C     C_R   0.876301 0.801592 0.224113 -0.118166
C42   C     C_R   0.802657 0.680699 0.181974 -0.007029
C43   C     C_R   0.720654 0.549385 0.213162 -0.154302
C44   C     C_R   0.724660 0.535533 0.286411 0.050657
C45   C     C_R   0.272779 0.636436 0.396895 0.568243
C46   C     C_R   0.815325 0.655609 0.328055 0.104403
C47   C     C_R   0.802797 0.099816 0.893468 0.534365
C48   C     C_R   0.393469 0.700571 0.897356 0.540735
C49   C     C_R   0.773872 0.728299 0.889826 0.571261
C50   C     C_R   0.805738 0.103149 0.103562 0.586245
C51   C     C_R   0.401445 0.706801 0.105372 0.558210
C52   C     C_R   0.794937 0.699896 0.106758 0.553764
C53   C     C_R   0.863334 0.230685 0.395555 0.549872
C54   C     C_R   0.159503 0.600404 0.737971 0.056640
C55   C     C_R   0.203851 0.628723 0.808618 -0.130057
C56   C     C_R   0.346313 0.686401 0.824924 0.009314
Cr1   Cr    Cr6+3 0.791660 0.390250 0.499930 1.075861
Cr2   Cr    Cr6+3 0.098520 0.708290 0.500540 1.071168
Cr3   Cr    Cr6+3 0.109770 0.401430 0.499480 1.026006
Cr4   Cr    Cr6+3 0.874790 0.925890 0.000070 1.042774
Cr5   Cr    Cr6+3 0.574120 0.948670 0.999300 1.006150
Cr6   Cr    Cr6+3 0.551420 0.625320 0.000920 1.042357
H1    H     H_    0.582432 0.011317 0.604539 0.169465
H2    H     H_    0.363261 0.058256 0.780155 0.141332
H3    H     H_    0.916646 0.920668 0.792090 0.157299
H4    H     H_    0.943521 0.886866 0.666957 0.175057
H5    H     H_    0.424856 0.548680 0.325636 0.154208
H6    H     H_    0.465606 0.568459 0.200458 0.153586
H7    H     H_    0.127222 0.603252 0.850509 0.121709
H8    H     H_    0.623811 0.062035 0.324234 0.136678
H9    H     H_    0.603656 0.020892 0.198317 0.148111
H10   H     H_    0.078566 0.291325 0.307033 0.179463
H11   H     H_    0.929567 0.905994 0.200629 0.154330
H12   H     H_    0.654990 0.457595 0.180785 0.129239
H13   H     H_    0.555660 0.754353 0.785492 0.109589
H14   H     H_    0.297144 0.284468 0.824808 0.115476
H15   H     H_    0.298164 0.236163 0.696491 0.119463
H16   H     H_    0.083570 0.251128 0.881061 0.148303
H17   H     H_    0.087031 0.159996 0.624615 0.141630
H18   H     H_    0.567167 0.144551 0.851199 0.162389
O1    O     O_R   0.766500 0.250040 0.579790 -0.487900
O2    O     O_R   0.218690 0.701900 0.425960 -0.466126
O3    O     O_R   0.249490 0.516440 0.419420 -0.523366
O4    O     O_R   0.982880 0.281910 0.424890 -0.512566
O5    O     O_3   0.999980 0.499990 0.499980 -0.288100
O6    O     O_R   0.895110 0.806860 0.920430 -0.512331
O7    O     O_R   0.872260 0.046970 0.925000 -0.514431
O8    O     O_R   0.691430 0.085060 0.918550 -0.525746
O9    O     O_R   0.451490 0.822460 0.925250 -0.498585
O10   O     O_R   0.413330 0.603360 0.920440 -0.510242
O11   O     O_R   0.676110 0.626250 0.926750 -0.452280
O12   O     O_R   0.798570 0.516780 0.574780 -0.455586
O13   O     O_R   0.895350 0.809870 0.080950 -0.512034
O14   O     O_R   0.872490 0.049760 0.073800 -0.475149
O15   O     O_R   0.691680 0.088070 0.079070 -0.527697
O16   O     O_R   0.451720 0.825250 0.074050 -0.521763
O17   O     O_R   0.413580 0.606370 0.080960 -0.497778
O18   O     O_R   0.676340 0.629040 0.075550 -0.509116
O19   O     O_3   0.666780 0.833290 0.000090 -0.287500
O20   O     O_R   0.984000 0.732950 0.581090 -0.506075
O21   O     O_R   0.218600 0.700890 0.574760 -0.460220
O22   O     O_R   0.249390 0.515350 0.579940 -0.501053
O23   O     O_R   0.982790 0.280900 0.573700 -0.525513
O24   O     O_R   0.766600 0.251130 0.419260 -0.498359
O25   O     O_R   0.798660 0.517790 0.425980 -0.476806
O26   O     O_R   0.984100 0.734040 0.420570 -0.477058
N1    N     N_3   0.012776 0.538622 0.721338 -0.626027
H19   H     H_    0.978706 0.601508 0.745936 0.250152
H20   H     H_    0.959863 0.439799 0.745755 0.226154
C57   C     C_2   0.333720 0.988179 0.640729 0.573480
O27   O     O_2   0.217495 0.948832 0.666583 -0.538242
O28   O     O_R   0.350529 0.000768 0.567022 -0.694150
H21   H     H_    0.259209 0.975343 0.540981 0.340481
N2    N     N_3   0.646520 0.404375 0.683241 -0.575367
H22   H     H_    0.682091 0.343375 0.709251 0.248689
H23   H     H_    0.538152 0.360433 0.690983 0.212324
N3    N     N_3   0.634737 0.443556 0.831476 -0.594989
H24   H     H_    0.691191 0.389562 0.831753 0.222368
H25   H     H_    0.533071 0.377491 0.811934 0.213051
N4    N     N_3   0.271410 0.859559 0.169381 -0.637505
H26   H     H_    0.202912 0.794833 0.129491 0.252839
H27   H     H_    0.359556 0.944712 0.146411 0.249105
N5    N     N_3   0.254632 0.862437 0.320283 -0.557365
H28   H     H_    0.339930 0.939265 0.349536 0.220296
H29   H     H_    0.226385 0.916713 0.284081 0.262762
C58   C     C_2   0.098688 0.269054 0.167778 0.573485
O29   O     O_2   0.103180 0.311213 0.107077 -0.502701
O30   O     O_R   0.220017 0.278687 0.198909 -0.730215
H30   H     H_    0.303137 0.318292 0.165222 0.335617
N6    N     N_3   0.954646 0.914396 0.339637 -0.602389
H31   H     H_    0.896288 0.966037 0.337305 0.231411
H32   H     H_    0.053895 0.980669 0.317622 0.247642
N7    N     N_3   0.639649 0.399025 0.317494 -0.585175
H33   H     H_    0.666500 0.329482 0.293722 0.244939
H34   H     H_    0.533854 0.364829 0.305026 0.227591
N8    N     N_3   0.502417 0.700757 0.647624 -0.601822
H35   H     H_    0.593664 0.798565 0.654253 0.220243
H36   H     H_    0.530750 0.623691 0.656300 0.243835

loop_
_geom_bond_atom_site_label_1
_geom_bond_atom_site_label_2
_ccdc_geom_bond_type
C51   O17   A    
Cr1   O25   S    
C55   C56   A    
C58   O29   D    
Cr1   O12   S    
C41   C42   A    
C14   C18   A    
C19   C23   S    
C35   C36   A    
Cr4   O19   S    
O30   H30   S    
N2    H22   S    
Cr5   O16   S    
C16   C57   S    
C7    C8    A    
Cr5   O19   S    
C40   C46   A    
C5    C47   S    
C33   C39   A    
C30   N4    S    
C54   N1    S    
C53   O4    A    
C36   C37   A    
C28   H6    S    
C37   C38   A    
Cr3   O3    S    
C5    C11   A    
Cr2   O2    S    
C17   H2    S    
C9    H17   S    
C38   C39   A    
C50   O15   A    
N5    H29   S    
C53   O24   A    
C15   C16   A    
Cr6   O10   S    
C3    N8    S    
C32   C45   S    
C39   C53   S    
C57   O27   D    
C21   N3    S    
Cr6   O18   S    
C23   O23   A    
C45   O2    A    
N4    H27   S    
C16   C17   A    
N1    H19   S    
C34   C46   S    
C4    C12   S    
C9    C10   A    
C7    H14   S    
C51   O16   A    
Cr4   O13   S    
C43   H12   S    
C35   H9    S    
C48   O10   A    
C21   C22   A    
N1    H20   S    
C45   O3    A    
C49   O11   A    
C1    O20   A    
O28   H21   S    
Cr4   O7    S    
Cr5   O9    S    
C38   H10   S    
C1    C26   S    
C13   C19   A    
C34   O26   A    
N5    H28   S    
Cr2   O20   S    
Cr3   O4    S    
N8    H36   S    
C6    C11   A    
Cr4   O6    S    
C50   O14   A    
C44   C46   A    
C25   C26   A    
Cr2   O26   S    
C47   O7    A    
N6    H32   S    
C43   C44   A    
Cr3   O5    S    
C12   O22   A    
C29   C30   A    
Cr5   O8    S    
Cr6   O17   S    
C31   C32   A    
C27   H5    S    
C10   C19   A    
Cr6   O11   S    
C17   C18   A    
C8    C9    A    
C52   O13   A    
Cr2   O21   S    
C24   C25   A    
C5    C14   A    
C55   H7    S    
C33   H8    S    
C22   C49   S    
C24   H3    S    
C40   C41   A    
C1    O12   A    
C48   O9    A    
C13   C15   A    
C8    H15   S    
C22   C24   A    
C42   C43   A    
C3    C4    A    
Cr2   O5    S    
C36   C50   S    
N4    H26   S    
C37   C58   S    
C29   C51   S    
C44   N7    S    
C48   C56   S    
Cr1   O24   S    
C40   N6    S    
C54   C55   A    
C28   C29   A    
C58   O30   S    
C23   O1    A    
C4    C54   A    
C27   C32   A    
Cr3   O22   S    
C49   O6    A    
C25   H4    S    
N8    H35   S    
N2    H23   S    
Cr5   O15   S    
C6    C7    A    
Cr3   O23   S    
C47   O8    A    
N3    H25   S    
N6    H31   S    
C31   N5    S    
C12   O21   A    
C2    C56   A    
N3    H24   S    
C20   N2    S    
C30   C31   A    
N7    H33   S    
C20   C26   A    
C34   O25   A    
C52   O18   A    
C33   C35   A    
Cr1   O5    S    
C2    C3    A    
Cr1   O1    S    
C57   O28   S    
C6    H16   S    
C10   C11   A    
C41   H11   S    
Cr6   O19   S    
C20   C21   A    
C18   H18   S    
C27   C28   A    
N7    H34   S    
C15   H1    S    
C13   C14   A    
C2    H13   S    
C42   C52   S    
Cr4   O14   S    
