data_mof_unit_42084.cif
_audit_creation_date              2013-03-05T16:04:12-0500
_audit_creation_method            fapswitch 2.2
_symmetry_space_group_name_H-M    P1
_symmetry_Int_Tables_number       1
_space_group_crystal_system       triclinic
_cell_length_a                    19.475063
_cell_length_b                    6.953366
_cell_length_c                    17.677018
_cell_angle_alpha                 90.003613
_cell_angle_beta                  108.871416
_cell_angle_gamma                 89.995344
_cell_volume                      2265.10012922

loop_
_atom_site_label
_atom_site_type_symbol
_atom_site_description
_atom_site_fract_x
_atom_site_fract_y
_atom_site_fract_z
_atom_type_partial_charge
O1    O     O_R   0.561710 0.369960 0.440200 -0.587080
O2    O     O_R   0.061710 0.630040 0.940200 -0.587163
O3    O     O_R   0.412630 0.033330 0.406330 -0.598479
O4    O     O_R   0.912630 0.966670 0.906330 -0.598493
O5    O     O_R   0.438290 0.869790 0.559800 -0.595546
O6    O     O_R   0.938290 0.130210 0.059800 -0.595523
C1    C     C_R   0.384612 0.203105 0.383602 0.940583
C2    C     C_R   0.884611 0.796898 0.883603 0.940629
O7    O     O_R   0.559570 0.039810 0.430640 -0.588579
O8    O     O_R   0.059570 0.960190 0.930640 -0.588653
O9    O     O_R   0.586280 0.876320 0.584290 -0.594036
O10   O     O_R   0.086280 0.123680 0.084290 -0.594028
C3    C     C_R   0.580931 0.209041 0.415865 0.915809
C4    C     C_R   0.080935 0.790940 0.915873 0.915973
O11   O     O_R   0.413720 0.363440 0.415710 -0.594078
O12   O     O_R   0.913720 0.636560 0.915710 -0.594060
O13   O     O_3   0.508590 0.205630 0.550380 -0.275756
O14   O     O_3   0.008590 0.794370 0.050380 -0.275736
V1    V     V_3+5 0.498410 0.928130 0.490650 1.154417
V2    V     V_3+5 0.998410 0.071870 0.990650 1.154343
O15   O     O_R   0.587370 0.546990 0.593670 -0.596589
O16   O     O_R   0.087370 0.453010 0.093670 -0.596601
C5    C     C_R   0.615570 0.716780 0.616412 0.941740
C6    C     C_R   0.115570 0.283217 0.116412 0.941689
O17   O     O_R   0.440430 0.540520 0.569360 -0.595818
O18   O     O_R   0.940430 0.459480 0.069360 -0.595747
C7    C     C_R   0.418747 0.709542 0.584388 0.954201
C8    C     C_R   0.918740 0.290475 0.084385 0.954128
V3    V     V_3+5 0.501590 0.428960 0.509350 1.155462
V4    V     V_3+5 0.001590 0.571040 0.009350 1.155457
O19   O     O_3   0.491410 0.701330 0.449620 -0.273577
O20   O     O_3   0.991410 0.298670 0.949620 -0.273607
C9    C     C_R   0.285116 0.911218 0.681552 0.365380
C10   C     C_R   0.784944 0.088848 0.181328 0.365266
C11   C     C_R   0.330883 0.893243 0.634400 -0.263282
C12   C     C_R   0.830765 0.106882 0.134235 -0.263165
H1    H     H_    0.336945 0.014909 0.598813 0.175113
H2    H     H_    0.836795 0.985348 0.098562 0.175282
C13   C     C_R   0.369734 0.722864 0.633797 -0.193698
C14   C     C_R   0.869691 0.277172 0.133761 -0.193780
C15   C     C_R   0.362406 0.569090 0.681907 -0.105176
C16   C     C_R   0.862372 0.430858 0.181929 -0.104903
H3    H     H_    0.392163 0.436634 0.683700 0.138975
H4    H     H_    0.892162 0.563271 0.183794 0.138879
C17   C     C_R   0.317292 0.585113 0.729240 -0.086548
C18   C     C_R   0.817223 0.414784 0.229228 -0.086566
H5    H     H_    0.313680 0.464489 0.766188 0.181861
H6    H     H_    0.813592 0.535354 0.266216 0.181465
C19   C     C_R   0.276699 0.752988 0.728643 -0.096335
C20   C     C_R   0.776599 0.246937 0.228535 -0.096655
C21   C     C_R   0.246879 0.689658 0.855221 -0.099446
C22   C     C_R   0.747049 0.308788 0.355349 -0.100007
H7    H     H_    0.300932 0.632372 0.882857 0.109141
H8    H     H_    0.801244 0.365007 0.383084 0.109066
C23   C     C_R   0.199448 0.698466 0.900220 -0.151570
C24   C     C_R   0.699650 0.299951 0.400388 -0.151638
H9    H     H_    0.217447 0.645850 0.961197 0.105245
H10   H     H_    0.717822 0.351434 0.461522 0.104923
C25   C     C_R   0.130081 0.779378 0.867597 -0.109192
C26   C     C_R   0.630069 0.220531 0.367573 -0.108661
C27   C     C_R   0.107689 0.844539 0.788293 -0.167691
C28   C     C_R   0.607467 0.156760 0.288079 -0.167646
H11   H     H_    0.053842 0.904101 0.761595 0.109526
H12   H     H_    0.553465 0.098345 0.261248 0.109213
C29   C     C_R   0.154154 0.829517 0.742322 -0.002176
C30   C     C_R   0.653941 0.171653 0.242110 -0.001788
H13   H     H_    0.134926 0.877112 0.680694 0.120435
H14   H     H_    0.634591 0.125056 0.180359 0.120013
C31   C     C_R   0.225255 0.757577 0.775950 0.166015
C32   C     C_R   0.725203 0.242265 0.275885 0.166367
C33   C     C_R   0.768320 0.623286 0.811308 0.191659
C34   C     C_R   0.268320 0.376737 0.311304 0.191542
C35   C     C_R   0.814262 0.782715 0.817862 -0.229149
C36   C     C_R   0.314264 0.217292 0.317861 -0.229140
C37   C     C_R   0.790381 0.927938 0.759943 -0.166828
C38   C     C_R   0.290384 0.072052 0.259946 -0.166798
H15   H     H_    0.823618 0.053595 0.762250 0.140543
H16   H     H_    0.323622 0.946383 0.262255 0.140567
C39   C     C_R   0.725817 0.905625 0.694967 -0.144035
C40   C     C_R   0.225818 0.094360 0.194970 -0.144042
H17   H     H_    0.710965 0.017066 0.649865 0.131964
H18   H     H_    0.210968 0.982905 0.149871 0.131995
C41   C     C_R   0.683223 0.736935 0.685619 -0.230173
C42   C     C_R   0.183222 0.263061 0.185620 -0.230175
C43   C     C_R   0.704498 0.601068 0.747069 0.169993
C44   C     C_R   0.204497 0.398950 0.247065 0.169964
C45   C     C_3   0.715876 0.390182 0.742589 -0.495053
C46   C     C_3   0.215874 0.609828 0.242576 -0.495026
C47   C     C_3   0.785162 0.413863 0.812989 -0.446850
C48   C     C_3   0.285160 0.586152 0.312976 -0.446850
H19   H     H_    0.725823 0.348707 0.686309 0.187472
H20   H     H_    0.225820 0.651267 0.186294 0.187486
H21   H     H_    0.673601 0.304917 0.757291 0.204472
H22   H     H_    0.173598 0.695122 0.257276 0.204437
H23   H     H_    0.835255 0.384634 0.797730 0.193657
H24   H     H_    0.335252 0.615347 0.297715 0.193677
H25   H     H_    0.782726 0.343127 0.868464 0.193699
H26   H     H_    0.282725 0.656920 0.368449 0.193663
N1    N     N_R   0.250543 0.093253 0.683384 0.212157
O21   O     O_R   0.244190 0.158112 0.749852 -0.447398
O22   O     O_R   0.232462 0.204453 0.620782 -0.425284
N2    N     N_R   0.750198 0.906951 0.182911 0.212411
O23   O     O_R   0.732519 0.795612 0.120369 -0.425147
O24   O     O_R   0.743539 0.842020 0.249220 -0.446933

loop_
_geom_bond_atom_site_label_1
_geom_bond_atom_site_label_2
_geom_bond_distance
_ccdc_geom_bond_type
C30   H14   1.082773 S    
C23   C25   1.403572 A    
O13   V3    1.700664 S    
O4    C2    1.308025 A    
V1    O19   1.722660 S    
C13   C15   1.401976 A    
C3    C26   1.476268 S    
C4    C25   1.476207 S    
O9    V1    1.991421 S    
C10   N2    1.439017 S    
C36   C38   1.405784 A    
C11   H1    1.083272 S    
C42   C44   1.397515 A    
O3    C1    1.308009 A    
C44   C46   1.488924 S    
C8    C14   1.490710 S    
O12   V4    2.010850 S    
C26   C28   1.401734 A    
C16   C18   1.400104 A    
C27   H11   1.083413 S    
O7    C3    1.302439 A    
C28   H12   1.083229 S    
C9    C11   1.409030 A    
O5    C7    1.297109 A    
O7    V1    1.991141 S    
O6    C8    1.297140 A    
C46   H20   1.111339 S    
O8    V2    1.991013 S    
C29   H13   1.082901 S    
O3    V1    1.984117 S    
O14   V4    1.700602 S    
V4    O20   2.146002 S    
C21   C23   1.401813 A    
C40   C42   1.415163 A    
C17   H5    1.079271 S    
C2    O12   1.295498 A    
C33   C43   1.394715 A    
C15   H3    1.083119 S    
C16   H4    1.083102 S    
C22   H8    1.082796 S    
O11   V3    2.010865 S    
C1    C36   1.485697 S    
C46   H22   1.111499 S    
C43   C45   1.488923 S    
O17   V3    1.990686 S    
C18   H6    1.079450 S    
C10   C20   1.420814 A    
C25   C27   1.401874 A    
C45   H19   1.111340 S    
C28   C30   1.402139 A    
C12   C14   1.407512 A    
C34   C36   1.405684 A    
O8    C4    1.302458 A    
C7    C13   1.490585 S    
C39   H17   1.081952 S    
C1    O11   1.295497 A    
O15   V3    2.018743 S    
C24   C26   1.403333 A    
C47   H25   1.111739 S    
C9    N1    1.438920 S    
C47   H23   1.111732 S    
C11   C13   1.407555 A    
C34   C48   1.490835 S    
N1    O21   1.301228 A    
C33   C47   1.490837 S    
C17   C19   1.407860 A    
O10   V2    1.991432 S    
O1    V3    1.989734 S    
N2    O24   1.301153 A    
C37   H15   1.080308 S    
C5    C41   1.486446 S    
C40   H18   1.081947 S    
N1    O22   1.301707 A    
C46   C48   1.519963 S    
O18   V4    1.990816 S    
C23   H9    1.083595 S    
O16   C6    1.309296 A    
O1    C3    1.296612 A    
C35   C37   1.405782 A    
C12   H2    1.083236 S    
C33   C35   1.405691 A    
V2    O20   1.722724 S    
C18   C20   1.407877 A    
O16   V4    2.018709 S    
C41   C43   1.397515 A    
C38   C40   1.410719 A    
C38   H16   1.080308 S    
C14   C16   1.402018 A    
C34   C44   1.394717 A    
C48   H24   1.111731 S    
O5    V1    1.988862 S    
O17   C7    1.304838 A    
O6    V2    1.988793 S    
O10   C6    1.291855 A    
O18   C8    1.304860 A    
O2    V4    1.989804 S    
O15   C5    1.309312 A    
C20   C32   1.498495 S    
V3    O19   2.146092 S    
C39   C41   1.415170 A    
C30   C32   1.409839 A    
C37   C39   1.410723 A    
C29   C31   1.410116 A    
C45   H21   1.111499 S    
O9    C5    1.291857 A    
C2    C35   1.485703 S    
O13   V1    2.177547 S    
C10   C12   1.409118 A    
C24   H10   1.083412 S    
O14   V2    2.177637 S    
C6    C42   1.486437 S    
N2    O23   1.301487 A    
O2    C4    1.296570 A    
C22   C32   1.407643 A    
O4    V2    1.984149 S    
C27   C29   1.402052 A    
C45   C47   1.519965 S    
C15   C17   1.399998 A    
C19   C31   1.498705 S    
C21   C31   1.407926 A    
C21   H7    1.082933 S    
C9    C19   1.420814 A    
C48   H26   1.111738 S    
C22   C24   1.401854 A    
