data_mof_unit_50737.cif
_audit_creation_date              2012-12-10T19:29:37-0500
_audit_creation_method            fapswitch 2.2
_symmetry_space_group_name_H-M    P1
_symmetry_Int_Tables_number       1
_space_group_crystal_system       triclinic
_cell_length_a                    22.197671
_cell_length_b                    22.319639
_cell_length_c                    14.940952
_cell_angle_alpha                 89.996427
_cell_angle_beta                  90.456986
_cell_angle_gamma                 89.999824
_cell_volume                      7402.16960717

loop_
_atom_site_label
_atom_site_type_symbol
_atom_type_description
_atom_site_fract_x
_atom_site_fract_y
_atom_site_fract_z
_atom_type_partial_charge
C1    C     C_R   0.418785 0.918803 0.499809 0.905400
C2    C     C_1   0.663767 0.837531 0.499476 0.020566
C3    C     C_3   0.897473 0.794853 0.459239 0.073863
C4    C     C_3   0.955322 0.788842 0.405237 -0.311634
C5    C     C_3   0.011021 0.800099 0.463246 -0.980720
C6    C     C_3   0.856705 0.154112 0.395952 0.081184
C7    C     C_3   0.906228 0.127722 0.455947 -0.334866
C8    C     C_3   0.912957 0.060412 0.441233 -0.977242
C9    C     C_3   0.139099 0.837792 0.610890 0.062127
C10   C     C_3   0.092094 0.849604 0.682842 -0.311145
C11   C     C_3   0.071265 0.914722 0.681423 -0.994668
C12   C     C_3   0.715559 0.775816 0.316232 -0.373735
C13   C     C_1   0.666340 0.159769 0.501815 -0.024671
C14   C     C_3   0.730591 0.840132 0.289766 -0.832911
C15   C     C_3   0.297216 0.233215 0.674815 -0.394238
C16   C     C_3   0.269550 0.275901 0.742749 -0.831936
C17   C     C_3   0.297880 0.763459 0.680688 -0.366275
C18   C     C_3   0.285101 0.824181 0.723353 -0.867892
C19   C     C_3   0.717233 0.219102 0.322085 -0.394683
C20   C     C_3   0.748664 0.258201 0.253001 -0.833361
C21   C     C_3   0.202054 0.263429 0.319316 -0.367447
C22   C     C_3   0.214784 0.324142 0.276575 -0.867258
C23   C     C_3   0.783054 0.719339 0.677897 -0.394133
C24   C     C_1   0.336413 0.837429 0.500860 0.018008
C25   C     C_3   0.751715 0.758513 0.746973 -0.833815
C26   C     C_3   0.784206 0.276005 0.683805 -0.374394
C27   C     C_3   0.769111 0.340348 0.710039 -0.832767
C28   C     C_3   0.202863 0.733167 0.325131 -0.394655
C29   C     C_3   0.230540 0.775858 0.257206 -0.832265
C30   C     C_3   0.546695 0.890192 0.074791 -0.368278
C31   C     C_3   0.569773 0.843795 0.008346 -0.884789
C32   C     C_3   0.453187 0.109576 0.925218 -0.371134
C33   C     C_3   0.430142 0.155986 0.991669 -0.882962
C34   C     C_3   0.427941 0.904720 0.924684 -0.372049
C35   C     C_1   0.833680 0.659788 0.498180 -0.024858
C36   C     C_3   0.398784 0.861750 0.990932 -0.885231
C37   C     C_3   0.571934 0.095054 0.075215 -0.371044
C38   C     C_3   0.601065 0.138008 0.008917 -0.883819
C39   C     C_3   0.074120 0.406290 0.075367 -0.371890
C40   C     C_3   0.108723 0.367507 0.009212 -0.886739
C41   C     C_3   0.926018 0.593476 0.924734 -0.370785
C42   C     C_3   0.891464 0.632264 0.990939 -0.884340
C43   C     C_3   0.955731 0.389202 0.925271 -0.368114
C44   C     C_3   0.939018 0.340205 0.991839 -0.884219
C45   C     C_3   0.044411 0.610562 0.074702 -0.370831
C46   C     C_1   0.163585 0.337429 0.499141 0.017992
C47   C     C_3   0.061112 0.659552 0.008111 -0.883100
C48   C     C_1   0.163221 0.663162 0.502029 0.004434
C49   C     C_1   0.836255 0.337510 0.500541 0.020587
C50   C     C_1   0.499925 0.999935 0.189775 0.044806
C51   C     C_1   0.500022 0.999954 0.810221 0.043724
C52   C     C_1   0.999977 0.499953 0.189780 0.043649
C53   C     C_R   0.581663 0.080745 0.500278 0.902662
C54   C     C_1   0.000082 0.499933 0.810224 0.044703
C55   C     C_3   0.465588 0.954127 0.969799 0.151006
C56   C     C_3   0.534293 0.045632 0.030168 0.150376
C57   C     C_3   0.522568 0.947388 0.029987 0.148549
C58   C     C_3   0.477314 0.052373 0.970004 0.149897
C59   C     C_3   0.979005 0.446746 0.970044 0.148479
C60   C     C_3   0.021126 0.553009 0.029965 0.149813
C61   C     C_3   0.035755 0.455152 0.030237 0.151159
C62   C     C_3   0.964376 0.544601 0.969798 0.150356
C63   C     C_3   0.700659 0.730606 0.541658 0.550532
C64   C     C_R   0.581353 0.918924 0.500213 0.905582
C65   C     C_3   0.294851 0.266707 0.443562 0.546291
C66   C     C_3   0.294067 0.734153 0.449350 0.553874
C67   C     C_3   0.702797 0.266630 0.545862 0.540656
C68   C     C_3   0.205971 0.234166 0.550663 0.553904
C69   C     C_3   0.797176 0.766612 0.453944 0.540680
C70   C     C_3   0.799437 0.230526 0.458551 0.550488
C71   C     C_3   0.205140 0.766680 0.556367 0.546307
C72   C     C_3   0.225462 0.198338 0.467263 -0.449105
C73   C     C_3   0.772737 0.798343 0.538256 -0.397298
C74   C     C_3   0.775131 0.199527 0.543522 -0.433404
C75   C     C_R   0.418811 0.081277 0.499717 0.901041
C76   C     C_3   0.224781 0.802743 0.472691 -0.419917
C77   C     C_3   0.724846 0.699510 0.456698 -0.433445
C78   C     C_3   0.275230 0.302771 0.527240 -0.419988
C79   C     C_3   0.274557 0.698328 0.532751 -0.449097
C80   C     C_3   0.727350 0.298265 0.461540 -0.397370
C81   C     C_1   0.374429 0.125653 0.498889 -0.189192
C82   C     C_1   0.626036 0.874917 0.500394 -0.189168
C83   C     C_1   0.627679 0.123344 0.501048 -0.194344
C84   C     C_1   0.374223 0.874708 0.499747 -0.187876
C85   C     C_1   0.872330 0.623352 0.498944 -0.194323
C86   C     C_R   0.918647 0.418923 0.499791 0.905584
C87   C     C_1   0.125773 0.374706 0.500260 -0.187907
C88   C     C_1   0.125588 0.625634 0.501092 -0.189207
C89   C     C_1   0.873976 0.374906 0.499619 -0.189153
C90   C     C_3   0.271480 0.243558 0.580900 0.095482
C91   C     C_3   0.733617 0.761866 0.413047 0.121753
C92   C     C_3   0.736083 0.235916 0.417431 0.080116
C93   C     C_3   0.270868 0.757567 0.586492 0.105989
C94   C     C_3   0.764069 0.736045 0.582565 0.079969
C95   C     C_3   0.229115 0.257572 0.413490 0.106352
C96   C     C_3   0.228565 0.743525 0.419060 0.095758
C97   C     C_R   0.081192 0.581273 0.500278 0.901027
C98   C     C_3   0.766296 0.261934 0.586971 0.122079
C99   C     C_3   0.291397 0.208522 0.497391 -0.008240
C100  C     C_3   0.708838 0.791965 0.497633 0.039501
C101  C     C_3   0.711427 0.205354 0.502151 -0.037676
C102  C     C_3   0.290810 0.792430 0.502858 0.032038
C103  C     C_3   0.788608 0.705386 0.497852 -0.037662
C104  C     C_3   0.209193 0.292437 0.497126 0.032050
C105  C     C_3   0.208631 0.708491 0.502566 -0.008245
C106  C     C_3   0.791193 0.291937 0.502379 0.039434
C107  C     C_3   0.442876 0.006606 0.028868 0.148337
C108  C     C_R   0.081213 0.418802 0.500194 0.905404
C109  C     C_3   0.557007 0.993151 0.971119 0.148759
C110  C     C_3   0.943222 0.491481 0.028880 0.148664
C111  C     C_3   0.056906 0.508269 0.971133 0.148202
C112  C     C_3   0.499856 0.999872 0.089208 -0.164102
C113  C     C_3   0.500032 0.999898 0.910778 -0.163762
C114  C     C_3   0.999968 0.499896 0.089225 -0.163762
C115  C     C_3   0.000156 0.499868 0.910790 -0.164130
C116  C     C_3   0.618981 0.985369 0.927703 -0.365422
C117  C     C_3   0.670715 0.981827 0.995388 -0.890569
C118  C     C_3   0.380906 0.014329 0.072311 -0.364520
C119  C     C_R   0.918336 0.580744 0.499719 0.902687
C120  C     C_3   0.329159 0.017832 0.004648 -0.891442
C121  C     C_3   0.118766 0.516888 0.927718 -0.364388
C122  C     C_3   0.169577 0.527184 0.995387 -0.891491
C123  C     C_3   0.881359 0.482794 0.072267 -0.365497
C124  C     C_3   0.830562 0.472474 0.004576 -0.890230
C125  C     C_3   0.643469 0.654266 0.604623 0.081252
C126  C     C_3   0.593852 0.627836 0.544846 -0.334977
C127  C     C_3   0.587119 0.560543 0.559740 -0.977210
C128  C     C_3   0.360758 0.337883 0.388856 0.062271
C129  C     C_3   0.407672 0.349733 0.316783 -0.311103
C130  C     C_1   0.336806 0.163191 0.497935 0.004359
C131  C     C_3   0.428398 0.414885 0.318073 -0.994755
C132  C     C_3   0.346212 0.661071 0.370267 0.079722
C133  C     C_3   0.398762 0.632192 0.421319 -0.330371
C134  C     C_3   0.404818 0.565891 0.398415 -0.989951
C135  C     C_3   0.602507 0.294881 0.540195 0.073972
C136  C     C_3   0.544567 0.288598 0.593911 -0.312128
C137  C     C_3   0.488957 0.299889 0.535733 -0.980276
C138  C     C_3   0.153862 0.161079 0.629805 0.079747
C139  C     C_3   0.101308 0.132188 0.578782 -0.330331
C140  C     C_3   0.095278 0.065885 0.601696 -0.989839
H1    H     H_    0.207120 0.155015 0.442843 0.165128
H2    H     H_    0.662569 0.946642 0.046064 0.262553
H3    H     H_    0.737470 0.306136 0.263862 0.255666
H4    H     H_    0.798245 0.252221 0.257350 0.282137
H5    H     H_    0.733369 0.245177 0.184796 0.237253
H6    H     H_    0.728365 0.171329 0.309704 0.196692
H7    H     H_    0.667706 0.224786 0.315042 0.203846
H8    H     H_    0.202532 0.361297 0.322302 0.256170
H9    H     H_    0.263049 0.327636 0.258783 0.269939
H10   H     H_    0.187765 0.328649 0.214066 0.246615
H11   H     H_    0.220746 0.227532 0.276184 0.213962
H12   H     H_    0.152549 0.256863 0.323523 0.204003
H13   H     H_    0.712975 0.970705 0.959789 0.248775
H14   H     H_    0.762880 0.806438 0.735939 0.255319
H15   H     H_    0.702130 0.752516 0.742803 0.282330
H16   H     H_    0.767115 0.745572 0.815166 0.237520
H17   H     H_    0.771945 0.671579 0.690439 0.196964
H18   H     H_    0.832589 0.725036 0.684770 0.203578
H19   H     H_    0.793504 0.372689 0.667148 0.254402
H20   H     H_    0.719949 0.348581 0.704007 0.287226
H21   H     H_    0.782972 0.348141 0.780659 0.237391
H22   H     H_    0.760126 0.244737 0.728960 0.216362
H23   H     H_    0.833403 0.268557 0.692211 0.199897
H24   H     H_    0.618405 0.944054 0.886423 0.205899
H25   H     H_    0.221506 0.823092 0.276227 0.255590
H26   H     H_    0.279934 0.768742 0.253135 0.282868
H27   H     H_    0.210362 0.767446 0.190143 0.237682
H28   H     H_    0.211765 0.686190 0.304625 0.194278
H29   H     H_    0.153328 0.740161 0.326495 0.208079
H30   H     H_    0.535221 0.833108 0.956974 0.264378
H31   H     H_    0.611145 0.859808 0.975102 0.264620
H32   H     H_    0.581170 0.801917 0.044833 0.248186
H33   H     H_    0.583628 0.902181 0.121973 0.200766
H34   H     H_    0.510297 0.870040 0.115391 0.206867
H35   H     H_    0.627163 0.023295 0.881345 0.201066
H36   H     H_    0.388831 0.139941 0.025045 0.265068
H37   H     H_    0.464741 0.166740 0.042938 0.263905
H38   H     H_    0.418657 0.197834 0.955162 0.247415
H39   H     H_    0.489566 0.129718 0.884568 0.204807
H40   H     H_    0.416232 0.097581 0.878085 0.199167
H41   H     H_    0.433287 0.834212 0.025528 0.265612
H42   H     H_    0.371957 0.886226 0.041220 0.264957
H43   H     H_    0.368182 0.830926 0.954035 0.246120
H44   H     H_    0.392367 0.925937 0.882825 0.203699
H45   H     H_    0.457011 0.878816 0.878630 0.203232
H46   H     H_    0.337270 0.053051 0.954013 0.262431
H47   H     H_    0.627833 0.113510 0.958583 0.263858
H48   H     H_    0.566556 0.165572 0.974380 0.264910
H49   H     H_    0.631716 0.168810 0.045770 0.247341
H50   H     H_    0.542870 0.120962 0.121273 0.200943
H51   H     H_    0.607520 0.073837 0.117042 0.203079
H52   H     H_    0.078298 0.348278 0.957676 0.265673
H53   H     H_    0.144562 0.393715 0.976157 0.265276
H54   H     H_    0.130597 0.329999 0.045896 0.246344
H55   H     H_    0.106543 0.427532 0.122538 0.200064
H56   H     H_    0.044299 0.377358 0.116039 0.206768
H57   H     H_    0.322510 0.974279 0.970551 0.264081
H58   H     H_    0.855711 0.606031 0.024153 0.264062
H59   H     H_    0.921936 0.651571 0.042345 0.264661
H60   H     H_    0.869486 0.669715 0.954256 0.247484
H61   H     H_    0.955833 0.622398 0.884034 0.204636
H62   H     H_    0.893567 0.572232 0.877613 0.199284
H63   H     H_    0.979649 0.322537 0.026212 0.264609
H64   H     H_    0.906895 0.356926 0.042300 0.264312
H65   H     H_    0.917392 0.302524 0.955242 0.248066
H66   H     H_    0.915772 0.400338 0.883399 0.204348
H67   H     H_    0.990611 0.371769 0.879292 0.203341
H68   H     H_    0.286890 0.028889 0.040268 0.248764
H69   H     H_    0.093184 0.642803 0.957597 0.264900
H70   H     H_    0.020473 0.677254 0.973800 0.264088
H71   H     H_    0.082791 0.697219 0.044676 0.247497
H72   H     H_    0.009555 0.628003 0.120714 0.201094
H73   H     H_    0.084385 0.599420 0.116532 0.202946
H74   H     H_    0.372765 0.976387 0.118659 0.201632
H75   H     H_    0.381452 0.055640 0.113602 0.206217
H76   H     H_    0.164583 0.571129 0.028848 0.263664
H77   H     H_    0.791350 0.839253 0.570415 0.157503
H78   H     H_    0.170876 0.491329 0.046535 0.262866
H79   H     H_    0.213325 0.527251 0.959894 0.248789
H80   H     H_    0.129162 0.476770 0.886813 0.205223
H81   H     H_    0.116643 0.555501 0.881016 0.202697
H82   H     H_    0.829223 0.508366 0.953489 0.262752
H83   H     H_    0.835597 0.428559 0.971037 0.263444
H84   H     H_    0.786814 0.472327 0.040067 0.248711
H85   H     H_    0.883509 0.444168 0.118943 0.202324
H86   H     H_    0.870922 0.522883 0.113208 0.204635
H87   H     H_    0.630780 0.647619 0.675709 0.160520
H88   H     H_    0.793117 0.158783 0.576873 0.165276
H89   H     H_    0.686531 0.629315 0.594993 0.124241
H90   H     H_    0.550332 0.650231 0.559746 0.230282
H91   H     H_    0.604582 0.636113 0.473428 0.215969
H92   H     H_    0.629763 0.537083 0.543313 0.264715
H93   H     H_    0.550709 0.542883 0.515714 0.263975
H94   H     H_    0.575248 0.551214 0.630468 0.265275
H95   H     H_    0.381294 0.347552 0.455414 0.150901
H96   H     H_    0.321686 0.368405 0.377762 0.140960
H97   H     H_    0.447254 0.320083 0.328028 0.227806
H98   H     H_    0.388002 0.339321 0.249916 0.223822
H99   H     H_    0.206579 0.846035 0.447831 0.153229
H100  H     H_    0.389691 0.445118 0.304235 0.270703
H101  H     H_    0.462880 0.421918 0.265689 0.268617
H102  H     H_    0.448542 0.426272 0.384216 0.267138
H103  H     H_    0.355051 0.657585 0.297373 0.161399
H104  H     H_    0.303637 0.635795 0.382354 0.121106
H105  H     H_    0.441328 0.655567 0.403977 0.231098
H106  H     H_    0.391794 0.636903 0.494498 0.215194
H107  H     H_    0.363153 0.541358 0.416740 0.263849
H108  H     H_    0.443291 0.546368 0.436345 0.268201
H109  H     H_    0.413230 0.560202 0.325723 0.269903
H110  H     H_    0.706815 0.658727 0.423517 0.165212
H111  H     H_    0.599757 0.263673 0.482015 0.136741
H112  H     H_    0.606229 0.341581 0.514801 0.143325
H113  H     H_    0.541947 0.242585 0.622151 0.230273
H114  H     H_    0.545166 0.321115 0.650266 0.224344
H115  H     H_    0.490423 0.345827 0.507240 0.261668
H116  H     H_    0.447780 0.295423 0.576955 0.264535
H117  H     H_    0.486506 0.266714 0.480388 0.275573
H118  H     H_    0.145037 0.157595 0.702704 0.161428
H119  H     H_    0.196441 0.135813 0.617710 0.121078
H120  H     H_    0.058739 0.155551 0.596145 0.231148
H121  H     H_    0.293429 0.346069 0.552070 0.153202
H122  H     H_    0.108257 0.136905 0.505599 0.215155
H123  H     H_    0.136950 0.041367 0.583365 0.263805
H124  H     H_    0.056809 0.046349 0.563776 0.268273
H125  H     H_    0.086875 0.060192 0.674390 0.269860
H126  H     H_    0.900419 0.763529 0.517263 0.136875
H127  H     H_    0.893679 0.841491 0.484850 0.143189
H128  H     H_    0.957993 0.742913 0.376714 0.230305
H129  H     H_    0.954543 0.821511 0.349077 0.224347
H130  H     H_    0.009511 0.845955 0.492013 0.261730
H131  H     H_    0.052128 0.795839 0.421825 0.264487
H132  H     H_    0.292905 0.655013 0.557202 0.165174
H133  H     H_    0.013655 0.766781 0.518387 0.275565
H134  H     H_    0.869496 0.147396 0.324923 0.160458
H135  H     H_    0.813623 0.129181 0.405501 0.124252
H136  H     H_    0.949779 0.150085 0.441132 0.230242
H137  H     H_    0.895399 0.136072 0.527310 0.216030
H138  H     H_    0.870276 0.036985 0.457560 0.264717
H139  H     H_    0.949287 0.042777 0.485430 0.263995
H140  H     H_    0.924940 0.051010 0.370571 0.265263
H141  H     H_    0.118603 0.847374 0.544273 0.151023
H142  H     H_    0.178108 0.868390 0.622012 0.141002
H143  H     H_    0.708769 0.339134 0.429217 0.157565
H144  H     H_    0.052571 0.819884 0.671547 0.227753
H145  H     H_    0.111716 0.839256 0.749765 0.223848
H146  H     H_    0.109910 0.945020 0.695313 0.270788
H147  H     H_    0.036718 0.921725 0.733719 0.268605
H148  H     H_    0.051172 0.926049 0.615221 0.267047
H149  H     H_    0.706246 0.872515 0.332640 0.254247
H150  H     H_    0.779758 0.848388 0.295623 0.287137
H151  H     H_    0.716626 0.847835 0.219167 0.238006
H152  H     H_    0.739582 0.744501 0.271087 0.216397
H153  H     H_    0.666353 0.768341 0.308009 0.199918
H154  H     H_    0.677406 0.025390 0.029438 0.263664
H155  H     H_    0.278564 0.323137 0.723709 0.255319
H156  H     H_    0.220158 0.268773 0.746859 0.282847
H157  H     H_    0.289751 0.267497 0.809801 0.238147
H158  H     H_    0.288335 0.186236 0.695345 0.194392
H159  H     H_    0.346747 0.240222 0.673413 0.207978
H160  H     H_    0.297389 0.861325 0.677621 0.256358
H161  H     H_    0.236817 0.827676 0.741039 0.269880
H162  H     H_    0.312062 0.828708 0.785911 0.245426
H163  H     H_    0.279177 0.727568 0.723828 0.214082
H164  H     H_    0.347390 0.756910 0.676543 0.204136
N1    N     N_1   0.500020 0.000000 0.268010 -0.090255
N2    N     N_1   0.499980 0.000000 0.731990 -0.090700
N3    N     N_1   0.000020 0.500000 0.268010 -0.090706
N4    N     N_1   0.999980 0.500000 0.731990 -0.090248
O1    O     O_R   0.438390 0.938390 0.574460 -0.614204
O2    O     O_R   0.561600 0.061610 0.574480 -0.609239
O3    O     O_R   0.561600 0.938390 0.574480 -0.606911
O4    O     O_R   0.438400 0.061610 0.425520 -0.606497
O5    O     O_R   0.938400 0.438390 0.425520 -0.606994
O6    O     O_R   0.061600 0.561610 0.574480 -0.606561
O7    O     O_R   0.061600 0.438390 0.574480 -0.606468
O8    O     O_R   0.938400 0.561610 0.425520 -0.609184
O9    O     O_3   0.647784 0.716620 0.589260 -0.645826
O10   O     O_3   0.342926 0.277352 0.384250 -0.635527
O11   O     O_3   0.343010 0.722590 0.392079 -0.645480
O12   O     O_R   0.561610 0.061610 0.425540 -0.616871
O13   O     O_3   0.652036 0.282396 0.597029 -0.644829
O14   O     O_3   0.157049 0.222599 0.607975 -0.645489
O15   O     O_3   0.847864 0.782331 0.402580 -0.644821
O16   O     O_3   0.852383 0.216482 0.411162 -0.645825
O17   O     O_3   0.157044 0.777300 0.615647 -0.635600
O18   O     O_R   0.561610 0.938390 0.425540 -0.614736
O19   O     O_R   0.438390 0.061610 0.574460 -0.617885
O20   O     O_R   0.938390 0.438390 0.574460 -0.614653
O21   O     O_R   0.061610 0.561610 0.425540 -0.617813
O22   O     O_R   0.061610 0.438390 0.425540 -0.614260
O23   O     O_R   0.938390 0.561610 0.574460 -0.616916
O24   O     O_R   0.438400 0.938390 0.425520 -0.606490
Zn1   Zn    Zn3+2 0.500000 0.000000 0.599450 0.968010
Zn2   Zn    Zn3+2 0.500000 0.000000 0.400550 0.970131
Zn3   Zn    Zn3+2 1.000000 0.500000 0.599450 0.970121
Zn4   Zn    Zn3+2 0.000000 0.500000 0.400550 0.967989

loop_
_geom_bond_atom_site_label_1
_geom_bond_atom_site_label_2
_ccdc_geom_bond_type
C128  H96   S    
C49   C106  S    
C22   H10   S    
C126  C127  S    
C75   O19   A    
C107  C112  S    
C20   H4    S    
C12   C91   S    
C19   C20   S    
C135  H112  S    
C66   C79   S    
C66   C96   S    
O3    Zn1   S    
C31   H32   S    
C23   H18   S    
C26   H23   S    
C60   C62   S    
C21   H12   S    
C10   H144  S    
C68   O14   S    
C37   C56   S    
C57   C109  S    
C140  H123  S    
C14   H150  S    
C44   H63   S    
C68   C90   S    
C118  H75   S    
C91   C100  S    
C88   C97   S    
C133  H106  S    
C15   H159  S    
C21   C22   S    
C10   H145  S    
C134  H108  S    
C45   C47   S    
C39   C61   S    
C45   H72   S    
C127  H93   S    
C16   H155  S    
C120  H68   S    
C42   H58   S    
C65   C99   S    
C131  H101  S    
O7    Zn3   S    
C78   C104  S    
C86   C89   S    
C29   H26   S    
C80   C92   S    
O1    Zn1   S    
C43   C44   S    
C37   C38   S    
C110  C123  S    
C48   C105  S    
C40   H52   S    
C68   C72   S    
C139  H120  S    
C120  H57   S    
C137  H115  S    
C74   C101  S    
C123  H85   S    
C22   H8    S    
C138  O14   S    
C117  H13   S    
C121  H80   S    
C77   C103  S    
C135  O13   S    
C50   N1    T    
C65   O10   S    
C12   H153  S    
C77   C91   S    
C129  H97   S    
C25   H14   S    
C86   O20   A    
C4    C5    S    
C139  C140  S    
C6    C7    S    
C71   C93   S    
C31   H30   S    
C137  H117  S    
C108  O7    A    
C98   C106  S    
C28   C96   S    
C126  H91   S    
C11   H147  S    
C76   C96   S    
C30   C31   S    
C38   H48   S    
C44   H65   S    
O21   Zn4   S    
C117  H2    S    
C118  C120  S    
C28   H28   S    
C80   H143  S    
C119  O8    A    
C32   H40   S    
C108  O22   A    
C36   H41   S    
C41   H62   S    
C7    H137  S    
C30   H34   S    
C97   O21   A    
C138  H118  S    
C47   H71   S    
O18   Zn2   S    
C60   C114  S    
C128  C129  S    
C123  C124  S    
C74   C98   S    
C1    C84   S    
C63   C94   S    
C5    H130  S    
C76   H99   S    
O20   Zn3   S    
C125  H89   S    
C27   H19   S    
C80   C106  S    
N1    Zn2   S    
C58   C107  S    
C85   C119  S    
C74   H88   S    
C19   C92   S    
C67   C98   S    
C132  H104  S    
C3    O15   S    
C124  H84   S    
C9    C10   S    
C110  C114  S    
C107  C118  S    
C43   C59   S    
C66   O11   S    
C37   H50   S    
C3    H126  S    
C43   H66   S    
C40   H53   S    
C69   C103  S    
C76   C102  S    
C59   C61   S    
C19   H6    S    
C122  H79   S    
C33   H37   S    
C136  H113  S    
C7    H136  S    
C39   C40   S    
C21   C95   S    
C70   C74   S    
C58   C113  S    
C45   H73   S    
C17   H164  S    
C131  H100  S    
C17   C18   S    
C36   H43   S    
C128  O10   S    
C47   H69   S    
C97   O6    A    
C53   O12   A    
C17   C93   S    
C3    C4    S    
C90   C99   S    
C8    H139  S    
C67   C101  S    
C86   O5    A    
C46   C87   T    
C4    H129  S    
C116  H35   S    
C135  H111  S    
C136  C137  S    
C77   H110  S    
C52   C114  S    
C12   H152  S    
C6    O16   S    
C62   C115  S    
C60   C111  S    
C27   H21   S    
C35   C85   T    
C31   H31   S    
C23   H17   S    
C127  H92   S    
C122  H76   S    
C9    H142  S    
C34   C36   S    
C21   H11   S    
C6    H134  S    
C10   C11   S    
C69   O15   S    
C140  H124  S    
C14   H151  S    
C44   H64   S    
C42   H59   S    
C69   C91   S    
C64   O3    A    
C133  H105  S    
C72   C99   S    
C73   C100  S    
C96   C105  S    
C18   H160  S    
C41   C42   S    
C56   C109  S    
C132  O11   S    
C32   C58   S    
C135  C136  S    
C78   C90   S    
C26   C27   S    
C16   H156  S    
C73   C94   S    
C28   C29   S    
C35   C103  S    
C71   C76   S    
C25   H15   S    
C18   H161  S    
O4    Zn2   S    
C29   H25   S    
C33   H36   S    
N3    Zn4   S    
C125  O9    S    
C109  C116  S    
C67   O13   S    
C48   C88   T    
C69   C73   S    
O2    Zn1   S    
C128  H95   S    
C22   H9    S    
C34   C55   S    
C20   H3    S    
C41   C62   S    
C72   H1    S    
C3    H127  S    
C43   H67   S    
C7    C8    S    
C70   C106  S    
C49   C89   T    
C46   C104  S    
C26   H22   S    
C19   H7    S    
C30   C57   S    
C34   H45   S    
C51   N2    T    
O5    Zn4   S    
C38   H49   S    
C54   C115  S    
C14   H149  S    
C52   N3    T    
C118  H74   S    
C53   O2    A    
C121  C122  S    
O6    Zn3   S    
C94   C103  S    
C71   O17   S    
C64   O18   A    
C71   C105  S    
C133  C134  S    
C2    C82   T    
C36   H42   S    
C41   H61   S    
N2    Zn1   S    
C134  H107  S    
O19   Zn1   S    
C70   O16   S    
C1    O1    A    
C138  H119  S    
C65   C78   S    
C99   C130  S    
C63   O9    S    
O12   Zn2   S    
C70   C92   S    
C67   C80   S    
C68   C104  S    
C54   N4    T    
C131  H102  S    
C93   C102  S    
C8    H138  S    
C4    H128  S    
C39   H56   S    
C13   C83   T    
C79   H132  S    
C117  H154  S    
C53   C83   S    
C32   C33   S    
C29   H27   S    
C81   C130  T    
C39   H55   S    
C24   C102  S    
C137  H116  S    
C138  C139  S    
C28   H29   S    
C121  H81   S    
C20   H5    S    
C134  H109  S    
C125  H87   S    
O23   Zn3   S    
C15   C16   S    
C45   C60   S    
C129  H98   S    
C111  C121  S    
C66   C102  S    
C123  H86   S    
C40   H54   S    
C51   C113  S    
C136  H114  S    
C126  H90   S    
O24   Zn2   S    
C11   H148  S    
C79   C93   S    
C57   C112  S    
C38   H47   S    
C59   C110  S    
C119  O23   A    
C116  C117  S    
C79   C105  S    
C72   C95   S    
C87   C108  S    
C17   H163  S    
C15   H158  S    
C56   C58   S    
C132  C133  S    
C32   H39   S    
C34   H44   S    
N4    Zn3   S    
C30   H33   S    
C109  C113  S    
C9    H141  S    
C2    C100  S    
O22   Zn4   S    
C1    O24   A    
C8    H140  S    
C5    H131  S    
C75   C81   S    
C55   C113  S    
C27   H20   S    
C16   H157  S    
C55   C107  S    
C63   C100  S    
C132  H103  S    
C62   C110  S    
C124  H83   S    
C65   C95   S    
C50   C112  S    
C73   H77   S    
C55   C57   S    
C6    H135  S    
C64   C82   S    
C26   C98   S    
C75   O4    A    
C92   C101  S    
C37   H51   S    
C9    O17   S    
C78   H121  S    
C47   H70   S    
C13   C101  S    
C61   C111  S    
C61   C114  S    
C95   C104  S    
C63   C77   S    
O8    Zn4   S    
C127  H94   S    
C122  H78   S    
C33   H38   S    
C116  H24   S    
C11   H146  S    
C124  H82   S    
C120  H46   S    
C23   C94   S    
C42   H60   S    
C24   C84   T    
C15   C90   S    
C125  C126  S    
C18   H162  S    
C23   C25   S    
C12   C14   S    
C5    H133  S    
C59   C115  S    
C139  H122  S    
C140  H125  S    
C111  C115  S    
C129  C131  S    
C56   C112  S    
C25   H16   S    
