data_mof_unit_45483.cif
_audit_creation_date              2012-10-26T18:32:18-0400
_audit_creation_method            fapswitch 2.2
_symmetry_space_group_name_H-M    P1
_symmetry_Int_Tables_number       1
_space_group_crystal_system       triclinic
_cell_length_a                    12.378132
_cell_length_b                    13.107541
_cell_length_c                    15.89321
_cell_angle_alpha                 77.328028
_cell_angle_beta                  101.058258
_cell_angle_gamma                 116.40887
_cell_volume                      2240.12889102

loop_
_atom_site_label
_atom_site_type_symbol
_atom_type_description
_atom_site_fract_x
_atom_site_fract_y
_atom_site_fract_z
_atom_type_partial_charge
C1    C     C_R   0.855296 0.286259 0.505975 0.575719
C2    C     C_R   0.230500 0.837004 0.480432 -0.037198
C3    C     C_R   0.817061 0.081768 0.556218 -0.169009
C4    C     C_R   0.999387 0.499501 0.659433 0.524693
C5    C     C_R   0.737242 0.969339 0.584579 0.287796
C6    C     C_R   0.612286 0.938502 0.570343 0.293875
C7    C     C_R   0.566266 0.011674 0.509427 -0.066973
C8    C     C_R   0.649673 0.122996 0.475922 -0.066134
C9    C     C_R   0.440675 0.980279 0.483031 -0.026643
C10   C     C_R   0.399781 0.064564 0.437294 -0.004711
C11   C     C_R   0.482458 0.165132 0.390968 0.259297
C12   C     C_3   0.101876 0.462001 0.072905 0.173260
C13   C     C_R   0.607487 0.189641 0.406658 0.295733
C14   C     C_R   0.354897 0.865754 0.494594 -0.089152
C15   C     C_R   0.191644 0.925330 0.456951 -0.106950
C16   C     C_R   0.145374 0.714071 0.489411 0.547570
C17   C     C_R   0.773869 0.162047 0.509168 -0.055833
C18   C     C_R   0.344254 0.319018 0.633946 0.006400
C19   C     C_R   0.754171 0.636679 0.376642 0.422968
C20   C     C_R   0.644840 0.643160 0.335725 -0.020092
C21   C     C_R   0.540791 0.590467 0.381080 -0.073206
C22   C     C_R   0.546510 0.527280 0.465923 -0.063655
C23   C     C_3   0.999639 0.496517 0.083965 -0.024909
C24   C     C_R   0.653299 0.506562 0.495691 0.099450
C25   C     C_R   0.445894 0.472203 0.518241 -0.025578
C26   C     C_R   0.446593 0.384223 0.588233 0.016638
C27   C     C_R   0.550721 0.363945 0.612925 -0.148147
C28   C     C_R   0.000456 0.500326 0.340539 0.577570
C29   C     C_R   0.650859 0.424081 0.568473 -0.096396
C30   C     C_R   0.346254 0.502765 0.505962 0.031145
C31   C     C_R   0.242454 0.345071 0.611491 0.140959
C32   C     C_3   0.090352 0.444840 0.974740 0.239977
C33   C     C_3   0.865399 0.416935 0.947680 -0.115374
C34   C     C_3   0.029609 0.620526 0.030294 0.163399
C35   C     C_3   0.875561 0.404902 0.048321 -0.212693
C36   C     C_1   0.000610 0.499587 0.251208 0.026526
C37   C     C_3   0.996245 0.494105 0.917080 -0.029503
C38   C     C_3   0.211336 0.361290 0.156106 -0.049302
C39   C     C_3   0.274421 0.609505 0.929041 -0.137955
C40   C     C_3   0.848450 0.631460 0.051322 -0.028142
C41   C     C_3   0.496435 0.341368 0.311002 -0.077759
C42   C     C_2   0.230414 0.131620 0.408918 0.280109
C43   C     C_3   0.516563 0.865075 0.692257 -0.090227
C44   C     C_3   0.820449 0.846043 0.586316 -0.087062
C45   C     C_3   0.024706 0.619612 0.931445 0.160964
C46   C     C_2   0.041177 0.317751 0.964378 0.319768
C47   C     C_3   0.704187 0.221955 0.289246 -0.101777
C48   C     C_2   0.131280 0.268409 0.655263 0.232081
C49   C     C_2   0.342750 0.224378 0.706353 0.264108
C50   C     C_3   0.900491 0.815659 0.336209 -0.053609
C51   C     C_2   0.422176 0.580986 0.332704 0.161011
C52   C     C_2   0.637014 0.692844 0.242044 0.216663
C53   C     C_2   0.796174 0.301505 0.915743 0.233139
C54   C     C_3   0.986115 0.773114 0.846459 -0.076237
C55   C     C_1   0.000225 0.498444 0.175925 0.014775
C56   C     C_1   0.996267 0.496047 0.824393 -0.040261
C57   C     C_1   0.997530 0.497839 0.748872 -0.027180
C58   C     C_R   0.274608 0.039489 0.432468 0.055498
Cu1   Cu    Cu3+1 0.098280 0.475420 0.519630 0.967223
Cu2   Cu    Cu3+1 0.901720 0.524580 0.480370 1.010765
H1    H     H_    0.189358 0.535714 0.088330 0.101249
H2    H     H_    0.796887 0.410062 0.067521 0.097666
H3    H     H_    0.114534 0.679905 0.910363 0.077382
H4    H     H_    0.127095 0.672072 0.050559 0.106214
H5    H     H_    0.274953 0.434529 0.190517 0.092056
H6    H     H_    0.249665 0.362703 0.097866 0.166430
H7    H     H_    0.201657 0.280430 0.200740 0.185560
H8    H     H_    0.273807 0.655203 0.979579 0.079923
H9    H     H_    0.246015 0.644437 0.862823 0.129499
H10   H     H_    0.370743 0.627099 0.929095 0.162759
H11   H     H_    0.800125 0.585637 0.995375 0.143793
H12   H     H_    0.097129 0.905153 0.456356 0.144167
H13   H     H_    0.814939 0.698156 0.047471 0.188174
H14   H     H_    0.824800 0.573949 0.113888 0.143191
H15   H     H_    0.562600 0.375926 0.262411 0.192509
H16   H     H_    0.542180 0.371708 0.373653 0.135525
H17   H     H_    0.428597 0.377364 0.286926 0.087931
H18   H     H_    0.293439 0.221157 0.410049 0.129841
H19   H     H_    0.469254 0.923093 0.674598 0.135010
H20   H     H_    0.602446 0.904564 0.734583 0.153360
H21   H     H_    0.456571 0.784267 0.730320 0.140755
H22   H     H_    0.898662 0.912850 0.552069 0.128821
H23   H     H_    0.384533 0.797403 0.509261 0.202892
H24   H     H_    0.745221 0.798798 0.538863 0.124102
H25   H     H_    0.851530 0.782792 0.628901 0.151661
H26   H     H_    0.049294 0.297919 0.903631 0.106542
H27   H     H_    0.616601 0.171748 0.252520 0.153032
H28   H     H_    0.751558 0.166002 0.320271 0.129822
H29   H     H_    0.762302 0.290462 0.241768 0.135673
H30   H     H_    0.075500 0.300756 0.674447 0.152177
H31   H     H_    0.317626 0.222264 0.768708 0.132941
H32   H     H_    0.898769 0.835083 0.400633 0.076981
H33   H     H_    0.847072 0.852892 0.285856 0.148546
H34   H     H_    0.912502 0.107564 0.575787 0.209839
H35   H     H_    0.995144 0.859881 0.319369 0.169026
H36   H     H_    0.345437 0.497256 0.333912 0.115192
H37   H     H_    0.577979 0.735698 0.215601 0.172822
H38   H     H_    0.826421 0.281324 0.864394 0.109368
H39   H     H_    0.043825 0.788657 0.795190 0.122259
H40   H     H_    0.039423 0.827891 0.897495 0.166048
H41   H     H_    0.911574 0.798633 0.815890 0.181310
H42   H     H_    0.558024 0.301966 0.668482 0.163971
H43   H     H_    0.347814 0.579514 0.463501 0.169460
H44   H     H_    0.722966 0.398647 0.591682 0.179255
H45   H     H_    0.805043 0.460834 0.919806 0.184545
H46   H     H_    0.867951 0.317474 0.079050 0.226577
N1    N     N_R   0.246300 0.438200 0.549400 -0.269719
N2    N     N_R   0.754300 0.561180 0.451130 -0.249819
O1    O     O_R   0.972520 0.318130 0.524690 -0.518585
O2    O     O_3   0.207605 0.489191 0.945181 -0.610316
O3    O     O_3   0.975256 0.687500 0.049648 -0.541658
O4    O     O_3   0.436096 0.220266 0.318077 -0.586431
O5    O     O_2   0.122522 0.108365 0.389753 -0.527483
O6    O     O_3   0.538193 0.837628 0.617955 -0.562672
O7    O     O_3   0.780861 0.894519 0.638292 -0.533254
O8    O     O_2   0.991148 0.237289 0.019760 -0.464400
O9    O     O_3   0.687029 0.274456 0.351001 -0.556220
O10   O     O_2   0.100325 0.164391 0.671796 -0.535826
O11   O     O_2   0.362539 0.145254 0.695089 -0.506151
O12   O     O_R   0.806530 0.359650 0.491530 -0.483346
O13   O     O_3   0.859441 0.696337 0.336366 -0.489406
O14   O     O_2   0.407233 0.666499 0.295687 -0.529616
O15   O     O_2   0.696167 0.684767 0.192585 -0.511337
O16   O     O_2   0.701104 0.231733 0.944206 -0.483736
O17   O     O_3   0.935011 0.655045 0.881791 -0.573129
O18   O     O_R   0.083030 0.479240 0.637150 -0.526334
O19   O     O_R   0.917040 0.520750 0.603990 -0.525843
O20   O     O_R   0.193470 0.640350 0.508470 -0.508168
O21   O     O_R   0.027480 0.681870 0.475310 -0.475714
O22   O     O_R   0.082960 0.479250 0.396010 -0.493101
O23   O     O_R   0.916970 0.520760 0.362850 -0.418168
O24   O     O_3   0.095988 0.363028 0.134267 -0.522835

loop_
_geom_bond_atom_site_label_1
_geom_bond_atom_site_label_2
_ccdc_geom_bond_type
Cu1   O22   S    
C8    C13   A    
C40   H11   S    
C30   N1    A    
C27   C29   A    
C39   H8    S    
C54   H41   S    
C19   C20   A    
C18   C26   A    
C42   C58   S    
C7    C8    A    
C56   C57   T    
Cu1   O18   S    
C15   H12   S    
C12   C23   S    
C26   C27   A    
C32   O2    S    
C10   C58   A    
C44   H22   S    
C43   O6    S    
C41   H17   S    
C5    C6    A    
C52   O15   D    
C50   H35   S    
C43   H19   S    
C52   H37   S    
C40   H13   S    
C22   C25   A    
C24   C29   A    
C6    O6    S    
C1    O1    A    
C37   C56   S    
C39   O2    S    
C38   H6    S    
C44   O7    S    
C45   O17   S    
C41   O4    S    
C4    C57   S    
Cu2   O12   S    
C24   N2    A    
C35   H2    S    
C2    C16   S    
C9    C10   A    
Cu2   N2    S    
C51   H36   S    
C19   N2    A    
Cu1   Cu2   S    
C48   H30   S    
C21   C22   A    
C12   C32   S    
C34   O3    S    
C47   H29   S    
C54   H40   S    
C50   O13   S    
C32   C46   S    
C14   H23   S    
C49   H31   S    
Cu2   O23   S    
C25   C26   A    
C40   O3    S    
C33   C53   S    
C54   O17   S    
C33   H45   S    
C48   O10   D    
C3    C5    A    
Cu1   O20   S    
C45   H3    S    
C33   C37   S    
Cu1   O1    S    
C29   H44   S    
C1    O12   A    
C47   H27   S    
C30   H43   S    
C9    C14   A    
C16   O21   A    
C41   H15   S    
C42   O5    D    
C38   H5    S    
C23   C34   S    
C34   H4    S    
C39   H9    S    
C34   C45   S    
C32   C37   S    
C38   H7    S    
C2    C15   A    
C16   O20   A    
C50   H32   S    
C42   H18   S    
C23   C35   S    
C31   C48   S    
C43   H21   S    
C15   C58   A    
C22   C24   A    
C54   H39   S    
C37   C45   S    
C44   H25   S    
C21   C51   S    
C25   C30   A    
C7    C9    A    
C19   O13   S    
C12   O24   S    
C4    O19   A    
C11   O4    S    
C31   N1    A    
Cu2   O19   S    
C44   H24   S    
C53   O16   D    
Cu2   O21   S    
C13   O9    S    
C50   H33   S    
C23   C55   S    
C6    C7    A    
C4    O18   A    
C53   H38   S    
C27   H42   S    
C1    C17   S    
C8    C17   A    
C46   O8    D    
C28   O23   A    
C47   H28   S    
C43   H20   S    
C20   C52   S    
C36   C55   T    
C41   H16   S    
C12   H1    S    
C11   C13   A    
C49   O11   D    
C33   C35   S    
C39   H10   S    
C40   H14   S    
C3    C17   A    
C3    H34   S    
C28   O22   A    
C2    C14   A    
Cu1   N1    S    
C10   C11   A    
C47   O9    S    
C20   C21   A    
C28   C36   S    
C35   H46   S    
C51   O14   D    
C18   C31   A    
C5    O7    S    
C18   C49   S    
C38   O24   S    
C46   H26   S    
