data_mof_unit_63525.cif
_audit_creation_date              2013-03-05T16:06:16-0500
_audit_creation_method            fapswitch 2.2
_symmetry_space_group_name_H-M    P1
_symmetry_Int_Tables_number       1
_space_group_crystal_system       triclinic
_cell_length_a                    21.390604
_cell_length_b                    21.392634
_cell_length_c                    55.780632
_cell_angle_alpha                 89.896655
_cell_angle_beta                  89.975065
_cell_angle_gamma                 89.862428
_cell_volume                      25525.1757292

loop_
_atom_site_label
_atom_site_type_symbol
_atom_site_description
_atom_site_fract_x
_atom_site_fract_y
_atom_site_fract_z
_atom_type_partial_charge
O1    O     O_R   0.091590 0.000030 0.479820 -0.590663
O2    O     O_R   0.999970 0.091590 0.479820 -0.589739
O3    O     O_R   0.908410 0.999970 0.479820 -0.590768
O4    O     O_R   0.000030 0.908410 0.479820 -0.590009
O5    O     O_R   0.591590 0.500030 0.979820 -0.590674
O6    O     O_R   0.499970 0.591590 0.979820 -0.589882
O7    O     O_R   0.408410 0.499970 0.979820 -0.590891
O8    O     O_R   0.500030 0.408410 0.979820 -0.589921
O9    O     O_R   0.091560 0.000060 0.520180 -0.582487
O10   O     O_R   0.999940 0.091560 0.520180 -0.582490
O11   O     O_R   0.908440 0.999940 0.520180 -0.582471
O12   O     O_R   0.000060 0.908440 0.520180 -0.583894
O13   O     O_R   0.591560 0.500060 0.020180 -0.581295
O14   O     O_R   0.499940 0.591560 0.020180 -0.582057
O15   O     O_R   0.408440 0.499940 0.020180 -0.581419
O16   O     O_R   0.500060 0.408440 0.020180 -0.582505
C1    C     C_R   0.120567 0.000039 0.499984 0.781859
C2    C     C_R   0.000093 0.120565 0.499974 0.782160
C3    C     C_R   0.879433 0.999861 0.499993 0.782004
C4    C     C_R   0.999879 0.879435 0.500011 0.781922
C5    C     C_R   0.620566 0.500046 0.999984 0.781486
C6    C     C_R   0.500090 0.620566 0.999973 0.781325
C7    C     C_R   0.379432 0.499900 0.999993 0.781523
C8    C     C_R   0.499878 0.379435 0.000011 0.781427
H1    H     H_    0.427755 0.143835 0.310274 0.189955
H2    H     H_    0.909680 0.373784 0.309902 0.190455
H3    H     H_    0.560250 0.857716 0.310144 0.189985
H4    H     H_    0.085354 0.633308 0.310213 0.186969
H5    H     H_    0.873855 0.594557 0.809937 0.186445
H6    H     H_    0.392685 0.884357 0.810362 0.187651
H7    H     H_    0.127475 0.406782 0.810078 0.186220
H8    H     H_    0.621033 0.098760 0.810249 0.189285
C9    C     C_R   0.498582 0.000237 0.427323 -0.032186
C10   C     C_R   0.000385 0.499975 0.427153 -0.040507
C11   C     C_R   0.000101 0.500174 0.927166 -0.039567
C12   C     C_R   0.500074 0.999481 0.927254 -0.037976
Cu1   Cu    Cu3+1 0.000000 0.000000 0.476100 0.946175
Cu2   Cu    Cu3+1 0.500000 0.500000 0.976100 0.947948
Cu3   Cu    Cu3+1 0.000000 0.000000 0.523900 0.972139
Cu4   Cu    Cu3+1 0.500000 0.500000 0.023900 0.978333
C13   C     C_R   0.944420 0.486912 0.610716 0.338655
C14   C     C_R   0.517279 0.947494 0.610855 0.341215
C15   C     C_R   0.055868 0.513627 0.610614 0.338987
C16   C     C_R   0.476016 0.054588 0.610116 0.340871
C17   C     C_R   0.446185 0.979371 0.110497 0.342283
C18   C     C_R   0.037766 0.448732 0.109580 0.344014
C19   C     C_R   0.551843 0.023707 0.110558 0.342083
C20   C     C_R   0.977694 0.546459 0.111187 0.343863
N1    N     N_R   0.494768 0.000778 0.350919 -0.464765
N2    N     N_R   0.002398 0.499622 0.350778 -0.466154
N3    N     N_R   0.000483 0.500507 0.850782 -0.466132
N4    N     N_R   0.500341 0.998601 0.850931 -0.465846
H9    H     H_    0.902292 0.477681 0.575895 0.207898
H10   H     H_    0.533177 0.906142 0.576204 0.205656
H11   H     H_    0.097784 0.522613 0.575730 0.207810
H12   H     H_    0.463279 0.094335 0.575034 0.205720
H13   H     H_    0.406752 0.963022 0.075594 0.204534
H14   H     H_    0.054847 0.412882 0.074154 0.200932
H15   H     H_    0.592560 0.038147 0.075685 0.204402
H16   H     H_    0.952870 0.585536 0.076797 0.200645
C21   C     C_R   0.000028 0.500121 0.572799 -0.161052
C22   C     C_R   0.498551 0.000220 0.572689 -0.159342
C23   C     C_R   0.499731 0.000478 0.072712 -0.157675
C24   C     C_R   0.003275 0.499212 0.072632 -0.154145
H17   H     H_    0.429516 0.146042 0.267573 0.208948
H18   H     H_    0.908945 0.374119 0.267436 0.210113
H19   H     H_    0.559247 0.856637 0.267364 0.206905
H20   H     H_    0.085720 0.634254 0.267783 0.174091
H21   H     H_    0.874376 0.595816 0.767038 0.166963
H22   H     H_    0.393879 0.882504 0.767888 0.172665
H23   H     H_    0.127204 0.405693 0.767184 0.166582
H24   H     H_    0.624991 0.095352 0.767974 0.211355
C25   C     C_3   0.043583 0.229192 0.515404 -0.150945
C26   C     C_3   0.770482 0.054417 0.508673 -0.145218
C27   C     C_3   0.959029 0.770623 0.516541 -0.151668
C28   C     C_3   0.229511 0.951345 0.512870 -0.148861
C29   C     C_3   0.543940 0.729193 0.015253 -0.149981
C30   C     C_3   0.270468 0.552213 0.010513 -0.147261
C31   C     C_3   0.459052 0.270623 0.016552 -0.150428
C32   C     C_3   0.729506 0.451042 0.012694 -0.148701
C33   C     C_3   0.986820 0.270755 0.522007 -0.132979
C34   C     C_3   0.729093 0.007235 0.522439 -0.132210
C35   C     C_3   0.016775 0.729000 0.521721 -0.135077
C36   C     C_3   0.270823 0.004992 0.522521 -0.131914
C37   C     C_3   0.487336 0.770757 0.022051 -0.132633
C38   C     C_3   0.229098 0.501987 0.022608 -0.131364
C39   C     C_3   0.516806 0.229000 0.021720 -0.133540
C40   C     C_3   0.770821 0.504444 0.022540 -0.131107
H25   H     H_    0.975820 0.289060 0.540139 0.141286
H26   H     H_    0.710661 0.013324 0.540897 0.140995
H27   H     H_    0.030754 0.710494 0.539542 0.141181
H28   H     H_    0.289186 0.009010 0.541065 0.140085
H29   H     H_    0.476761 0.789064 0.040220 0.141244
H30   H     H_    0.210664 0.503737 0.041203 0.141209
H31   H     H_    0.530811 0.210491 0.039536 0.142465
H32   H     H_    0.789182 0.508005 0.041099 0.140852
H33   H     H_    0.079047 0.210769 0.528127 0.142654
H34   H     H_    0.788702 0.099192 0.515841 0.131394
H35   H     H_    0.925738 0.788878 0.530119 0.144274
H36   H     H_    0.211312 0.911419 0.523504 0.137641
H37   H     H_    0.579701 0.710766 0.027852 0.142942
H38   H     H_    0.288670 0.595133 0.019194 0.134386
H39   H     H_    0.425780 0.288878 0.030136 0.145878
H40   H     H_    0.711303 0.410857 0.023183 0.138581
C41   C     C_3   0.000317 0.311083 0.499858 0.015014
C42   C     C_3   0.688909 0.999761 0.499873 0.015914
C43   C     C_3   0.999652 0.688918 0.499939 0.015475
C44   C     C_3   0.311093 0.000102 0.499852 0.016629
C45   C     C_3   0.500313 0.811084 0.999856 0.015199
C46   C     C_3   0.188906 0.499814 0.999871 0.015344
C47   C     C_3   0.499651 0.188917 0.999941 0.014934
C48   C     C_3   0.811091 0.500111 0.999854 0.015075
C49   C     C_3   0.057063 0.270591 0.493263 -0.162585
C50   C     C_3   0.729177 0.046949 0.486095 -0.158092
C51   C     C_3   0.941922 0.729474 0.494769 -0.162681
C52   C     C_3   0.270871 0.946461 0.490204 -0.162159
C53   C     C_3   0.556900 0.770593 0.993065 -0.163286
C54   C     C_3   0.229165 0.550042 0.987772 -0.158508
C55   C     C_3   0.441914 0.229473 0.994783 -0.163554
C56   C     C_3   0.770868 0.446714 0.990011 -0.160871
C57   C     C_3   0.013747 0.229457 0.477726 -0.162239
C58   C     C_3   0.770665 0.992298 0.477356 -0.163518
C59   C     C_3   0.982576 0.770784 0.478206 -0.162035
C60   C     C_3   0.229424 0.995183 0.477226 -0.164329
C61   C     C_3   0.513221 0.729460 0.977679 -0.162832
C62   C     C_3   0.270646 0.497657 0.977185 -0.162460
C63   C     C_3   0.482544 0.270783 0.978211 -0.162831
C64   C     C_3   0.729423 0.495753 0.977209 -0.162406
C65   C     C_3   0.957053 0.270939 0.484322 -0.153533
C66   C     C_3   0.729418 0.945074 0.491133 -0.160165
C67   C     C_3   0.040252 0.729244 0.483380 -0.152136
C68   C     C_3   0.270625 0.048800 0.486871 -0.157037
C69   C     C_3   0.456684 0.770940 0.984471 -0.153731
C70   C     C_3   0.229411 0.447417 0.989283 -0.159198
C71   C     C_3   0.540227 0.229244 0.983373 -0.152458
C72   C     C_3   0.770624 0.549128 0.987050 -0.157315
C73   C     C_3   0.943559 0.229485 0.506489 -0.146246
C74   C     C_3   0.770696 0.952536 0.513693 -0.151142
C75   C     C_3   0.057378 0.770460 0.505178 -0.146489
C76   C     C_3   0.229228 0.053688 0.509551 -0.147758
C77   C     C_3   0.443711 0.729487 0.006684 -0.146147
C78   C     C_3   0.270715 0.449586 0.012020 -0.148535
C79   C     C_3   0.557384 0.270460 0.005167 -0.145549
C80   C     C_3   0.729228 0.553459 0.009745 -0.147668
C81   C     C_3   0.000271 0.189065 0.499888 0.012306
C82   C     C_3   0.810930 0.999754 0.499933 0.013136
C83   C     C_3   0.999683 0.810935 0.499998 0.012918
C84   C     C_3   0.189071 0.000058 0.499906 0.013365
C85   C     C_3   0.500265 0.689067 0.999887 0.012590
C86   C     C_3   0.310927 0.499826 0.999931 0.012058
C87   C     C_3   0.499681 0.310935 0.999999 0.012536
C88   C     C_3   0.689069 0.500072 0.999906 0.012185
H41   H     H_    0.103628 0.288497 0.487814 0.149863
H42   H     H_    0.710931 0.085619 0.474770 0.141507
H43   H     H_    0.894542 0.711646 0.490474 0.150635
H44   H     H_    0.289065 0.902504 0.482244 0.146080
H45   H     H_    0.603334 0.788506 0.987456 0.149274
H46   H     H_    0.210950 0.591201 0.977813 0.144978
H47   H     H_    0.394528 0.211645 0.990498 0.150617
H48   H     H_    0.789062 0.402954 0.981894 0.147308
H49   H     H_    0.024844 0.211477 0.459555 0.150701
H50   H     H_    0.788717 0.986141 0.458846 0.150538
H51   H     H_    0.968485 0.788976 0.460352 0.149625
H52   H     H_    0.211453 0.991124 0.458627 0.150602
H53   H     H_    0.523890 0.711484 0.959470 0.150662
H54   H     H_    0.288672 0.495876 0.958533 0.152375
H55   H     H_    0.468426 0.288974 0.960360 0.149583
H56   H     H_    0.711452 0.492158 0.958596 0.152279
H57   H     H_    0.921616 0.289314 0.471579 0.143072
H58   H     H_    0.711477 0.900245 0.483914 0.149360
H59   H     H_    0.073508 0.711003 0.469788 0.141722
H60   H     H_    0.288692 0.088721 0.476203 0.145857
H61   H     H_    0.420949 0.789313 0.971850 0.143686
H62   H     H_    0.211427 0.404470 0.980558 0.147883
H63   H     H_    0.573463 0.211003 0.969774 0.142269
H64   H     H_    0.788688 0.589311 0.976526 0.145801
H65   H     H_    0.897083 0.211242 0.511891 0.129260
H66   H     H_    0.789054 0.913860 0.524989 0.139605
H67   H     H_    0.104646 0.788659 0.509432 0.128558
H68   H     H_    0.210773 0.097598 0.517463 0.133612
H69   H     H_    0.397363 0.711245 0.012246 0.129848
H70   H     H_    0.289107 0.408442 0.021941 0.138486
H71   H     H_    0.604658 0.288659 0.009411 0.129293
H72   H     H_    0.710775 0.597173 0.017816 0.134399
H73   H     H_    0.450434 0.911619 0.424351 0.156803
H74   H     H_    0.100916 0.488546 0.423968 0.164105
H75   H     H_    0.546126 0.089051 0.423704 0.156733
H76   H     H_    0.900045 0.511420 0.423366 0.163566
H77   H     H_    0.984686 0.400370 0.923687 0.163329
H78   H     H_    0.597342 0.971866 0.923958 0.161979
H79   H     H_    0.015556 0.600007 0.923695 0.163184
H80   H     H_    0.402787 0.026823 0.923739 0.162038
C89   C     C_R   0.495626 0.000842 0.376815 0.338445
C90   C     C_R   0.001572 0.499899 0.376614 0.347325
C91   C     C_R   0.000357 0.500395 0.876625 0.345997
C92   C     C_R   0.500240 0.998682 0.876769 0.344094
O17   O     O_2   0.546904 0.903590 0.350876 -0.545515
O18   O     O_2   0.061252 0.592436 0.351025 -0.543308
O19   O     O_2   0.442504 0.097889 0.351051 -0.545486
O20   O     O_2   0.940805 0.408585 0.350812 -0.544395
O21   O     O_2   0.089163 0.435044 0.850998 -0.543775
O22   O     O_2   0.579608 0.074809 0.850977 -0.544851
O23   O     O_2   0.911821 0.565995 0.850896 -0.543654
O24   O     O_2   0.423368 0.920120 0.851135 -0.543605
C93   C     C_R   0.469029 0.951182 0.389759 -0.100979
C94   C     C_R   0.057490 0.493484 0.389495 -0.107335
C95   C     C_R   0.523600 0.050268 0.389379 -0.101622
C96   C     C_R   0.945008 0.506407 0.389115 -0.102119
C97   C     C_R   0.991556 0.444444 0.889320 -0.103864
C98   C     C_R   0.554643 0.983206 0.889529 -0.101922
C99   C     C_R   0.009021 0.556236 0.889325 -0.104122
C100  C     C_R   0.445714 0.014398 0.889402 -0.104771
C101  C     C_R   0.000190 0.500308 0.623405 0.122436
C102  C     C_R   0.496175 0.001425 0.623212 0.120595
C103  C     C_R   0.498755 0.001910 0.123271 0.119446
C104  C     C_R   0.009038 0.496872 0.123141 0.117905
C105  C     C_R   0.944920 0.488008 0.585562 -0.264794
C106  C     C_R   0.517006 0.947248 0.585693 -0.266096
C107  C     C_R   0.055208 0.512344 0.585468 -0.265178
C108  C     C_R   0.478693 0.053660 0.585022 -0.264741
C109  C     C_R   0.446939 0.980206 0.085357 -0.264262
C110  C     C_R   0.033051 0.449764 0.084519 -0.264480
C111  C     C_R   0.552057 0.021454 0.085418 -0.264760
C112  C     C_R   0.976641 0.547727 0.086009 -0.266352
O25   O     O_R   0.947000 0.500060 0.534840 -0.581013
O26   O     O_R   0.499940 0.947000 0.534840 -0.579483
O27   O     O_R   0.053000 0.499940 0.534840 -0.581205
O28   O     O_R   0.500060 0.053000 0.534840 -0.580125
O29   O     O_R   0.447000 0.000060 0.034840 -0.579589
O30   O     O_R   0.999940 0.447000 0.034840 -0.577406
O31   O     O_R   0.553000 0.999940 0.034840 -0.579420
O32   O     O_R   0.000060 0.553000 0.034840 -0.577317
C113  C     C_R   0.999995 0.500022 0.546270 0.842659
C114  C     C_R   0.499728 0.999983 0.546233 0.841638
C115  C     C_R   0.499964 0.000081 0.046240 0.841419
C116  C     C_R   0.000572 0.499893 0.046218 0.838907
O33   O     O_R   0.947010 0.408460 0.499980 -0.584340
O34   O     O_R   0.591540 0.947010 0.499980 -0.585457
O35   O     O_R   0.052990 0.591540 0.499980 -0.584330
O36   O     O_R   0.408460 0.052990 0.499980 -0.584665
O37   O     O_R   0.447010 0.908460 0.999980 -0.584446
O38   O     O_R   0.091540 0.447010 0.999980 -0.586214
O39   O     O_R   0.552990 0.091540 0.999980 -0.584111
O40   O     O_R   0.908460 0.552990 0.999980 -0.585328
O41   O     O_R   0.053010 0.408470 0.499960 -0.585619
O42   O     O_R   0.591530 0.053010 0.499960 -0.584747
O43   O     O_R   0.946990 0.591530 0.499960 -0.585961
O44   O     O_R   0.408470 0.946990 0.499960 -0.586399
O45   O     O_R   0.553010 0.908470 0.999960 -0.586132
O46   O     O_R   0.091530 0.553010 0.999960 -0.584806
O47   O     O_R   0.446990 0.091530 0.999960 -0.586292
O48   O     O_R   0.908470 0.446990 0.999960 -0.584821
C117  C     C_R   0.000096 0.379600 0.499911 0.784326
C118  C     C_R   0.620396 0.999938 0.499909 0.782180
C119  C     C_R   0.999899 0.620401 0.499942 0.784084
C120  C     C_R   0.379604 0.000040 0.499899 0.780855
C121  C     C_R   0.500095 0.879600 0.999910 0.782969
C122  C     C_R   0.120395 0.499946 0.999907 0.782175
C123  C     C_R   0.499899 0.120401 0.999943 0.783239
C124  C     C_R   0.879604 0.500041 0.999901 0.783543
Cu5   Cu    Cu3+1 0.937240 0.500030 0.499980 0.970614
Cu6   Cu    Cu3+1 0.499970 0.937240 0.499980 0.971711
Cu7   Cu    Cu3+1 0.062760 0.499970 0.499980 0.970398
Cu8   Cu    Cu3+1 0.500030 0.062760 0.499980 0.973197
Cu9   Cu    Cu3+1 0.437240 0.000030 0.999980 0.971261
Cu10  Cu    Cu3+1 0.999970 0.437240 0.999980 0.971437
Cu11  Cu    Cu3+1 0.562760 0.999970 0.999980 0.971505
Cu12  Cu    Cu3+1 0.000030 0.562760 0.999980 0.971220
O49   O     O_R   0.946990 0.500000 0.465110 -0.588375
O50   O     O_R   0.500000 0.946990 0.465110 -0.585444
O51   O     O_R   0.053010 0.500000 0.465110 -0.589097
O52   O     O_R   0.500000 0.053010 0.465110 -0.585836
O53   O     O_R   0.446990 0.000000 0.965110 -0.587966
O54   O     O_R   1.000000 0.446990 0.965110 -0.588711
O55   O     O_R   0.553010 0.000000 0.965110 -0.588070
O56   O     O_R   1.000000 0.553010 0.965110 -0.589075
C125  C     C_R   0.000045 0.500009 0.453678 0.790974
C126  C     C_R   0.499739 0.000060 0.453736 0.787430
C127  C     C_R   0.500015 0.999888 0.953712 0.790429
C128  C     C_R   0.000019 0.500051 0.953683 0.790916
C129  C     C_R   0.035626 0.454382 0.737352 -0.019775
C130  C     C_R   0.535061 0.045894 0.737078 -0.051451
C131  C     C_R   0.965932 0.546996 0.737294 -0.019197
C132  C     C_R   0.447912 0.969416 0.737275 -0.017702
C133  C     C_R   0.531532 0.956572 0.237404 -0.049188
C134  C     C_R   0.052306 0.537565 0.237140 -0.016616
C135  C     C_R   0.459622 0.047340 0.237188 -0.044555
C136  C     C_R   0.986267 0.442387 0.237104 -0.058632
C137  C     C_R   0.000733 0.500655 0.724695 -0.043924
C138  C     C_R   0.492246 0.006605 0.724591 -0.036745
C139  C     C_R   0.495946 0.002033 0.224671 -0.031783
C140  C     C_R   0.018156 0.490838 0.224538 -0.033397
C141  C     C_R   0.061817 0.403286 0.724325 0.431541
C142  C     C_R   0.571033 0.089236 0.723249 0.411585
C143  C     C_R   0.939800 0.598113 0.724207 0.430368
C144  C     C_R   0.398953 0.939888 0.724007 0.427923
C145  C     C_R   0.574451 0.918707 0.224247 0.409802
C146  C     C_R   0.092725 0.577834 0.223725 0.429226
C147  C     C_R   0.418365 0.086175 0.223606 0.411673
C148  C     C_R   0.962920 0.390959 0.223433 0.435742
C149  C     C_R   0.057124 0.402481 0.699171 -0.230526
C150  C     C_R   0.574596 0.083460 0.698433 -0.190299
C151  C     C_R   0.944227 0.598751 0.699042 -0.232688
C152  C     C_R   0.401091 0.940128 0.698818 -0.233068
C153  C     C_R   0.573754 0.918997 0.199256 -0.194612
C154  C     C_R   0.090431 0.577055 0.198519 -0.230510
C155  C     C_R   0.420685 0.086020 0.198595 -0.199248
C156  C     C_R   0.956701 0.396191 0.198663 -0.191140
C157  C     C_R   0.029214 0.451581 0.686574 -0.067774
C158  C     C_R   0.536241 0.041862 0.686186 -0.088388
C159  C     C_R   0.971897 0.549503 0.686511 -0.067248
C160  C     C_R   0.448579 0.970522 0.686351 -0.066281
C161  C     C_R   0.534868 0.959731 0.186564 -0.084282
C162  C     C_R   0.051226 0.536388 0.186169 -0.066339
C163  C     C_R   0.459849 0.044952 0.186231 -0.082247
C164  C     C_R   0.982971 0.446322 0.186294 -0.092397
C165  C     C_R   0.000620 0.500582 0.699288 -0.045144
C166  C     C_R   0.492612 0.005960 0.699089 -0.046421
C167  C     C_R   0.496861 0.002233 0.199184 -0.046885
C168  C     C_R   0.017186 0.491450 0.199041 -0.046263
C169  C     C_R   0.471166 0.950500 0.414785 -0.218801
C170  C     C_R   0.056978 0.493667 0.414526 -0.216315
C171  C     C_R   0.524402 0.050344 0.414424 -0.219611
C172  C     C_R   0.944355 0.506282 0.414177 -0.218295
C173  C     C_R   0.991638 0.444252 0.914367 -0.217261
C174  C     C_R   0.554710 0.983997 0.914557 -0.218629
C175  C     C_R   0.008686 0.556209 0.914371 -0.217700
C176  C     C_R   0.445487 0.014437 0.914435 -0.218027
C177  C     C_R   0.027832 0.451908 0.661352 0.677730
C178  C     C_R   0.537800 0.038395 0.661038 0.675506
C179  C     C_R   0.972945 0.548967 0.661287 0.676880
C180  C     C_R   0.450585 0.969438 0.661131 0.678523
C181  C     C_R   0.534479 0.960097 0.161360 0.677823
C182  C     C_R   0.048241 0.537260 0.160945 0.678307
C183  C     C_R   0.461670 0.044605 0.161021 0.679121
C184  C     C_R   0.979293 0.450033 0.161167 0.675094
N5    N     N_R   0.000299 0.500382 0.649246 -0.424407
N6    N     N_R   0.495336 0.002448 0.649031 -0.423963
N7    N     N_R   0.498350 0.002289 0.149115 -0.424523
N8    N     N_R   0.011644 0.495181 0.148985 -0.424600
H81   H     H_    0.074626 0.362514 0.689392 0.188951
H82   H     H_    0.604902 0.115105 0.688683 0.209021
H83   H     H_    0.926718 0.638684 0.689197 0.188588
H84   H     H_    0.363573 0.918741 0.688811 0.188314
H85   H     H_    0.605729 0.888226 0.189863 0.208312
H86   H     H_    0.121637 0.606762 0.188406 0.188702
H87   H     H_    0.389895 0.117442 0.188907 0.206791
H88   H     H_    0.935019 0.358071 0.188994 0.207640
O57   O     O_2   0.053878 0.404308 0.649002 -0.521745
O58   O     O_2   0.581071 0.071010 0.648652 -0.516418
O59   O     O_2   0.946762 0.596478 0.648872 -0.522925
O60   O     O_2   0.408028 0.935965 0.648779 -0.522477
O61   O     O_2   0.569811 0.918579 0.149164 -0.515139
O62   O     O_2   0.081694 0.579697 0.148463 -0.519401
O63   O     O_2   0.427084 0.086156 0.148490 -0.514830
O64   O     O_2   0.944035 0.408617 0.148984 -0.513013
H89   H     H_    0.446666 0.912976 0.380410 0.152817
H90   H     H_    0.101439 0.488103 0.380072 0.147343
H91   H     H_    0.544973 0.088626 0.379725 0.153179
H92   H     H_    0.901514 0.511736 0.379391 0.148859
H93   H     H_    0.984449 0.401046 0.879751 0.148981
H94   H     H_    0.596934 0.970454 0.880029 0.150444
H95   H     H_    0.016224 0.599718 0.879760 0.148699
H96   H     H_    0.403485 0.026821 0.879795 0.149560
C185  C     C_R   0.524185 0.952013 0.262703 0.043724
C186  C     C_R   0.046197 0.540947 0.262630 0.061149
C187  C     C_R   0.465191 0.050943 0.262635 0.046071
C188  C     C_R   0.980855 0.445962 0.262544 0.041239
C189  C     C_R   0.041924 0.460564 0.762659 0.063984
C190  C     C_R   0.538366 0.042198 0.762608 0.046914
C191  C     C_R   0.959609 0.540846 0.762607 0.063910
C192  C     C_R   0.452838 0.964889 0.762739 0.060591
C193  C     C_R   0.494423 0.001279 0.275282 0.064034
C194  C     C_R   0.012270 0.494105 0.275181 0.065011
C195  C     C_R   0.000736 0.500689 0.775246 0.054226
C196  C     C_R   0.496023 0.003150 0.775267 0.060687
C197  C     C_R   0.444234 0.103099 0.275972 -0.173491
C198  C     C_R   0.941313 0.405679 0.275794 -0.189443
C199  C     C_R   0.544350 0.899283 0.275921 -0.175596
C200  C     C_R   0.068669 0.592300 0.276031 -0.149274
C201  C     C_R   0.912413 0.571851 0.775749 -0.141612
C202  C     C_R   0.419263 0.919917 0.776154 -0.147596
C203  C     C_R   0.089091 0.429582 0.775851 -0.142233
C204  C     C_R   0.585349 0.072876 0.776041 -0.181761
C205  C     C_R   0.445127 0.102984 0.300925 -0.179886
C206  C     C_R   0.939489 0.406913 0.300682 -0.175630
C207  C     C_R   0.543062 0.898799 0.300846 -0.179917
C208  C     C_R   0.065979 0.593374 0.300917 -0.171726
C209  C     C_R   0.910699 0.569485 0.800690 -0.167893
C210  C     C_R   0.420646 0.918885 0.801045 -0.170817
C211  C     C_R   0.090665 0.431861 0.800791 -0.167797
C212  C     C_R   0.585052 0.072806 0.800933 -0.181273
C213  C     C_R   0.468832 0.051645 0.313567 -0.014028
C214  C     C_R   0.973435 0.451486 0.313392 -0.012388
C215  C     C_R   0.519591 0.950076 0.313513 -0.013837
C216  C     C_R   0.036840 0.545186 0.313516 -0.019349
C217  C     C_R   0.955684 0.535421 0.813429 -0.016953
C218  C     C_R   0.458892 0.960067 0.813635 -0.019449
C219  C     C_R   0.045577 0.465833 0.813480 -0.016754
C220  C     C_R   0.541122 0.037726 0.813561 -0.010386
C221  C     C_R   0.494203 0.000976 0.300782 -0.050429
C222  C     C_R   0.007913 0.496660 0.300688 -0.047432
C223  C     C_R   0.000668 0.500651 0.800723 -0.048573
C224  C     C_R   0.498351 0.000661 0.800808 -0.047997
C225  C     C_R   0.520202 0.951250 0.338710 0.533842
C226  C     C_R   0.033681 0.545786 0.338709 0.536622
C227  C     C_R   0.468845 0.050307 0.338787 0.533996
C228  C     C_R   0.971926 0.453260 0.338595 0.534554
C229  C     C_R   0.045097 0.466929 0.838688 0.537149
C230  C     C_R   0.540592 0.036980 0.838760 0.534043
C231  C     C_R   0.955975 0.534176 0.838637 0.537266
C232  C     C_R   0.460644 0.959630 0.838837 0.535983
O65   O     O_3   0.080462 0.349417 0.736421 -0.608178
C233  C     C_3   0.138985 0.326299 0.728257 0.017081
H97   H     H_    0.170756 0.323105 0.743962 0.159039
H98   H     H_    0.163138 0.357035 0.714995 0.140033
C234  C     C_3   0.130722 0.260411 0.718104 -0.320437
H99   H     H_    0.111334 0.229381 0.732265 0.235229
H100  H     H_    0.097163 0.261364 0.702929 0.227141
C235  C     C_3   0.192795 0.233469 0.709381 -0.858832
H101  H     H_    0.212371 0.263020 0.694817 0.268902
H102  H     H_    0.185284 0.185595 0.702301 0.265264
H103  H     H_    0.226831 0.230885 0.724389 0.253875
O66   O     O_3   0.600594 0.140320 0.733166 -0.627571
C236  C     C_3   0.556228 0.188709 0.736144 0.045278
H104  H     H_    0.516331 0.173007 0.747523 0.151495
H105  H     H_    0.538151 0.204366 0.718372 0.165317
C237  C     C_3   0.587731 0.243976 0.748482 -0.313738
H106  H     H_    0.606354 0.228685 0.766157 0.223643
H107  H     H_    0.627459 0.260526 0.737314 0.238572
C238  C     C_3   0.541932 0.297854 0.752288 -0.887823
H108  H     H_    0.523426 0.314555 0.734802 0.264992
H109  H     H_    0.566274 0.337195 0.761245 0.261788
H110  H     H_    0.502412 0.282642 0.763816 0.256505
O67   O     O_3   0.921518 0.652103 0.736240 -0.610050
C239  C     C_3   0.863154 0.675642 0.728079 0.019144
H111  H     H_    0.831505 0.679248 0.743814 0.159872
H112  H     H_    0.838663 0.644976 0.714937 0.141216
C240  C     C_3   0.871925 0.741367 0.717740 -0.325640
H113  H     H_    0.891518 0.772388 0.731813 0.234384
H114  H     H_    0.905507 0.740031 0.702567 0.226087
C241  C     C_3   0.810070 0.768678 0.708945 -0.854100
H115  H     H_    0.790312 0.739137 0.694462 0.269216
H116  H     H_    0.817946 0.816429 0.701734 0.264881
H117  H     H_    0.776023 0.771645 0.723946 0.254984
O68   O     O_3   0.343656 0.922886 0.735455 -0.611316
C242  C     C_3   0.321595 0.863241 0.728239 0.016748
H118  H     H_    0.315730 0.834158 0.744601 0.159428
H119  H     H_    0.354361 0.836748 0.716429 0.139694
C243  C     C_3   0.257427 0.870105 0.716363 -0.323330
H120  H     H_    0.224227 0.891567 0.729309 0.234054
H121  H     H_    0.260704 0.901406 0.700519 0.226711
C244  C     C_3   0.231903 0.806901 0.708420 -0.856310
H122  H     H_    0.263676 0.785210 0.695034 0.268376
H123  H     H_    0.185218 0.813424 0.700074 0.264496
H124  H     H_    0.226994 0.775108 0.724072 0.255529
O69   O     O_3   0.620016 0.883018 0.235300 -0.624592
C245  C     C_3   0.671730 0.921664 0.240440 0.051423
H125  H     H_    0.657557 0.962438 0.251651 0.151551
H126  H     H_    0.693340 0.938854 0.223483 0.162536
C246  C     C_3   0.720231 0.883629 0.254325 -0.312840
H127  H     H_    0.698881 0.865819 0.271176 0.225853
H128  H     H_    0.735273 0.842945 0.243356 0.236990
C247  C     C_3   0.777326 0.923048 0.260521 -0.891501
H129  H     H_    0.799998 0.940594 0.243908 0.264055
H130  H     H_    0.811614 0.894051 0.270555 0.260624
H131  H     H_    0.763499 0.963345 0.271901 0.258433
O70   O     O_3   0.142450 0.607577 0.235028 -0.610331
C248  C     C_3   0.149450 0.670811 0.227710 0.013104
H132  H     H_    0.148302 0.700478 0.244029 0.157987
H133  H     H_    0.111193 0.688673 0.215929 0.139722
C249  C     C_3   0.213237 0.679555 0.215721 -0.317189
H134  H     H_    0.250724 0.666638 0.228620 0.235268
H135  H     H_    0.217399 0.648397 0.199904 0.229021
C250  C     C_3   0.222768 0.747088 0.207688 -0.856543
H136  H     H_    0.186598 0.760575 0.194350 0.267961
H137  H     H_    0.269541 0.751958 0.199257 0.270248
H138  H     H_    0.220077 0.779114 0.223311 0.251013
O71   O     O_3   0.373463 0.123466 0.234223 -0.626073
C251  C     C_3   0.318389 0.088084 0.237280 0.047869
H139  H     H_    0.327347 0.046681 0.248973 0.150424
H140  H     H_    0.300183 0.072090 0.219600 0.159973
C252  C     C_3   0.268837 0.129145 0.249208 -0.310254
H141  H     H_    0.286138 0.144718 0.267011 0.224174
H142  H     H_    0.260257 0.171232 0.237947 0.235229
C253  C     C_3   0.207418 0.094036 0.252522 -0.907093
H143  H     H_    0.188533 0.079300 0.234871 0.264482
H144  H     H_    0.172671 0.125113 0.261308 0.258267
H145  H     H_    0.214650 0.052159 0.264004 0.259302
O72   O     O_3   0.948132 0.333536 0.233378 -0.626604
C254  C     C_3   0.003494 0.301252 0.239973 0.038036
H146  H     H_    0.991177 0.268528 0.254714 0.176674
H147  H     H_    0.040632 0.332479 0.247226 0.142153
C255  C     C_3   0.028978 0.263146 0.218851 -0.333358
H148  H     H_    0.991560 0.232230 0.211825 0.242185
H149  H     H_    0.043906 0.295203 0.204251 0.232060
C256  C     C_3   0.084840 0.223167 0.226403 -0.877774
H150  H     H_    0.123180 0.253245 0.233203 0.258211
H151  H     H_    0.102410 0.196402 0.210740 0.272371
H152  H     H_    0.070919 0.189556 0.240627 0.251250
N9    N     N_R   0.887234 0.471631 0.623050 0.148031
O73   O     O_R   0.833494 0.481817 0.612812 -0.324931
O74   O     O_R   0.888302 0.442217 0.643483 -0.344409
N10   N     N_R   0.539698 0.893134 0.623527 0.148779
O75   O     O_R   0.537523 0.838331 0.613470 -0.325775
O76   O     O_R   0.567720 0.898543 0.644115 -0.345928
N11   N     N_R   0.113128 0.529014 0.622837 0.147211
O77   O     O_R   0.166807 0.518672 0.612571 -0.326213
O78   O     O_R   0.112184 0.558686 0.643175 -0.348774
N12   N     N_R   0.452228 0.109470 0.621995 0.146447
O79   O     O_R   0.456402 0.163968 0.611716 -0.325390
O80   O     O_R   0.420817 0.104777 0.641895 -0.353721
N13   N     N_R   0.392179 0.954902 0.122742 0.147229
O81   O     O_R   0.337577 0.956440 0.112469 -0.327071
O82   O     O_R   0.397965 0.925457 0.143054 -0.351719
N14   N     N_R   0.072475 0.399097 0.120949 0.146964
O83   O     O_R   0.077655 0.344912 0.110554 -0.325838
O84   O     O_R   0.104453 0.409443 0.140374 -0.352356
N15   N     N_R   0.605398 0.048805 0.122855 0.148693
O85   O     O_R   0.660315 0.047088 0.112819 -0.324056
O86   O     O_R   0.598922 0.078855 0.142966 -0.344277
N16   N     N_R   0.946072 0.595131 0.124295 0.149779
O87   O     O_R   0.937867 0.649933 0.114610 -0.324592
O88   O     O_R   0.919825 0.583449 0.144864 -0.342676

loop_
_geom_bond_atom_site_label_1
_geom_bond_atom_site_label_2
_geom_bond_distance
_ccdc_geom_bond_type
C80   H72   1.110205 S    
C160  C180  1.407672 A    
O69   C245  1.412402 S    
C29   H37   1.110175 S    
N4    C92   1.441259 S    
C41   C117  1.465762 S    
C220  C224  1.406383 A    
O35   Cu7   1.969539 S    
C251  H139  1.115259 S    
C46   C54   1.533956 S    
C31   C39   1.547990 S    
C185  C193  1.416843 A    
H13   C109  1.083198 S    
C248  H132  1.110863 S    
C100  C176  1.396331 A    
C219  C223  1.406847 A    
Cu11  O55   1.956309 S    
O34   C118  1.290882 A    
C16   C102  1.417019 A    
C235  H101  1.110897 S    
C38   C46   1.533354 S    
O14   Cu4   1.969295 S    
C99   H95   1.082825 S    
C91   C97   1.402667 A    
H80   C176  1.082923 S    
N11   O78   1.301127 A    
C195  C223  1.421116 A    
C26   C50   1.547478 S    
N10   O75   1.301521 A    
O9    Cu3   1.969399 S    
O20   C228  1.349538 S    
C193  C221  1.422443 A    
C236  H104  1.115422 S    
C5    C88   1.465324 S    
C177  N5    1.368609 A    
C23   C109  1.400476 A    
C233  C234  1.530659 S    
C155  H87   1.083720 S    
C217  C223  1.406892 A    
O24   C232  1.349626 S    
O56   C128  1.300930 A    
C247  H129  1.110882 S    
O30   C116  1.298452 A    
O1    Cu1   1.970215 S    
C92   C98   1.403008 A    
C79   C87   1.533165 S    
C132  C138  1.426139 A    
C192  C202  1.414774 A    
C184  O64   1.349593 S    
C233  H98   1.116255 S    
C254  H147  1.115707 S    
C28   C36   1.547692 S    
O8    Cu2   1.969936 S    
C90   C94   1.401933 A    
C25   C33   1.547917 S    
H10   C106  1.083126 S    
O44   Cu6   1.967827 S    
C96   C172  1.398002 A    
C51   C59   1.546230 S    
C45   C69   1.533674 S    
C154  C162  1.393151 A    
C218  C224  1.406843 A    
C245  H125  1.115515 S    
C163  C183  1.406763 A    
C48   C56   1.534249 S    
C217  C231  1.406338 A    
C214  C228  1.406779 A    
O41   C117  1.290714 A    
C215  C225  1.405819 A    
C74   H66   1.110195 S    
O32   Cu12  1.955316 S    
C244  H124  1.110889 S    
C242  H119  1.116030 S    
C12   C127  1.475930 S    
C188  C198  1.415970 A    
C8    C87   1.465413 S    
C129  C189  1.424522 A    
C250  H137  1.110394 S    
H3    C207  1.083318 S    
O17   C225  1.349591 S    
O12   C4    1.285803 A    
H18   C198  1.075294 S    
C136  C148  1.430868 A    
O13   C5    1.285879 A    
C95   H91   1.082749 S    
C61   C85   1.534606 S    
O16   Cu4   1.970042 S    
C24   C110  1.399643 A    
C78   H70   1.110205 S    
C44   C52   1.534273 S    
O35   C119  1.291324 A    
C236  C237  1.527327 S    
C97   H93   1.082827 S    
C54   H46   1.110166 S    
C27   C51   1.545832 S    
O72   C254  1.417833 S    
N4    C230  1.370099 A    
C66   C74   1.546320 S    
C251  C252  1.528017 S    
H12   C108  1.083183 S    
C239  H111  1.110886 S    
O48   C124  1.290700 A    
C151  C159  1.395787 A    
C94   C170  1.396290 A    
C248  C249  1.530972 S    
C73   C81   1.533170 S    
C42   C66   1.534254 S    
C19   C111  1.403229 A    
O52   C126  1.299338 A    
C70   H62   1.110147 S    
C69   C77   1.547760 S    
C235  H103  1.110897 S    
C21   C107  1.401369 A    
C21   C105  1.401289 A    
N14   O83   1.301498 A    
C14   C106  1.403597 A    
C18   C110  1.401681 A    
C142  O66   1.380538 S    
C41   C65   1.533661 S    
C32   C40   1.547660 S    
C189  C203  1.412234 A    
H17   C197  1.076896 S    
C28   H36   1.110194 S    
C35   H27   1.110165 S    
C209  C217  1.399017 A    
C191  C201  1.412237 A    
C58   H50   1.110149 S    
C204  C212  1.388540 A    
C57   C65   1.545699 S    
C34   C74   1.547858 S    
N3    C91   1.441571 S    
C9    C169  1.403967 A    
C188  C194  1.419690 A    
H23   C203  1.076160 S    
O10   C2    1.285657 A    
C247  H131  1.110929 S    
C17   C103  1.417469 A    
C43   C119  1.465760 S    
C77   H69   1.110239 S    
C58   C82   1.534792 S    
C18   N14   1.440528 S    
C253  H143  1.110902 S    
C16   C108  1.401052 A    
C52   H44   1.110156 S    
C75   H67   1.110233 S    
C13   C101  1.417520 A    
C162  C182  1.408564 A    
O4    C4    1.284599 A    
O18   C226  1.349588 S    
O51   C125  1.300312 A    
C252  C253  1.525908 S    
C65   C73   1.547776 S    
O3    Cu1   1.970037 S    
H7    C211  1.083271 S    
C104  N8    1.443114 S    
H8    C212  1.083556 S    
C152  C160  1.392527 A    
C213  C227  1.407066 A    
C68   H60   1.110136 S    
C256  H151  1.110373 S    
C69   H61   1.110140 S    
C198  C206  1.389108 A    
C150  H82   1.083859 S    
C243  H121  1.110134 S    
C72   H64   1.110140 S    
C187  C197  1.414071 A    
C21   C113  1.479816 S    
N2    C226  1.369921 A    
C149  H81   1.081078 S    
C33   H25   1.110163 S    
O40   C124  1.291282 A    
O25   Cu5   1.955780 S    
C208  C216  1.394697 A    
C27   C35   1.547980 S    
C153  C161  1.395469 A    
C238  H109  1.110352 S    
C246  H127  1.111907 S    
C24   C112  1.399341 A    
C41   C49   1.534523 S    
C30   C54   1.547030 S    
C66   H58   1.110140 S    
C46   C122  1.465484 S    
C240  H114  1.110210 S    
C243  C244  1.525933 S    
C181  N7    1.368702 A    
O32   C116  1.300380 A    
C95   C171  1.397154 A    
C60   C68   1.545732 S    
C253  H145  1.110855 S    
C47   C55   1.534624 S    
N12   O80   1.301166 A    
C63   C87   1.534567 S    
C158  C178  1.405241 A    
C37   H29   1.110171 S    
C64   C88   1.534792 S    
C102  N6    1.440537 S    
C131  C143  1.426767 A    
C39   H31   1.110170 S    
C182  O62   1.349591 S    
C9    C171  1.404091 A    
O6    Cu2   1.970679 S    
C94   H90   1.082864 S    
O47   Cu9   1.969003 S    
Cu5   O49   1.956131 S    
C239  C240  1.530682 S    
C186  C200  1.415123 A    
Cu7   O51   1.956309 S    
C29   C37   1.547921 S    
N9    O73   1.301528 A    
H15   C111  1.083176 S    
C16   N12   1.440866 S    
C96   H92   1.082798 S    
C145  C153  1.394108 A    
C234  H100  1.110217 S    
C9    C126  1.473562 S    
H9    C105  1.082984 S    
Cu9   O53   1.956131 S    
C33   C41   1.533337 S    
O36   C120  1.291310 A    
C3    C82   1.465333 S    
C89   C93   1.404774 A    
C11   C128  1.479166 S    
C48   C72   1.533781 S    
O33   Cu5   1.969539 S    
C23   C111  1.400260 A    
C194  C222  1.426937 A    
C1    C84   1.465341 S    
C249  H134  1.111668 S    
C37   C77   1.546750 S    
O29   Cu9   1.955780 S    
C179  N5    1.368570 A    
H11   C107  1.082984 S    
C20   C112  1.404830 A    
H75   C171  1.083119 S    
C25   C81   1.533461 S    
N13   O82   1.301172 A    
C144  O68   1.392762 S    
C92   C100  1.402936 A    
C61   H53   1.110146 S    
C148  O72   1.384239 S    
C190  C204  1.416930 A    
C238  H108  1.110884 S    
O50   C126  1.299567 A    
Cu12  O56   1.956596 S    
C27   H35   1.110169 S    
O49   C125  1.301513 A    
C17   N13   1.440836 S    
Cu9   Cu11  2.684944 S    
C28   C84   1.533204 S    
O43   Cu5   1.969003 S    
Cu10  Cu12  2.685205 S    
H24   C204  1.074025 S    
O48   Cu10  1.967827 S    
O66   C236  1.412651 S    
C160  C166  1.404509 A    
C46   C70   1.534026 S    
C155  C163  1.395501 A    
C141  C149  1.406875 A    
C22   C114  1.475965 S    
O41   Cu7   1.969007 S    
C216  C226  1.406940 A    
O42   Cu8   1.967827 S    
C237  H106  1.111864 S    
C143  C151  1.406912 A    
O30   Cu10  1.956064 S    
C246  C247  1.525939 S    
C201  C209  1.392496 A    
C144  C152  1.405783 A    
C215  C221  1.406973 A    
C103  N7    1.441637 S    
C157  C177  1.407232 A    
C251  H140  1.115151 S    
C13   C105  1.403307 A    
C67   H59   1.110145 S    
C133  C139  1.422719 A    
O1    C1    1.284481 A    
H2    C206  1.083477 S    
C134  C140  1.425980 A    
C17   C109  1.402526 A    
O45   Cu11  1.969007 S    
C235  H102  1.110384 S    
O46   Cu12  1.967827 S    
C80   C88   1.533250 S    
C48   C124  1.465533 S    
C62   C86   1.534836 S    
C74   C82   1.533297 S    
O7    C7    1.284444 A    
O8    C8    1.284610 A    
C50   H42   1.110170 S    
C135  C139  1.424428 A    
O38   Cu10  1.970354 S    
C220  C230  1.405741 A    
C44   C68   1.533752 S    
C67   C75   1.547831 S    
N16   O87   1.301501 A    
C182  N8    1.369025 A    
C49   C57   1.546365 S    
O70   C248  1.420526 S    
C247  H130  1.110352 S    
C10   C172  1.406506 A    
O31   C115  1.300302 A    
C36   H28   1.110170 S    
C218  C232  1.406313 A    
C241  H115  1.110902 S    
C241  H116  1.110376 S    
O43   C119  1.290617 A    
C55   C63   1.546226 S    
C40   H32   1.110170 S    
O65   C233  1.420000 S    
C89   C95   1.404734 A    
O31   Cu11  1.955597 S    
C30   H38   1.110221 S    
O38   C122  1.291036 A    
C42   C118  1.465533 S    
O71   C251  1.411901 S    
C249  C250  1.525942 S    
C2    C81   1.465409 S    
C186  C194  1.421797 A    
C35   C75   1.546809 S    
O27   Cu7   1.955597 S    
C33   C73   1.546744 S    
C60   C84   1.534803 S    
O11   C3    1.285913 A    
C135  C147  1.427524 A    
C32   H40   1.110194 S    
C136  C140  1.425264 A    
O33   C117  1.291229 A    
C63   C71   1.545693 S    
C24   C116  1.474577 S    
C37   C45   1.533332 S    
C64   C72   1.545746 S    
C97   C173  1.397093 A    
C39   C47   1.533422 S    
C132  C144  1.431448 A    
O6    C6    1.284736 A    
C25   C49   1.545908 S    
H76   C172  1.082792 S    
N15   O86   1.301174 A    
C141  O65   1.391939 S    
C244  H123  1.110387 S    
O13   Cu4   1.969399 S    
C132  C192  1.427457 A    
O47   C123  1.290614 A    
C154  H86   1.080758 S    
N10   O76   1.301162 A    
C19   C103  1.417956 A    
C177  O57   1.349577 S    
C237  C238  1.525963 S    
N1    C225  1.371842 A    
C159  C179  1.407224 A    
C211  C219  1.399018 A    
C6    C85   1.465426 S    
Cu8   O52   1.956596 S    
O5    Cu2   1.970215 S    
C44   C120  1.465505 S    
C36   C76   1.547161 S    
C236  H105  1.114903 S    
C26   C34   1.546989 S    
O27   C113  1.300532 A    
C47   C123  1.465751 S    
C239  H112  1.116234 S    
C161  C167  1.407656 A    
C199  C207  1.390597 A    
C248  H133  1.116047 S    
C242  H118  1.110865 S    
C15   N11   1.441127 S    
N11   O77   1.301525 A    
C11   C173  1.406372 A    
N14   O84   1.301227 A    
N4    C232  1.370090 A    
C213  C221  1.406283 A    
C29   C85   1.533456 S    
C130  C142  1.430788 A    
C49   H41   1.110142 S    
O42   C118  1.291101 A    
C27   C83   1.533476 S    
C192  C196  1.420523 A    
O10   Cu3   1.969295 S    
O5    C5    1.284475 A    
C22   C108  1.400304 A    
C45   C53   1.534500 S    
O55   C127  1.299944 A    
C240  H113  1.111669 S    
C130  C190  1.427925 A    
N2    C228  1.369759 A    
Cu6   O50   1.955848 S    
C10   C170  1.406604 A    
C148  C156  1.392361 A    
O39   C123  1.291325 A    
O9    C1    1.285886 A    
C253  H144  1.110432 S    
C79   H71   1.110234 S    
C14   N10   1.441035 S    
C245  H126  1.114758 S    
O46   C122  1.290932 A    
C252  H142  1.111811 S    
C7    C86   1.465380 S    
C134  C186  1.429745 A    
C196  C224  1.426462 A    
C18   C104  1.417653 A    
C233  H97   1.110882 S    
C254  C255  1.533165 S    
O34   Cu6   1.970354 S    
C216  C222  1.406667 A    
C206  C214  1.394760 A    
O23   C231  1.349466 S    
C38   C78   1.547616 S    
C183  O63   1.349501 S    
C93   C169  1.396839 A    
C203  C211  1.392547 A    
C52   C60   1.545926 S    
C59   C67   1.545693 S    
C26   C82   1.533161 S    
C55   H47   1.110141 S    
C15   C107  1.403050 A    
O45   C121  1.290723 A    
C62   H54   1.110144 S    
O26   C114  1.300454 A    
C143  O67   1.392044 S    
C56   C64   1.545906 S    
C68   C76   1.547445 S    
C90   C96   1.403001 A    
C163  C167  1.406659 A    
C34   H26   1.110155 S    
C156  H88   1.083810 S    
C164  C168  1.406973 A    
O25   C113  1.300828 A    
C78   C86   1.533290 S    
O12   Cu3   1.970042 S    
C242  C243  1.530982 S    
C72   C80   1.547400 S    
C56   H48   1.110152 S    
C180  O60   1.349676 S    
C250  H138  1.110892 S    
Cu2   Cu4   2.666314 S    
N2    C90   1.441288 S    
O14   C6    1.285671 A    
C147  C155  1.396044 A    
Cu10  O54   1.955848 S    
H1    C205  1.083333 S    
C159  C165  1.405456 A    
C36   C44   1.533324 S    
C12   C174  1.405505 A    
C179  O59   1.349574 S    
C47   C71   1.533487 S    
O15   Cu4   1.969581 S    
C142  C150  1.392040 A    
C151  H83   1.081033 S    
N1    C227  1.372214 A    
C23   C115  1.476637 S    
C40   C48   1.533330 S    
O4    Cu1   1.969936 S    
C202  C210  1.388904 A    
C137  C165  1.417253 A    
H77   C173  1.082820 S    
C135  C187  1.426696 A    
C139  C167  1.421795 A    
C140  C168  1.422396 A    
C133  C145  1.426719 A    
O19   C227  1.349443 S    
O28   Cu8   1.955316 S    
H73   C169  1.083129 S    
H4    C208  1.083491 S    
C131  C191  1.424242 A    
C20   C104  1.419105 A    
O29   C115  1.299450 A    
O68   C242  1.420470 S    
O2    C2    1.284742 A    
C178  O58   1.349694 S    
H5    C209  1.083274 S    
C20   N16   1.440567 S    
C184  N8    1.368901 A    
C76   C84   1.533255 S    
C234  H99   1.111668 S    
H14   C110  1.083432 S    
C77   C85   1.533174 S    
N15   O85   1.301517 A    
C255  H149  1.111020 S    
C131  C137  1.424565 A    
C25   H33   1.110173 S    
C255  C256  1.526753 S    
C75   C83   1.533162 S    
O53   C127  1.300032 A    
O37   C121  1.291212 A    
C42   C50   1.533765 S    
C252  H141  1.111846 S    
O54   C128  1.300824 A    
C22   C106  1.400451 A    
C65   H57   1.110142 S    
C100  H96   1.082836 S    
C249  H135  1.110136 S    
N13   O81   1.301512 A    
C29   C53   1.545943 S    
C219  C229  1.406361 A    
C70   C78   1.546792 S    
C99   C175  1.397096 A    
C60   H52   1.110145 S    
C59   H51   1.110154 S    
C256  H150  1.110933 S    
N3    C229  1.371019 A    
C26   H34   1.110230 S    
C156  C164  1.393522 A    
C189  C195  1.415640 A    
C157  C165  1.405369 A    
C34   C42   1.533353 S    
C35   C43   1.533415 S    
C245  C246  1.527297 S    
C101  N5    1.441451 S    
C133  C185  1.423074 A    
C254  H146  1.110972 S    
C152  H84   1.080761 S    
C181  O61   1.349600 S    
H19   C199  1.077833 S    
C200  C208  1.389525 A    
C38   H30   1.110187 S    
O26   Cu6   1.956064 S    
O28   C114  1.299127 A    
C129  C141  1.426978 A    
C31   H39   1.110163 S    
O15   C7    1.285937 A    
C243  H120  1.111670 S    
C57   H49   1.110145 S    
O16   C8    1.285795 A    
H20   C200  1.072453 S    
C178  N6    1.367753 A    
H16   C112  1.083314 S    
C62   C70   1.545934 S    
C11   C175  1.406377 A    
C98   H94   1.082819 S    
C237  H107  1.111657 S    
C238  H110  1.110924 S    
C246  H128  1.111659 S    
C162  C168  1.403694 A    
Cu1   Cu3   2.666314 S    
C53   H45   1.110141 S    
C161  C181  1.405909 A    
C13   N9    1.441132 S    
H78   C174  1.082924 S    
C43   C67   1.533490 S    
C240  C241  1.525926 S    
C180  N6    1.368002 A    
C250  H136  1.110898 S    
Cu5   Cu7   2.684944 S    
C185  C199  1.413170 A    
Cu6   Cu8   2.685205 S    
C158  C166  1.407013 A    
H79   C175  1.082821 S    
H74   C170  1.082806 S    
C138  C166  1.422639 A    
C12   C176  1.405412 A    
O40   Cu12  1.970354 S    
C71   H63   1.110142 S    
C147  O71   1.381005 S    
C91   C99   1.402660 A    
N12   O79   1.301514 A    
C14   C102  1.417772 A    
C210  C218  1.394552 A    
C130  C138  1.427152 A    
N3    C231  1.371003 A    
O3    C3    1.284447 A    
C150  C158  1.392080 A    
C4    C83   1.465407 S    
C205  C213  1.398383 A    
O11   Cu3   1.969581 S    
C43   C51   1.534622 S    
N16   O88   1.301204 A    
C146  C154  1.407058 A    
C153  H85   1.083696 S    
C59   C83   1.534573 S    
C98   C174  1.396229 A    
N9    O74   1.301123 A    
H22   C202  1.073136 S    
C57   C81   1.534585 S    
C32   C56   1.546401 S    
O21   C229  1.349459 S    
C145  O69   1.381393 S    
C15   C101  1.417339 A    
C234  C235  1.525997 S    
C146  O70   1.392451 S    
C30   C86   1.533182 S    
C31   C87   1.533486 S    
C61   C69   1.545685 S    
C32   C88   1.533191 S    
C255  H148  1.111483 S    
C164  C184  1.405913 A    
C136  C188  1.425880 A    
C51   H43   1.110142 S    
C93   H89   1.082764 S    
C10   C125  1.479603 S    
C31   C55   1.545836 S    
C76   H68   1.110208 S    
C197  C205  1.392059 A    
H6    C210  1.083472 S    
O44   C120  1.290670 A    
C191  C195  1.415535 A    
C187  C193  1.418420 A    
C256  H152  1.110854 S    
C19   N15   1.440863 S    
C241  H117  1.110887 S    
H21   C201  1.076290 S    
C212  C220  1.394003 A    
O39   Cu11  1.969539 S    
C183  N7    1.369118 A    
O2    Cu1   1.970679 S    
C30   C38   1.547310 S    
N1    C89   1.444578 S    
C214  C222  1.407299 A    
C71   C79   1.547829 S    
C28   C52   1.546358 S    
O7    Cu2   1.970037 S    
C40   C80   1.547192 S    
O37   Cu9   1.969539 S    
C45   C121  1.465745 S    
C244  H122  1.110895 S    
C207  C215  1.398048 A    
O36   Cu8   1.970354 S    
C149  C157  1.395777 A    
O67   C239  1.419869 S    
C50   C58   1.545554 S    
C73   H65   1.110241 S    
O22   C230  1.349630 S    
C63   H55   1.110153 S    
C64   H56   1.110149 S    
C134  C146  1.431855 A    
C54   C62   1.545650 S    
C39   C79   1.546820 S    
C53   C61   1.546357 S    
C58   C66   1.546124 S    
C190  C196  1.420468 A    
C129  C137  1.424723 A    
