data_mof_unit_36439.cif
_audit_creation_date              2012-12-11T15:37:24-0500
_audit_creation_method            fapswitch 2.2
_symmetry_space_group_name_H-M    P1
_symmetry_Int_Tables_number       1
_space_group_crystal_system       triclinic
_cell_length_a                    17.440568
_cell_length_b                    24.706624
_cell_length_c                    14.782692
_cell_angle_alpha                 90.074068
_cell_angle_beta                  126.133248
_cell_angle_gamma                 89.967708
_cell_volume                      5144.57166771

loop_
_atom_site_label
_atom_site_type_symbol
_atom_type_description
_atom_site_fract_x
_atom_site_fract_y
_atom_site_fract_z
_atom_type_partial_charge
C1    C     C_R   0.853343 0.652420 0.909163 0.023271
C2    C     C_3   0.574958 0.499283 0.646916 0.188448
C3    C     C_3   0.042248 0.014969 0.528778 -0.134436
C4    C     C_3   0.899579 0.000628 0.471859 0.189005
C5    C     C_3   0.074961 0.999284 0.646920 0.188447
C6    C     C_R   0.837846 0.222460 0.962383 -0.199146
C7    C     C_R   0.225525 0.745775 0.036254 -0.195980
C8    C     C_R   0.322161 0.321690 0.025748 -0.184633
C9    C     C_R   0.747229 0.716758 0.975862 -0.186490
C10   C     C_R   0.337868 0.722455 0.962403 -0.199135
C11   C     C_R   0.725535 0.245782 0.036275 -0.195990
C12   C     C_R   0.822154 0.821679 0.025779 -0.184637
C13   C     C_R   0.184982 0.368250 0.091609 0.046438
C14   C     C_R   0.247247 0.216766 0.975903 -0.186489
C15   C     C_R   0.279594 0.682856 0.957198 -0.178417
C16   C     C_R   0.784277 0.284747 0.043051 -0.187966
C17   C     C_R   0.875918 0.779467 0.029370 -0.197565
C18   C     C_R   0.194154 0.258510 0.972425 -0.203553
C19   C     C_R   0.779565 0.182865 0.957175 -0.178408
C20   C     C_R   0.284262 0.784743 0.043027 -0.187977
C21   C     C_R   0.375919 0.279473 0.029339 -0.197556
C22   C     C_R   0.694130 0.758498 0.972383 -0.203534
C23   C     C_R   0.225018 0.695005 0.995415 0.173376
C24   C     C_R   0.180989 0.635336 0.091762 0.032184
C25   C     C_R   0.840285 0.272746 0.006680 0.166101
C26   C     C_R   0.837137 0.727617 0.003371 0.160583
C27   C     C_R   0.231460 0.310590 0.995893 0.158061
C28   C     C_R   0.725005 0.195014 0.995413 0.173377
C29   C     C_R   0.340285 0.772744 0.006677 0.166099
C30   C     C_R   0.337143 0.227622 0.003377 0.160574
C31   C     C_R   0.731443 0.810577 0.995889 0.158063
C32   C     C_R   0.882395 0.450809 0.454794 -0.176497
C33   C     C_R   0.886609 0.548780 0.364391 -0.174611
C34   C     C_R   0.887096 0.450885 0.364460 -0.172286
C35   C     C_R   0.854929 0.347060 0.909730 0.021098
C36   C     C_R   0.881820 0.548752 0.454660 -0.171499
C37   C     C_R   0.382400 0.950809 0.454795 -0.176495
C38   C     C_R   0.386609 0.048780 0.364390 -0.174612
C39   C     C_R   0.387096 0.950884 0.364458 -0.172285
C40   C     C_R   0.381825 0.048752 0.454662 -0.171498
C41   C     C_R   0.900506 0.499883 0.327660 0.143649
C42   C     C_R   0.890109 0.499773 0.507733 0.142034
C43   C     C_R   0.400504 0.999883 0.327657 0.143649
C44   C     C_R   0.390116 0.999772 0.507737 0.142034
C45   C     C_R   0.949650 0.348734 0.094363 0.010514
C46   C     C_R   0.353341 0.152420 0.909164 0.023276
C47   C     C_R   0.085517 0.634449 0.904883 0.035749
C48   C     C_R   0.089535 0.369397 0.905292 0.044697
C49   C     C_R   0.947192 0.651007 0.093784 0.029228
C50   C     C_R   0.449647 0.848734 0.094362 0.010518
C51   C     C_R   0.585510 0.134455 0.904883 0.035741
C52   C     C_R   0.589517 0.869382 0.905289 0.044712
C53   C     C_R   0.447192 0.151007 0.093785 0.029224
C54   C     C_R   0.979154 0.545578 0.247471 -0.123952
C55   C     C_R   0.943672 0.454859 0.690807 -0.116840
C56   C     C_R   0.943876 0.544854 0.690810 -0.135015
C57   C     C_R   0.684972 0.868240 0.091608 0.046429
C58   C     C_R   0.978661 0.454449 0.246738 -0.141163
C59   C     C_R   0.479153 0.045578 0.247470 -0.123951
C60   C     C_R   0.443682 0.954858 0.690811 -0.116804
C61   C     C_R   0.443879 0.044854 0.690811 -0.135019
C62   C     C_R   0.478660 0.954449 0.246737 -0.141161
C63   C     C_R   0.731870 0.454682 0.753076 -0.121526
C64   C     C_R   0.258316 0.544948 0.304305 -0.114726
C65   C     C_R   0.258172 0.455477 0.305125 -0.139245
C66   C     C_R   0.731567 0.544826 0.753743 -0.137535
C67   C     C_R   0.231870 0.954683 0.753081 -0.121535
C68   C     C_R   0.680980 0.135344 0.091762 0.032187
C69   C     C_R   0.758322 0.044947 0.304300 -0.114738
C70   C     C_R   0.758177 0.955477 0.305119 -0.139240
C71   C     C_R   0.231568 0.044826 0.753748 -0.137524
C72   C     C_R   0.887478 0.683209 0.002527 -0.060859
C73   C     C_R   0.176871 0.352307 0.997174 -0.067297
C74   C     C_R   0.169771 0.654031 0.997215 -0.041930
C75   C     C_R   0.891086 0.316190 0.003547 -0.024947
C76   C     C_R   0.387476 0.183209 0.002529 -0.060861
C77   C     C_R   0.676848 0.852288 0.997170 -0.067289
C78   C     C_R   0.669757 0.154043 0.997215 -0.041924
C79   C     C_R   0.354927 0.847061 0.909730 0.021093
C80   C     C_R   0.391083 0.816191 0.003546 -0.024948
C81   C     C_R   0.947216 0.499999 0.271497 0.035805
C82   C     C_R   0.925394 0.499798 0.625586 0.027925
C83   C     C_R   0.447214 0.999999 0.271494 0.035804
C84   C     C_R   0.425402 0.999797 0.625589 0.027917
C85   C     C_R   0.676596 0.499548 0.729591 0.009781
C86   C     C_R   0.307163 0.500385 0.365572 0.009013
C87   C     C_R   0.176598 0.999549 0.729602 0.009775
C88   C     C_R   0.807171 0.000384 0.365563 0.009019
C89   C     C_3   0.510064 0.449519 0.601811 -0.168156
C90   C     C_3   0.399571 0.500629 0.471866 0.189006
C91   C     C_3   0.464539 0.550331 0.517330 -0.167737
C92   C     C_3   0.476958 0.465409 0.483144 -0.148597
C93   C     C_3   0.498227 0.534680 0.636755 -0.158305
C94   C     C_3   0.010053 0.949527 0.601851 -0.168155
C95   C     C_3   0.964562 0.050324 0.517287 -0.167727
C96   C     C_3   0.976958 0.965384 0.483173 -0.148625
C97   C     C_3   0.998237 0.034705 0.636721 -0.158323
C98   C     C_3   0.430696 0.484786 0.589130 -0.147036
C99   C     C_3   0.542232 0.515000 0.528784 -0.134457
C100  C     C_3   0.930692 0.984817 0.589132 -0.147023
H1    H     H_    0.967130 0.587155 0.257115 0.105900
H2    H     H_    0.270036 0.585589 0.336571 0.107014
H3    H     H_    0.270797 0.414831 0.337594 0.111459
H4    H     H_    0.707875 0.586309 0.737869 0.114333
H5    H     H_    0.209118 0.913026 0.737222 0.110308
H6    H     H_    0.770045 0.085589 0.336568 0.107020
H7    H     H_    0.770804 0.914831 0.337589 0.111456
H8    H     H_    0.207876 0.086309 0.737873 0.114334
H9    H     H_    0.381863 0.472548 0.610394 0.111318
H10   H     H_    0.589403 0.527310 0.505008 0.115344
H11   H     H_    0.881850 0.972605 0.610400 0.111319
H12   H     H_    0.918385 0.414563 0.659142 0.102201
H13   H     H_    0.089428 0.027254 0.504999 0.115347
H14   H     H_    0.530474 0.408302 0.638591 0.108278
H15   H     H_    0.445035 0.591717 0.481297 0.106421
H16   H     H_    0.466813 0.437174 0.418360 0.110272
H17   H     H_    0.509836 0.562765 0.702442 0.108766
H18   H     H_    0.030451 0.908316 0.638668 0.108284
H19   H     H_    0.945073 0.091703 0.481218 0.106425
H20   H     H_    0.966809 0.937129 0.418414 0.110268
H21   H     H_    0.009850 0.062810 0.702383 0.108765
H22   H     H_    0.880099 0.214328 0.932049 0.114718
H23   H     H_    0.918034 0.584820 0.658444 0.083784
H24   H     H_    0.180608 0.755040 0.062503 0.114515
H25   H     H_    0.350511 0.362461 0.046021 0.119711
H26   H     H_    0.718653 0.675996 0.957252 0.120466
H27   H     H_    0.380134 0.714325 0.932085 0.114716
H28   H     H_    0.680628 0.255049 0.062539 0.114512
H29   H     H_    0.850508 0.862450 0.046081 0.119715
H30   H     H_    0.218675 0.176003 0.957319 0.120469
H31   H     H_    0.277479 0.643051 0.924909 0.119479
H32   H     H_    0.784371 0.324670 0.073718 0.118821
H33   H     H_    0.946220 0.786915 0.051282 0.115549
H34   H     H_    0.965566 0.412889 0.254829 0.092191
H35   H     H_    0.124792 0.250340 0.952897 0.118092
H36   H     H_    0.777434 0.143062 0.924869 0.119481
H37   H     H_    0.284339 0.824668 0.073678 0.118824
H38   H     H_    0.446213 0.286919 0.051223 0.115550
H39   H     H_    0.624760 0.750325 0.952831 0.118077
H40   H     H_    0.882972 0.412124 0.489176 0.105084
H41   H     H_    0.889531 0.587428 0.332426 0.106243
H42   H     H_    0.890399 0.412254 0.332587 0.103526
H43   H     H_    0.881836 0.587431 0.488821 0.105100
H44   H     H_    0.382976 0.912124 0.489177 0.105084
H45   H     H_    0.467128 0.087155 0.257113 0.105899
H46   H     H_    0.389530 0.087428 0.332424 0.106242
H47   H     H_    0.390396 0.912254 0.332584 0.103526
H48   H     H_    0.381842 0.087430 0.488824 0.105101
H49   H     H_    0.741205 0.688693 0.772890 0.097990
H50   H     H_    0.846916 0.704475 0.800232 0.102319
H51   H     H_    0.319806 0.358238 0.226180 0.097874
H52   H     H_    0.246775 0.306239 0.200281 0.108481
H53   H     H_    0.317075 0.647854 0.222102 0.106766
H54   H     H_    0.239533 0.693451 0.210927 0.090984
H55   H     H_    0.744990 0.308435 0.775147 0.101101
H56   H     H_    0.418403 0.914560 0.659149 0.102197
H57   H     H_    0.851123 0.296872 0.799718 0.095394
H58   H     H_    0.241200 0.188693 0.772895 0.097991
H59   H     H_    0.346909 0.204476 0.800231 0.102320
H60   H     H_    0.819793 0.858220 0.226178 0.097869
H61   H     H_    0.746750 0.806228 0.200278 0.108481
H62   H     H_    0.817062 0.147873 0.222100 0.106764
H63   H     H_    0.739505 0.193457 0.210931 0.090977
H64   H     H_    0.244988 0.808436 0.775146 0.101102
H65   H     H_    0.351122 0.796872 0.799719 0.095388
H66   H     H_    0.993411 0.320962 0.245631 0.088617
H67   H     H_    0.418036 0.084819 0.658443 0.083785
H68   H     H_    0.076137 0.357094 0.246796 0.107707
H69   H     H_    0.046513 0.640117 0.747198 0.100601
H70   H     H_    0.960785 0.658824 0.763542 0.097573
H71   H     H_    0.089463 0.361097 0.769992 0.107809
H72   H     H_    0.035190 0.310347 0.788523 0.092859
H73   H     H_    0.977840 0.688836 0.232012 0.095643
H74   H     H_    0.055673 0.700385 0.201774 0.097517
H75   H     H_    0.493406 0.820962 0.245629 0.088619
H76   H     H_    0.576133 0.857093 0.246796 0.107708
H77   H     H_    0.546505 0.140122 0.747198 0.100598
H78   H     H_    0.465565 0.912889 0.254827 0.092193
H79   H     H_    0.460773 0.158823 0.763540 0.097576
H80   H     H_    0.589456 0.860987 0.770016 0.107811
H81   H     H_    0.535036 0.810322 0.788527 0.092815
H82   H     H_    0.477842 0.188835 0.232014 0.095642
H83   H     H_    0.555673 0.200385 0.201775 0.097521
H84   H     H_    0.709119 0.413026 0.737219 0.110301
N1    N     N_R   0.892620 0.603790 0.941800 -0.053627
N2    N     N_R   0.047790 0.602400 0.942090 -0.062655
N3    N     N_R   0.047790 0.397600 0.942090 -0.054667
N4    N     N_R   0.952210 0.602400 0.057910 -0.052757
N5    N     N_R   0.452210 0.897600 0.057910 -0.060955
N6    N     N_R   0.547790 0.102400 0.942090 -0.062654
N7    N     N_R   0.547790 0.897600 0.942090 -0.054669
N8    N     N_R   0.452210 0.102400 0.057910 -0.052756
N9    N     N_R   0.026300 0.529110 0.206760 -0.036876
N10   N     N_R   0.973700 0.470890 0.793240 -0.038156
N11   N     N_R   0.973700 0.529110 0.793240 -0.041732
N12   N     N_R   0.107380 0.396210 0.058200 -0.056267
N13   N     N_R   0.026300 0.470890 0.206760 -0.043029
N14   N     N_R   0.526300 0.029110 0.206760 -0.036876
N15   N     N_R   0.473700 0.970890 0.793240 -0.038158
N16   N     N_R   0.473700 0.029110 0.793240 -0.041733
N17   N     N_R   0.526300 0.970890 0.206760 -0.043030
N18   N     N_R   0.818530 0.472270 0.792960 -0.037894
N19   N     N_R   0.181470 0.527730 0.207040 -0.037048
N20   N     N_R   0.181470 0.472270 0.207040 -0.038702
N21   N     N_R   0.818530 0.527730 0.792960 -0.037604
N22   N     N_R   0.318530 0.972270 0.792960 -0.037896
N23   N     N_R   0.107380 0.603790 0.058200 -0.053762
N24   N     N_R   0.681470 0.027730 0.207040 -0.037047
N25   N     N_R   0.681470 0.972270 0.207040 -0.038702
N26   N     N_R   0.318530 0.027730 0.792960 -0.037607
N27   N     N_3   0.806346 0.672573 0.797722 -0.226522
N28   N     N_3   0.251996 0.348431 0.202581 -0.226032
N29   N     N_3   0.249930 0.652424 0.204518 -0.226121
N30   N     N_3   0.808107 0.326864 0.798267 -0.223973
N31   N     N_3   0.306340 0.172574 0.797724 -0.226523
N32   N     N_3   0.751981 0.848420 0.202579 -0.226033
N33   N     N_3   0.749916 0.152433 0.204518 -0.226122
N34   N     N_R   0.892620 0.396210 0.941800 -0.052361
N35   N     N_3   0.308105 0.826864 0.798266 -0.223972
N36   N     N_3   0.023049 0.327853 0.202510 -0.213879
N37   N     N_3   0.033050 0.660591 0.798300 -0.216879
N38   N     N_3   0.043953 0.352287 0.792192 -0.224834
N39   N     N_3   0.015171 0.670397 0.205180 -0.221613
N40   N     N_3   0.523045 0.827852 0.202510 -0.213880
N41   N     N_3   0.533037 0.160595 0.798297 -0.216880
N42   N     N_3   0.543910 0.852253 0.792196 -0.224828
N43   N     N_3   0.515171 0.170396 0.205181 -0.221611
N44   N     N_R   0.392620 0.103790 0.941800 -0.053627
N45   N     N_R   0.607380 0.896210 0.058200 -0.056265
N46   N     N_R   0.607380 0.103790 0.058200 -0.053761
N47   N     N_R   0.392620 0.896210 0.941800 -0.052361
N48   N     N_R   0.952210 0.397600 0.057910 -0.060955
Ni1   Ni    Ni4+2 0.934150 0.565840 0.869060 0.202188
Ni2   Ni    Ni4+2 0.065850 0.434160 0.130940 0.201755
Ni3   Ni    Ni4+2 0.065850 0.565840 0.130940 0.214329
Ni4   Ni    Ni4+2 0.934150 0.434160 0.869060 0.212553
Ni5   Ni    Ni4+2 0.434150 0.065840 0.869060 0.202188
Ni6   Ni    Ni4+2 0.565850 0.934160 0.130940 0.201757
Ni7   Ni    Ni4+2 0.565850 0.065840 0.130940 0.214331
Ni8   Ni    Ni4+2 0.434150 0.934160 0.869060 0.212551

loop_
_geom_bond_atom_site_label_1
_geom_bond_atom_site_label_2
_ccdc_geom_bond_type
H63   N33   S    
N1    Ni1   S    
C62   C83   A    
C58   N13   A    
C63   N18   A    
N3    N12   A    
C1    N27   S    
C43   C83   S    
C14   C18   A    
C54   H1    S    
C36   C42   A    
C42   C82   S    
C7    H24   S    
N19   N20   A    
C70   C88   A    
N15   Ni8   S    
C97   C100  S    
C66   C85   A    
H53   N29   S    
C5    C94   S    
C67   N22   A    
N23   Ni3   S    
N17   Ni6   S    
C58   H34   S    
C64   H2    S    
C6    C19   A    
C34   C41   A    
C35   C75   A    
H57   N30   S    
N12   Ni2   S    
N2    N23   A    
C17   C26   A    
N13   Ni2   S    
C37   H44   S    
C36   H43   S    
C59   C83   A    
C32   H40   S    
C70   H7    S    
C55   H12   S    
C7    C23   A    
C9    C22   A    
C64   N19   A    
C6    C25   A    
C59   N14   A    
C4    C95   S    
N7    Ni8   S    
C33   C36   A    
C57   N45   A    
C61   N16   A    
C2    C85   S    
C11   C16   A    
C49   N4    A    
C64   C86   A    
C50   N5    A    
N16   Ni5   S    
C38   H46   S    
C2    C89   S    
N20   Ni2   S    
C60   N15   A    
C4    C96   S    
C90   C92   S    
N34   N48   A    
H69   N37   S    
C70   N25   A    
N24   N25   A    
C13   N12   A    
C12   C17   A    
C51   N41   S    
C97   H21   S    
H75   N40   S    
C46   N44   A    
C3    C96   S    
C45   N48   A    
C28   C78   S    
C18   C27   A    
C40   C44   A    
N3    Ni4   S    
C3    H13   S    
N2    Ni1   S    
C15   C23   A    
N10   N11   A    
H52   N28   S    
H62   N33   S    
C41   C81   S    
N15   N16   A    
C98   H9    S    
C71   H8    S    
C49   N39   S    
C55   C82   A    
C13   N28   S    
N46   Ni7   S    
N6    Ni5   S    
C93   H17   S    
C21   H38   S    
C14   C30   A    
H54   N29   S    
C16   H32   S    
N5    Ni6   S    
N24   Ni7   S    
C46   C76   A    
C35   N30   S    
C68   N46   A    
C9    C26   A    
C31   C77   S    
C20   C29   A    
C68   C78   A    
C1    C72   A    
H59   N31   S    
C12   H29   S    
C40   H48   S    
N26   Ni5   S    
C66   H4    S    
C65   C86   A    
N25   Ni6   S    
C48   N3    A    
C86   C90   S    
C58   C81   A    
H83   N43   S    
C66   N21   A    
C67   H5    S    
N1    N4    A    
C39   C43   A    
C95   H19   S    
H58   N31   S    
C99   H10   S    
N18   Ni4   S    
C22   H39   S    
C49   C72   A    
C79   C80   A    
C47   N2    A    
N47   Ni8   S    
C61   H67   S    
C52   N7    A    
C32   C34   A    
C20   H37   S    
H79   N41   S    
H55   N30   S    
C56   H23   S    
C62   N17   A    
N19   Ni3   S    
C57   C77   A    
C91   C93   S    
C56   N11   A    
C30   C76   S    
C24   N29   S    
N22   N26   A    
C79   N35   S    
C57   N32   S    
C94   C100  S    
N7    N45   A    
C71   N26   A    
C50   N40   S    
C22   C31   A    
N14   N17   A    
N48   Ni2   S    
C8    C21   A    
N8    Ni7   S    
H70   N37   S    
C18   H35   S    
C26   C72   S    
H68   N36   S    
C89   C92   S    
C94   C96   S    
C19   C28   A    
N4    Ni3   S    
C79   N47   A    
C45   C75   A    
C69   C88   A    
C71   C87   A    
C59   H45   S    
H64   N35   S    
C52   N42   S    
H61   N32   S    
C5    C97   S    
C2    C99   S    
C7    C20   A    
C4    C100  S    
C12   C31   A    
C17   H33   S    
C38   C43   A    
N9    Ni3   S    
C53   C76   A    
C65   H3    S    
C23   C74   S    
C25   C75   S    
C52   C77   A    
H73   N39   S    
C35   N34   A    
H66   N36   S    
H71   N38   S    
C14   H30   S    
C16   C25   A    
C45   N36   S    
C89   H14   S    
C34   H42   S    
C69   N24   A    
C32   C42   A    
C63   H84   S    
H76   N40   S    
N5    N47   A    
C48   C73   A    
C96   H20   S    
C2    C93   S    
H74   N39   S    
H49   N27   S    
C47   C74   A    
C13   C73   A    
C94   H18   S    
C3    C5    S    
C61   C84   A    
C50   C80   A    
C62   H78   S    
C3    C95   S    
C69   H6    S    
C95   C97   S    
C56   C82   A    
C4    C88   S    
C1    N1    A    
H81   N42   S    
C21   C30   A    
C24   N23   A    
C67   C87   A    
C9    H26   S    
C92   H16   S    
C44   C84   S    
C89   C98   S    
C10   C15   A    
C33   C41   A    
H50   N27   S    
C37   C44   A    
N21   Ni1   S    
C11   H28   S    
C19   H36   S    
C51   C78   A    
N34   Ni4   S    
N44   Ni5   S    
C37   C39   A    
C91   C99   S    
C53   N43   S    
C38   C40   A    
N10   Ni4   S    
C60   C84   A    
C10   C29   A    
C24   C74   A    
C90   C91   S    
C65   N20   A    
C48   N38   S    
C11   C28   A    
N9    N13   A    
H80   N42   S    
H51   N28   S    
C91   H15   S    
C68   N33   S    
C60   H56   S    
C51   N6    A    
C47   N37   S    
H82   N43   S    
C53   N8    A    
H72   N38   S    
N14   Ni7   S    
H65   N35   S    
H77   N41   S    
C33   H41   S    
C5    C87   S    
C8    H25   S    
N8    N44   A    
C55   N10   A    
C15   H31   S    
C100  H11   S    
C46   N31   S    
C39   H47   S    
C54   N9    A    
C8    C27   A    
C6    H22   S    
N11   Ni1   S    
N22   Ni8   S    
N18   N21   A    
N6    N46   A    
N45   Ni6   S    
C27   C73   S    
C29   C80   S    
C93   C98   S    
C90   C98   S    
C54   C81   A    
C63   C85   A    
C10   H27   S    
C92   C99   S    
H60   N32   S    
