data_mof_unit_6059.cif
_audit_creation_date              2013-03-05T15:57:46-0500
_audit_creation_method            fapswitch 2.2
_symmetry_space_group_name_H-M    P1
_symmetry_Int_Tables_number       1
_space_group_crystal_system       triclinic
_cell_length_a                    15.626679
_cell_length_b                    14.943503
_cell_length_c                    15.010467
_cell_angle_alpha                 109.587406
_cell_angle_beta                  121.279393
_cell_angle_gamma                 59.148893
_cell_volume                      2560.42944397

loop_
_atom_site_label
_atom_site_type_symbol
_atom_site_description
_atom_site_fract_x
_atom_site_fract_y
_atom_site_fract_z
_atom_type_partial_charge
C1    C     C_R   0.802789 0.936228 0.772267 -0.076419
C2    C     C_R   0.245692 0.006323 0.208833 -0.035459
N1    N     N_R   0.705410 0.966550 0.689210 -0.057464
N2    N     N_R   0.294590 0.033450 0.310790 -0.060377
C3    C     C_R   0.199014 0.274196 0.439897 -0.053200
C4    C     C_R   0.758653 0.709551 0.509943 -0.100599
N3    N     N_R   0.294590 0.188320 0.465660 -0.054081
N4    N     N_R   0.705410 0.811680 0.534340 -0.055939
C5    C     C_R   0.591662 0.231074 0.560699 -0.014278
C6    C     C_R   0.407708 0.779048 0.503574 0.005479
N5    N     N_R   0.556610 0.157790 0.497330 -0.044351
N6    N     N_R   0.443390 0.842210 0.502670 -0.071381
C7    C     C_R   0.410458 0.054924 0.733282 0.358126
C8    C     C_R   0.592970 0.017266 0.288438 0.244628
N7    N     N_R   0.443390 0.997080 0.657540 -0.081368
N8    N     N_R   0.556610 0.002920 0.342460 -0.091323
C9    C     C_R   0.407894 0.304735 0.484079 -0.112622
C10   C     C_R   0.589608 0.707320 0.582121 -0.105940
N9    N     N_R   0.443390 0.203250 0.451380 -0.063628
N10   N     N_R   0.556610 0.796750 0.548620 -0.066074
C11   C     C_R   0.592519 0.992330 0.802171 -0.156693
C12   C     C_R   0.409860 0.084674 0.208214 -0.142781
N11   N     N_R   0.556610 0.951620 0.703500 -0.065342
N12   N     N_R   0.443390 0.048380 0.296500 -0.073063
C13   C     C_R   0.197494 0.183154 0.528658 0.011148
C14   C     C_R   0.756875 0.801540 0.417195 0.031504
N13   N     N_R   0.294590 0.131500 0.522480 -0.078824
N14   N     N_R   0.705410 0.868500 0.477520 -0.047497
C15   C     C_R   0.802431 0.030498 0.685016 -0.103316
C16   C     C_R   0.245415 0.913686 0.299249 -0.043606
N15   N     N_R   0.705410 0.023370 0.632390 -0.049998
N16   N     N_R   0.294590 0.976630 0.367610 -0.068249
C17   C     C_R   0.865754 0.974974 0.771856 0.086338
C18   C     C_R   0.215921 0.929295 0.199175 0.118652
C19   C     C_R   0.136730 0.273769 0.479790 -0.033203
C20   C     C_R   0.790991 0.700906 0.435199 -0.063523
C21   C     C_R   0.499577 0.324372 0.557441 0.073807
C22   C     C_R   0.497517 0.690250 0.551887 0.186884
C23   C     C_R   0.503899 0.052720 0.826137 -0.068444
C24   C     C_R   0.502929 0.066028 0.202432 -0.087275
Ni1   Ni    Ni4+2 0.629830 0.882720 0.617850 0.227434
Ni2   Ni    Ni4+2 0.370170 0.117280 0.382150 0.239860
Ni3   Ni    Ni4+2 0.629830 0.013030 0.487540 0.320311
Ni4   Ni    Ni4+2 0.370170 0.986970 0.512460 0.276344
C25   C     C_R   0.700065 0.699589 0.871622 -0.181568
C26   C     C_R   0.378486 0.383180 0.267944 -0.179245
H1    H     H_    0.670317 0.640915 0.820610 0.183069
H2    H     H_    0.419388 0.414208 0.346686 0.188716
C27   C     C_R   0.626690 0.797980 0.895742 0.367726
C28   C     C_R   0.439442 0.308939 0.211899 0.320442
C29   C     C_R   0.665240 0.874668 0.962541 -0.266262
C30   C     C_R   0.384510 0.265302 0.110865 -0.223268
C31   C     C_R   0.778955 0.851599 0.003740 0.324211
C32   C     C_R   0.267794 0.306219 0.063940 0.289845
C33   C     C_R   0.850607 0.751437 0.978530 -0.194506
C34   C     C_R   0.208999 0.383300 0.120653 -0.156258
C35   C     C_R   0.811637 0.676009 0.913923 -0.131041
C36   C     C_R   0.264494 0.418150 0.223292 -0.110866
C37   C     C_R   0.579276 0.982265 0.079256 -0.024385
C38   C     C_R   0.451428 0.160285 0.970528 -0.021941
H3    H     H_    0.627254 0.912500 0.120537 0.128869
H4    H     H_    0.401893 0.228780 0.927603 0.167265
C39   C     C_R   0.509590 0.073949 0.114080 0.093928
C40   C     C_R   0.515763 0.064572 0.931166 0.066628
C41   C     C_R   0.449705 0.166099 0.064587 0.126569
C42   C     C_R   0.586635 0.976981 0.990773 0.142271
H5    H     H_    0.815798 0.509553 0.423907 0.176493
H6    H     H_    0.988779 0.404367 0.333421 0.190601
C43   C     C_2   0.023895 0.350002 0.466208 0.302363
C44   C     C_2   0.854771 0.604364 0.387081 0.307381
C45   C     C_2   0.960854 0.415202 0.390443 -0.139759
C46   C     C_2   0.864737 0.511823 0.394097 -0.125993
C47   C     C_2   0.981919 0.951144 0.842013 -0.096396
C48   C     C_2   0.157124 0.878596 0.101525 -0.116488
C49   C     C_R   0.189108 0.845780 0.646647 0.289092
C50   C     C_R   0.885334 0.263801 0.840032 0.168966
C51   C     C_R   0.282064 0.754129 0.647811 -0.126504
C52   C     C_R   0.795290 0.314649 0.751170 -0.225676
H7    H     H_    0.346845 0.723232 0.722045 0.249180
H8    H     H_    0.805758 0.301826 0.681373 0.252602
C53   C     C_R   0.294789 0.702843 0.556008 -0.114463
C54   C     C_R   0.691230 0.381152 0.749961 -0.098171
C55   C     C_R   0.204554 0.735009 0.457885 0.241726
C56   C     C_R   0.675478 0.394593 0.839044 0.197161
C57   C     C_R   0.111422 0.829998 0.455926 0.110672
C58   C     C_R   0.764077 0.341578 0.927733 0.122437
C59   C     C_R   0.105501 0.887938 0.550329 0.105993
C60   C     C_R   0.869410 0.277775 0.929323 0.142561
C61   C     C_R   0.399765 0.516311 0.581543 0.271222
C62   C     C_R   0.598062 0.515542 0.624900 0.248700
C63   C     C_R   0.499314 0.427047 0.609378 -0.071138
C64   C     C_R   0.496462 0.603355 0.579867 -0.086669
C65   C     C_R   0.597788 0.437503 0.656028 -0.015235
C66   C     C_R   0.397199 0.606151 0.567324 0.019120
C67   C     C_2   0.039368 0.886531 0.916755 -0.021603
C68   C     C_2   0.135159 0.897005 0.008988 -0.027028
H9    H     H_    0.830455 0.877735 0.819663 0.099856
H10   H     H_    0.233492 0.039388 0.147191 0.141949
H11   H     H_    0.119717 0.836417 0.105409 0.193281
H12   H     H_    0.017278 0.995176 0.838537 0.207215
H13   H     H_    0.868242 0.599274 0.895917 0.215650
H14   H     H_    0.218908 0.472483 0.268445 0.223594
N17   N     N_R   0.511901 0.821316 0.846832 0.242124
O1    O     O_R   0.457882 0.852881 0.902466 -0.329688
O2    O     O_R   0.459553 0.817762 0.745507 -0.444400
N18   N     N_R   0.556523 0.278009 0.258457 0.261510
O3    O     O_R   0.605928 0.253408 0.200094 -0.266461
O4    O     O_R   0.611604 0.287249 0.359782 -0.324818
N19   N     N_R   0.821903 0.929454 0.064369 0.267593
O5    O     O_R   0.770493 0.013416 0.111878 -0.259251
O6    O     O_R   0.912430 0.918276 0.069320 -0.378974
N20   N     N_R   0.208141 0.266771 0.961425 0.266919
O7    O     O_R   0.241105 0.166442 0.935147 -0.268762
O8    O     O_R   0.113865 0.330683 0.898358 -0.285689
H15   H     H_    0.937461 0.731467 0.008878 0.188789
H16   H     H_    0.120061 0.412708 0.086830 0.198918
N21   N     N_R   0.915215 0.609915 0.343719 0.247197
O9    O     O_R   0.966146 0.670932 0.390912 -0.318963
O10   O     O_R   0.908220 0.564182 0.251113 -0.335000
N22   N     N_R   0.988997 0.362450 0.543080 0.263603
O11   O     O_R   0.978266 0.286307 0.553587 -0.240887
O12   O     O_R   0.977940 0.445953 0.608927 -0.331038
N23   N     N_R   0.015836 0.989239 0.547419 0.311736
O13   O     O_R   0.980525 0.054221 0.483494 -0.224276
O14   O     O_R   0.971171 0.018618 0.610819 -0.342009
N24   N     N_R   0.959429 0.229286 0.022629 0.280999
O15   O     O_R   0.955873 0.163233 0.057820 -0.330491
O16   O     O_R   0.036643 0.262509 0.080317 -0.363916
H17   H     H_    0.171398 0.325796 0.385320 0.125071
H18   H     H_    0.772890 0.646960 0.543631 0.164389
N25   N     N_R   0.184044 0.896267 0.744697 0.271552
O17   O     O_R   0.171325 0.992895 0.772253 -0.188114
O18   O     O_R   0.216139 0.840061 0.815306 -0.366811
N26   N     N_R   0.991028 0.198174 0.837112 0.283323
O19   O     O_R   0.073055 0.138036 0.910930 -0.333355
O20   O     O_R   0.005762 0.197514 0.759085 -0.187435
N27   N     N_R   0.208977 0.675236 0.361275 0.248464
O21   O     O_R   0.300463 0.629207 0.350942 -0.444646
O22   O     O_R   0.120132 0.669880 0.281309 -0.321380
N28   N     N_R   0.572212 0.468684 0.843040 0.265375
O23   O     O_R   0.514226 0.438063 0.854121 -0.276289
O24   O     O_R   0.535674 0.567182 0.835081 -0.385951
N29   N     N_R   0.022644 0.868284 0.357915 0.310995
O25   O     O_R   0.926634 0.872371 0.328828 -0.247887
O26   O     O_R   0.038926 0.894459 0.295519 -0.311556
N30   N     N_R   0.749120 0.358344 0.019469 0.292062
O27   O     O_R   0.806874 0.397707 0.107543 -0.298815
O28   O     O_R   0.688518 0.322192 0.018381 -0.263829
N31   N     N_R   0.304702 0.517629 0.577192 0.231718
O29   O     O_R   0.317166 0.470119 0.644387 -0.318052
O30   O     O_R   0.208002 0.555289 0.499866 -0.377857
N32   N     N_R   0.697850 0.496246 0.624893 0.223886
O31   O     O_R   0.783671 0.496047 0.712357 -0.401489
O32   O     O_R   0.705213 0.471946 0.536637 -0.324506
H19   H     H_    0.676799 0.217151 0.606091 0.112967
H20   H     H_    0.323214 0.806701 0.484193 0.091452
N33   N     N_R   0.305736 0.081002 0.725780 0.245803
O33   O     O_R   0.257028 0.018981 0.668133 -0.363884
O34   O     O_R   0.251337 0.173411 0.761361 -0.307184
N34   N     N_R   0.697979 0.021302 0.335026 0.248645
O35   O     O_R   0.723383 0.052157 0.284266 -0.234134
O36   O     O_R   0.762426 0.008224 0.433708 -0.369414
H21   H     H_    0.322501 0.359027 0.456155 0.154640
H22   H     H_    0.672259 0.669588 0.639755 0.157372
H23   H     H_    0.677492 0.974751 0.855649 0.147293
H24   H     H_    0.325170 0.130548 0.158156 0.164526
H25   H     H_    0.163794 0.149724 0.548790 0.206155
H26   H     H_    0.766975 0.823030 0.362510 0.160501
H27   H     H_    0.830112 0.062024 0.655639 0.193239
H28   H     H_    0.233782 0.859054 0.319240 0.150703
H29   H     H_    0.172775 0.938359 0.004246 0.178938
H30   H     H_    0.005588 0.840606 0.920185 0.131666

loop_
_geom_bond_atom_site_label_1
_geom_bond_atom_site_label_2
_geom_bond_distance
_ccdc_geom_bond_type
C47   H12   1.080181 S    
C59   N23   1.436002 S    
C39   C41   1.402232 A    
N33   O33   1.299595 A    
C15   C17   1.382180 A    
N12   Ni2   1.858468 S    
N3    N13   1.390660 A    
C67   C68   1.457708 S    
C4    H18   1.080233 S    
C57   N29   1.430819 S    
N21   O10   1.301211 A    
N20   O8    1.301395 A    
N10   Ni1   1.848581 S    
C1    C17   1.377108 A    
N23   O13   1.301373 A    
C13   H25   1.074481 S    
C2    H10   1.078594 S    
C23   C40   1.447105 S    
N27   O22   1.301438 A    
C14   H26   1.079383 S    
N24   O15   1.301063 A    
C24   C39   1.429994 S    
N15   Ni3   1.855132 S    
N28   O24   1.300724 A    
N7    Ni4   1.855718 S    
C1    N1    1.332959 A    
N31   O30   1.300694 A    
C37   C42   1.364720 A    
C49   C59   1.413916 A    
C52   H8    1.082754 S    
N23   O14   1.296488 A    
N31   O29   1.301394 A    
N18   O3    1.301535 A    
C44   N21   1.441400 S    
C31   N19   1.445301 S    
N29   O25   1.299615 A    
C22   C64   1.502543 S    
C11   H23   1.073929 S    
C38   H4    1.083365 S    
H5    C46   1.085509 S    
C25   H1    1.081400 S    
C61   C66   1.406242 A    
C43   C45   1.344721 D    
C16   H28   1.078293 S    
C60   N24   1.433389 S    
C9    H21   1.073033 S    
C10   H22   1.074408 S    
N13   Ni4   1.852747 S    
N22   O12   1.301202 A    
C27   C29   1.411354 A    
C68   H29   1.085344 S    
C28   C30   1.421709 A    
N5    Ni3   1.852892 S    
C36   H14   1.079473 S    
C8    N8    1.321463 A    
C51   C53   1.394967 A    
C61   C63   1.394409 A    
C67   H30   1.084317 S    
C50   C60   1.416796 A    
C10   N10   1.333897 A    
N9    Ni2   1.848580 S    
C2    C18   1.389148 A    
N7    N11   1.371767 A    
N8    N12   1.371765 A    
C54   C65   1.492092 S    
C26   C36   1.391313 A    
C56   N28   1.434237 S    
C58   N30   1.434010 S    
C7    N33   1.423563 S    
N20   O7    1.300433 A    
C53   C55   1.418305 A    
C49   N25   1.434150 S    
N30   O28   1.300652 A    
C31   C33   1.406629 A    
C34   H16   1.083005 S    
C25   C35   1.391924 A    
C26   H2    1.082838 S    
C37   H3    1.087208 S    
C16   C18   1.388898 A    
C57   C59   1.413362 A    
C48   C68   1.336838 D    
N4    Ni1   1.858067 S    
C62   N32   1.433086 S    
C48   H11   1.086409 S    
C6    H20   1.058714 S    
C3    N3    1.339507 A    
C50   N26   1.441089 S    
C4    N4    1.339731 A    
C8    N34   1.437694 S    
C29   C31   1.425654 A    
C29   C42   1.485244 S    
C40   C42   1.417690 A    
C2    N2    1.333324 A    
N3    Ni2   1.858071 S    
C63   C65   1.391769 A    
C5    N5    1.334108 A    
C52   C54   1.398651 A    
C62   C64   1.429374 A    
C11   C23   1.370954 A    
C7    N7    1.340521 A    
C25   C27   1.397396 A    
C12   C24   1.378254 A    
N6    N10   1.371765 A    
C5    C21   1.389913 A    
N16   Ni4   1.855132 S    
C51   H7    1.083439 S    
C32   N20   1.431852 S    
N17   O2    1.297566 A    
C33   C35   1.392703 A    
C9    C21   1.388383 A    
N28   O23   1.300373 A    
N1    N15   1.390661 A    
C49   C51   1.391179 A    
N8    Ni3   1.855718 S    
C5    H19   1.071151 S    
N2    N16   1.390662 A    
C6    N6    1.325960 A    
C13   C19   1.377421 A    
C17   C47   1.460953 S    
C20   C44   1.473267 S    
C18   C48   1.462022 S    
C38   C41   1.398736 A    
C54   C56   1.414196 A    
C11   N11   1.327245 A    
N4    N14   1.390663 A    
C12   N12   1.339517 A    
C3    H17   1.080311 S    
C47   C67   1.337280 D    
C1    H9    1.080308 S    
N25   O17   1.298522 A    
C55   N27   1.441479 S    
N22   O11   1.300457 A    
C62   C65   1.396727 A    
N30   O27   1.300913 A    
N32   O32   1.301135 A    
C14   C20   1.385415 A    
N29   O26   1.300033 A    
N1    Ni1   1.848136 S    
N24   O16   1.301295 A    
C43   N22   1.438364 S    
C55   C57   1.413706 A    
C14   N14   1.338407 A    
C50   C52   1.403729 A    
N25   O18   1.301213 A    
C27   N17   1.428569 S    
N26   O20   1.301842 A    
C32   C34   1.401772 A    
N26   O19   1.299898 A    
C13   N13   1.342948 A    
C35   H13   1.081921 S    
N27   O21   1.300455 A    
C26   C28   1.402977 A    
N14   Ni3   1.852747 S    
C37   C39   1.384534 A    
N11   Ni1   1.858468 S    
C38   C40   1.407472 A    
C6    C22   1.390923 A    
N34   O35   1.299266 A    
C4    C20   1.398372 A    
N19   O6    1.300538 A    
C10   C22   1.400944 A    
C45   C46   1.466952 S    
C15   N15   1.341470 A    
N21   O9    1.300914 A    
C16   N16   1.342949 A    
C53   C66   1.479325 S    
C33   H15   1.082768 S    
C64   C66   1.441805 A    
N2    Ni2   1.848137 S    
H6    C45   1.082467 S    
C3    C19   1.385649 A    
C61   N31   1.442764 S    
C9    N9    1.330170 A    
C34   C36   1.390936 A    
C30   C32   1.416854 A    
C58   C60   1.408484 A    
N5    N9    1.371765 A    
N18   O4    1.301851 A    
C7    C23   1.394252 A    
N6    Ni4   1.852893 S    
C8    C24   1.367597 A    
C12   H24   1.080859 S    
N32   O31   1.300912 A    
C19   C43   1.473309 S    
N33   O34   1.299160 A    
N17   O1    1.300753 A    
C28   N18   1.439083 S    
C56   C58   1.408894 A    
C44   C46   1.344417 D    
C15   H27   1.072312 S    
N19   O5    1.299771 A    
C30   C41   1.487800 S    
C21   C63   1.468604 S    
N34   O36   1.299892 A    
