data_mof_unit_34723.cif
_audit_creation_date              2012-12-11T14:28:23-0500
_audit_creation_method            fapswitch 2.2
_symmetry_space_group_name_H-M    P1
_symmetry_Int_Tables_number       1
_space_group_crystal_system       triclinic
_cell_length_a                    11.496819
_cell_length_b                    19.372384
_cell_length_c                    18.584491
_cell_angle_alpha                 89.429206
_cell_angle_beta                  90.137055
_cell_angle_gamma                 89.91561
_cell_volume                      4138.93068918

loop_
_atom_site_label
_atom_site_type_symbol
_atom_type_description
_atom_site_fract_x
_atom_site_fract_y
_atom_site_fract_z
_atom_type_partial_charge
C1    C     C_R   0.318803 0.968185 0.646697 0.532918
C2    C     C_3   0.166222 0.717173 0.028646 -0.117028
C3    C     C_3   0.042292 0.197629 0.975623 -0.112017
C4    C     C_3   0.559832 0.310640 0.470019 -0.121930
C5    C     C_3   0.548102 0.306645 0.024066 -0.116975
C6    C     C_3   0.554218 0.689716 0.528418 -0.121467
C7    C     C_3   0.543366 0.696871 0.975876 -0.116107
C8    C     C_3   0.173879 0.792037 0.507082 -0.116734
C9    C     C_3   0.163473 0.786385 0.987163 -0.109661
C10   C     C_3   0.173313 0.205338 0.493294 -0.116140
C11   C     C_3   0.160744 0.216131 0.009506 -0.112054
C12   C     C_3   0.675877 0.291755 0.507025 -0.115557
C13   C     C_3   0.180697 0.273585 0.535297 -0.124245
C14   C     C_3   0.663483 0.287071 0.987471 -0.110740
C15   C     C_3   0.672226 0.705931 0.492990 -0.116062
C16   C     C_3   0.660482 0.715884 0.010796 -0.110892
C17   C     C_3   0.105718 0.754997 0.567177 0.050945
C18   C     C_3   0.091984 0.750589 0.928472 0.055455
C19   C     C_3   0.107367 0.244493 0.433348 0.054841
C20   C     C_3   0.094260 0.249085 0.071882 0.055881
C21   C     C_3   0.606064 0.255642 0.566995 0.051132
C22   C     C_3   0.593081 0.250565 0.928741 0.056735
C23   C     C_3   0.606596 0.745236 0.433035 0.054875
C24   C     C_3   0.159417 0.287333 0.971474 -0.105664
C25   C     C_3   0.592298 0.749533 0.071966 0.054178
C26   C     C_3   0.989937 0.773476 0.532272 -0.122910
C27   C     C_3   0.977917 0.771967 0.963646 -0.112243
C28   C     C_3   0.990470 0.227048 0.467203 -0.119794
C29   C     C_3   0.977128 0.229630 0.040054 -0.119077
C30   C     C_3   0.491180 0.275431 0.531610 -0.121655
C31   C     C_3   0.478378 0.271085 0.963581 -0.111767
C32   C     C_3   0.489556 0.727957 0.466779 -0.122036
C33   C     C_3   0.476122 0.729732 0.038940 -0.117361
C34   C     C_3   0.995185 0.704533 0.491255 -0.102603
C35   C     C_3   0.679538 0.222487 0.466647 -0.122512
C36   C     C_3   0.980138 0.702836 0.006382 -0.131019
C37   C     C_3   0.997971 0.295408 0.509359 -0.101160
C38   C     C_3   0.975514 0.300820 0.001290 -0.141427
C39   C     C_3   0.494634 0.206285 0.490852 -0.102550
C40   C     C_3   0.481888 0.202083 0.006483 -0.131624
C41   C     C_3   0.497190 0.796236 0.509099 -0.099695
C42   C     C_3   0.475580 0.800323 0.998792 -0.131126
C43   C     C_3   0.111612 0.686868 0.527181 -0.105430
C44   C     C_3   0.094512 0.682725 0.969295 -0.124429
C45   C     C_3   0.115561 0.311776 0.474811 -0.104792
C46   C     C_3   0.667441 0.218007 0.029206 -0.117571
C47   C     C_3   0.093154 0.318853 0.034897 -0.117346
C48   C     C_3   0.610149 0.187407 0.527223 -0.108417
C49   C     C_3   0.596989 0.182779 0.969789 -0.123398
C50   C     C_3   0.614920 0.812528 0.474614 -0.104266
C51   C     C_3   0.591958 0.818810 0.033999 -0.117578
C52   C     C_3   0.913380 0.955192 0.629608 -0.019408
C53   C     C_3   0.792965 0.928130 0.650017 -0.365871
C54   C     C_3   0.955155 0.985720 0.854369 -0.021634
C55   C     C_3   0.842062 0.958695 0.826215 -0.380197
C56   C     C_3   0.916302 0.015852 0.354959 -0.030112
C57   C     C_3   0.679675 0.774083 0.535070 -0.124484
C58   C     C_3   0.806272 0.058828 0.340420 -0.367327
C59   C     C_3   0.947398 0.013262 0.137739 -0.034526
C60   C     C_3   0.837674 0.046679 0.162797 -0.392693
C61   C     C_3   0.413963 0.463381 0.634121 -0.020286
C62   C     C_3   0.293367 0.441210 0.658391 -0.375180
C63   C     C_3   0.450850 0.486890 0.855831 -0.030761
C64   C     C_3   0.343129 0.449477 0.834380 -0.382559
C65   C     C_3   0.414901 0.531620 0.363390 -0.018044
C66   C     C_3   0.294858 0.552501 0.337702 -0.386989
C67   C     C_3   0.444429 0.506705 0.139515 -0.042842
C68   C     C_3   0.660441 0.786564 0.971949 -0.111317
C69   C     C_3   0.339252 0.545548 0.162142 -0.391071
C70   C     C_3   0.063781 0.741276 0.431227 0.052881
C71   C     C_3   0.053194 0.738531 0.065029 0.044830
C72   C     C_3   0.064302 0.256855 0.569479 0.049763
C73   C     C_R   0.322959 0.968191 0.853262 0.538591
C74   C     C_3   0.041977 0.268031 0.938546 0.044622
C75   C     C_3   0.564916 0.241948 0.430884 0.053647
C76   C     C_3   0.553688 0.238541 0.065174 0.044136
C77   C     C_3   0.563232 0.757434 0.569138 0.050841
C78   C     C_3   0.544737 0.766525 0.937506 0.044794
C79   C     C_R   0.324833 0.995437 0.424538 0.003943
C80   C     C_R   0.340066 0.998298 0.075486 -0.019479
C81   C     C_R   0.322824 0.004759 0.575871 -0.031126
C82   C     C_R   0.343572 0.003770 0.923116 -0.015241
C83   C     C_R   0.824042 0.495613 0.424702 0.003195
C84   C     C_R   0.319525 0.031599 0.353344 0.569138
C85   C     C_R   0.839789 0.498346 0.075503 -0.019477
C86   C     C_R   0.823147 0.504982 0.575931 -0.031720
C87   C     C_R   0.842852 0.503699 0.923159 -0.015285
C88   C     C_R   0.535959 0.979573 0.429022 0.102222
C89   C     C_R   0.558882 0.994188 0.076441 0.068521
C90   C     C_R   0.535785 0.021816 0.573706 0.107179
C91   C     C_R   0.567092 0.012805 0.930831 0.058804
C92   C     C_R   0.035110 0.478137 0.429136 0.099879
C93   C     C_R   0.058555 0.494805 0.076331 0.069434
C94   C     C_R   0.035663 0.521436 0.573404 0.106331
C95   C     C_R   0.322059 0.032042 0.146480 0.547087
C96   C     C_R   0.066394 0.513068 0.930798 0.059660
C97   C     C_R   0.637298 0.987901 0.467121 -0.165324
C98   C     C_R   0.654119 0.975903 0.037742 -0.119137
C99   C     C_R   0.637026 0.014781 0.535252 -0.125370
C100  C     C_R   0.663404 0.012456 0.975167 -0.097632
C101  C     C_R   0.136596 0.485276 0.467289 -0.165025
C102  C     C_R   0.153549 0.476347 0.037615 -0.121214
C103  C     C_R   0.136676 0.513370 0.534785 -0.123155
C104  C     C_R   0.162648 0.512937 0.975078 -0.098300
C105  C     C_R   0.428911 0.007161 0.538875 0.000026
C106  C     C_R   0.818891 0.468248 0.646763 0.533732
C107  C     C_R   0.452698 0.001453 0.961880 0.006827
C108  C     C_R   0.429657 0.994288 0.463044 0.029026
C109  C     C_R   0.449550 0.998312 0.039120 -0.003532
C110  C     C_R   0.928699 0.506746 0.538627 0.000237
C111  C     C_R   0.952045 0.501579 0.961864 0.005852
C112  C     C_R   0.929003 0.493629 0.462871 0.029768
C113  C     C_R   0.949095 0.498513 0.039066 -0.003659
C114  C     C_R   0.218463 0.007704 0.536183 -0.050201
C115  C     C_R   0.243506 0.014461 0.963144 -0.056389
C116  C     C_R   0.220430 0.990294 0.463059 -0.057121
C117  C     C_R   0.822825 0.468216 0.853245 0.537091
C118  C     C_R   0.241252 0.990992 0.033568 -0.054276
C119  C     C_R   0.718806 0.508797 0.536726 -0.050295
C120  C     C_R   0.742508 0.514000 0.963251 -0.055539
C121  C     C_R   0.719518 0.491550 0.463467 -0.057926
C122  C     C_R   0.740827 0.490790 0.033767 -0.053707
C123  C     C_R   0.110374 0.021155 0.567972 -0.126604
C124  C     C_R   0.141028 0.037400 0.931371 -0.134261
C125  C     C_R   0.116162 0.972836 0.429217 -0.136391
C126  C     C_R   0.136839 0.969524 0.062954 -0.138721
C127  C     C_R   0.611906 0.523298 0.569048 -0.126437
C128  C     C_R   0.819393 0.531621 0.353362 0.569009
C129  C     C_R   0.639402 0.536429 0.931704 -0.137154
C130  C     C_R   0.614026 0.475586 0.430156 -0.130160
C131  C     C_R   0.636902 0.468863 0.063387 -0.139312
C132  C     C_R   0.006523 0.004588 0.533315 0.293238
C133  C     C_R   0.034604 0.018258 0.961145 0.294218
C134  C     C_R   0.009244 0.986666 0.461027 0.291299
C135  C     C_R   0.032142 0.989038 0.030257 0.294044
C136  C     C_R   0.507035 0.507423 0.535351 0.289757
C137  C     C_R   0.533330 0.517415 0.962162 0.296019
C138  C     C_R   0.508118 0.489741 0.462894 0.287733
C139  C     C_R   0.822006 0.532065 0.146486 0.547387
C140  C     C_R   0.531746 0.488045 0.031143 0.298315
C141  C     C_R   0.139366 0.759422 0.642324 0.549964
C142  C     C_R   0.133579 0.757415 0.855032 0.542096
C143  C     C_R   0.140336 0.240419 0.357978 0.548304
C144  C     C_R   0.135765 0.241944 0.144534 0.548280
C145  C     C_R   0.639443 0.259533 0.642260 0.551095
C146  C     C_R   0.634037 0.257494 0.855213 0.541651
C147  C     C_R   0.639882 0.740640 0.357787 0.546939
C148  C     C_R   0.634688 0.742252 0.144790 0.546402
C149  C     C_R   0.537847 0.770930 0.644022 0.548389
C150  C     C_3   0.179274 0.722943 0.466477 -0.123088
C151  C     C_R   0.521759 0.777852 0.861574 0.552600
C152  C     C_R   0.538460 0.229096 0.355891 0.547856
C153  C     C_R   0.533755 0.227594 0.142065 0.546167
C154  C     C_R   0.038284 0.270726 0.644211 0.551538
C155  C     C_R   0.009721 0.283088 0.864742 0.544936
C156  C     C_R   0.037876 0.728820 0.356126 0.548386
C157  C     C_R   0.033747 0.727619 0.142030 0.546438
C158  C     C_3   0.056891 0.809745 0.470631 -0.123054
C159  C     C_3   0.048797 0.806798 0.024110 -0.117585
C160  C     C_3   0.055448 0.189019 0.528888 -0.118296
Cr1   Cr    Cr6+3 0.488160 0.884660 0.750000 0.963106
Cr2   Cr    Cr6+3 0.333410 0.272740 0.250000 1.018601
Cr3   Cr    Cr6+3 0.833410 0.227260 0.750000 1.034498
Cr4   Cr    Cr6+3 0.833410 0.772740 0.250000 1.017664
Cr5   Cr    Cr6+3 0.488160 0.115340 0.250000 0.967172
Cr6   Cr    Cr6+3 0.988160 0.384660 0.750000 0.962124
Cr7   Cr    Cr6+3 0.988160 0.615340 0.250000 0.964866
Cr8   Cr    Cr6+3 0.173480 0.883120 0.750000 0.956898
Cr9   Cr    Cr6+3 0.173480 0.116880 0.250000 0.959711
Cr10  Cr    Cr6+3 0.673480 0.383120 0.750000 0.956048
Cr11  Cr    Cr6+3 0.673480 0.616880 0.250000 0.962263
Cr12  Cr    Cr6+3 0.333410 0.727260 0.750000 1.035394
H1    H     H_    0.241978 0.830912 0.516495 0.113622
H2    H     H_    0.025687 0.854793 0.051832 0.148153
H3    H     H_    0.515092 0.545485 0.144160 0.185942
H4    H     H_    0.461006 0.462591 0.177372 0.130464
H5    H     H_    0.275859 0.507222 0.183030 0.130675
H6    H     H_    0.364417 0.582838 0.203625 0.093629
H7    H     H_    0.306733 0.576553 0.115889 0.206607
H8    H     H_    0.584493 0.990917 0.325672 0.241256
H9    H     H_    0.595235 0.910274 0.354471 0.228121
H10   H     H_    0.556707 0.096199 0.085341 0.289329
H11   H     H_    0.605943 0.049160 0.168191 0.282290
H12   H     H_    0.579474 0.014828 0.679602 0.245305
H13   H     H_    0.026750 0.141589 0.556890 0.138939
H14   H     H_    0.465533 0.068694 0.663982 0.232985
H15   H     H_    0.589959 0.928291 0.878287 0.308161
H16   H     H_    0.584027 0.009059 0.814041 0.251924
H17   H     H_    0.082419 0.490620 0.325575 0.241433
H18   H     H_    0.094532 0.409780 0.353731 0.227947
H19   H     H_    0.055253 0.596900 0.084567 0.288547
H20   H     H_    0.105892 0.550673 0.167376 0.284009
H21   H     H_    0.075769 0.515291 0.679738 0.245882
H22   H     H_    0.965441 0.570758 0.661894 0.231546
H23   H     H_    0.090351 0.428555 0.878212 0.305933
H24   H     H_    0.018550 0.150851 0.945875 0.159992
H25   H     H_    0.083862 0.509525 0.814018 0.251729
H26   H     H_    0.531969 0.356772 0.440067 0.143748
H27   H     H_    0.523876 0.354307 0.051887 0.151194
H28   H     H_    0.524653 0.642597 0.556538 0.142334
H29   H     H_    0.518816 0.650106 0.946523 0.158264
H30   H     H_    0.924650 0.798923 0.565505 0.100239
H31   H     H_    0.908801 0.796488 0.931088 0.105372
H32   H     H_    0.924603 0.203447 0.432724 0.108341
H33   H     H_    0.231784 0.823509 0.974217 0.113160
H34   H     H_    0.914448 0.203283 0.075475 0.106975
H35   H     H_    0.426298 0.302597 0.563823 0.102963
H36   H     H_    0.409039 0.294862 0.930643 0.106730
H37   H     H_    0.423800 0.704727 0.432020 0.102859
H38   H     H_    0.412365 0.704080 0.074140 0.107266
H39   H     H_    0.926644 0.665953 0.481706 0.110376
H40   H     H_    0.911787 0.664576 0.016566 0.100424
H41   H     H_    0.930179 0.334805 0.518454 0.113745
H42   H     H_    0.908560 0.341075 0.996256 0.102564
H43   H     H_    0.425621 0.168144 0.481078 0.110291
H44   H     H_    0.240267 0.165824 0.483791 0.110484
H45   H     H_    0.413834 0.163586 0.016641 0.100986
H46   H     H_    0.428947 0.835400 0.518196 0.113421
H47   H     H_    0.408846 0.840639 0.993091 0.104937
H48   H     H_    0.136941 0.640107 0.556437 0.174691
H49   H     H_    0.113182 0.635879 0.938868 0.152788
H50   H     H_    0.148393 0.358768 0.450338 0.138075
H51   H     H_    0.110553 0.361783 0.070946 0.141469
H52   H     H_    0.633481 0.140712 0.557136 0.173758
H53   H     H_    0.617389 0.135798 0.939910 0.153008
H54   H     H_    0.648348 0.860064 0.451405 0.138612
H55   H     H_    0.231327 0.178580 0.016727 0.111015
H56   H     H_    0.608028 0.861789 0.070229 0.139905
H57   H     H_    0.245786 0.696673 0.434593 0.115564
H58   H     H_    0.234770 0.688677 0.057686 0.124177
H59   H     H_    0.248015 0.297589 0.568482 0.112255
H60   H     H_    0.227739 0.315102 0.941410 0.117856
H61   H     H_    0.746053 0.195486 0.435393 0.113078
H62   H     H_    0.736258 0.190442 0.058889 0.122882
H63   H     H_    0.746896 0.797942 0.568307 0.108993
H64   H     H_    0.727955 0.815484 0.942304 0.117175
H65   H     H_    0.716364 0.972162 0.443397 0.207815
H66   H     H_    0.744447 0.330223 0.516647 0.113069
H67   H     H_    0.732012 0.960688 0.065426 0.205842
H68   H     H_    0.715896 0.032049 0.559353 0.217129
H69   H     H_    0.746867 0.020955 0.952651 0.235059
H70   H     H_    0.215867 0.468915 0.444215 0.206170
H71   H     H_    0.231458 0.461431 0.065350 0.207632
H72   H     H_    0.215747 0.531085 0.558192 0.219048
H73   H     H_    0.245908 0.521998 0.952633 0.236362
H74   H     H_    0.116802 0.950516 0.376046 0.131035
H75   H     H_    0.136453 0.943187 0.114690 0.121740
H76   H     H_    0.105207 0.042853 0.621579 0.134328
H77   H     H_    0.731286 0.324612 0.974660 0.111831
H78   H     H_    0.143238 0.062980 0.879268 0.126465
H79   H     H_    0.613078 0.453307 0.377002 0.133652
H80   H     H_    0.637243 0.442277 0.114991 0.120501
H81   H     H_    0.608834 0.545453 0.622514 0.132004
H82   H     H_    0.640583 0.561710 0.879428 0.126394
H83   H     H_    0.953530 0.981904 0.677667 0.127698
H84   H     H_    0.967130 0.908418 0.615320 0.154471
H85   H     H_    0.738550 0.918819 0.602016 0.184432
H86   H     H_    0.800394 0.877147 0.677201 0.116333
H87   H     H_    0.751086 0.966208 0.686668 0.125083
H88   H     H_    0.739831 0.666769 0.483509 0.110690
H89   H     H_    0.011935 0.938306 0.862418 0.183495
H90   H     H_    0.992731 0.022018 0.812541 0.134308
H91   H     H_    0.789099 0.004447 0.807414 0.171455
H92   H     H_    0.860458 0.924046 0.780502 0.087496
H93   H     H_    0.800450 0.926386 0.869427 0.180790
H94   H     H_    0.929175 0.976256 0.311472 0.123785
H95   H     H_    0.990165 0.053679 0.351871 0.164242
H96   H     H_    0.759177 0.070514 0.390523 0.183191
H97   H     H_    0.828013 0.110735 0.317654 0.110077
H98   H     H_    0.751103 0.029985 0.301132 0.097938
H99   H     H_    0.730172 0.678113 0.019064 0.112585
H100  H     H_    0.012942 0.056125 0.137780 0.186195
H101  H     H_    0.973314 0.971233 0.176809 0.125790
H102  H     H_    0.777837 0.004685 0.180997 0.135167
H103  H     H_    0.857513 0.082216 0.207278 0.095176
H104  H     H_    0.803407 0.079264 0.117884 0.203776
H105  H     H_    0.457477 0.491309 0.679643 0.127828
H106  H     H_    0.463234 0.414930 0.621573 0.155089
H107  H     H_    0.238528 0.426165 0.612578 0.183274
H108  H     H_    0.298258 0.394370 0.692210 0.114883
H109  H     H_    0.254369 0.484640 0.688987 0.127367
H110  H     H_    0.027039 0.855410 0.440671 0.149282
H111  H     H_    0.517231 0.445287 0.859652 0.188898
H112  H     H_    0.474426 0.525133 0.813012 0.131029
H113  H     H_    0.285085 0.487746 0.808125 0.165299
H114  H     H_    0.366418 0.408473 0.796309 0.093914
H115  H     H_    0.304136 0.423686 0.882141 0.183229
H116  H     H_    0.459644 0.504364 0.318359 0.130105
H117  H     H_    0.461659 0.580445 0.376020 0.155654
H118  H     H_    0.238152 0.565923 0.382932 0.181341
H119  H     H_    0.298087 0.600557 0.305736 0.114044
H120  H     H_    0.260067 0.509250 0.305188 0.111094
N1    N     N_3   0.541516 0.953774 0.356969 -0.610354
N2    N     N_3   0.599140 0.054963 0.111473 -0.618526
N3    N     N_3   0.545445 0.051815 0.644117 -0.638768
N4    N     N_3   0.604744 0.980905 0.863540 -0.641339
N5    N     N_3   0.040291 0.452990 0.356754 -0.611536
N6    N     N_3   0.098994 0.556044 0.110604 -0.618440
N7    N     N_3   0.045153 0.552549 0.643201 -0.639880
N8    N     N_3   0.104414 0.481295 0.863539 -0.640380
O1    O     O_R   0.575450 0.828820 0.667950 -0.531063
O2    O     O_R   0.416860 0.942890 0.825320 -0.519898
O3    O     O_R   0.416860 0.057110 0.325320 -0.484062
O4    O     O_R   0.416860 0.057110 0.174680 -0.516730
O5    O     O_R   0.916860 0.442890 0.674680 -0.504730
O6    O     O_R   0.916860 0.442890 0.825320 -0.523463
O7    O     O_R   0.916860 0.557110 0.325320 -0.485491
O8    O     O_R   0.916860 0.557110 0.174680 -0.517289
O9    O     O_R   0.213790 0.953680 0.668330 -0.541125
O10   O     O_R   0.213790 0.953680 0.831670 -0.549320
O11   O     O_R   0.213790 0.046320 0.331670 -0.553178
O12   O     O_R   0.575450 0.828820 0.832050 -0.560269
O13   O     O_R   0.213790 0.046320 0.168330 -0.549611
O14   O     O_R   0.713790 0.453680 0.668330 -0.540183
O15   O     O_R   0.713790 0.453680 0.831670 -0.551220
O16   O     O_R   0.713790 0.546320 0.331670 -0.548873
O17   O     O_R   0.713790 0.546320 0.168330 -0.549479
O18   O     O_R   0.121360 0.817890 0.672660 -0.528186
O19   O     O_R   0.121360 0.817890 0.827340 -0.526256
O20   O     O_R   0.121360 0.182110 0.327340 -0.520409
O21   O     O_R   0.121360 0.182110 0.172660 -0.523440
O22   O     O_R   0.621360 0.317890 0.672660 -0.525953
O23   O     O_R   0.575450 0.171180 0.332050 -0.533072
O24   O     O_R   0.621360 0.317890 0.827340 -0.524707
O25   O     O_R   0.621360 0.682110 0.327340 -0.523190
O26   O     O_R   0.621360 0.682110 0.172660 -0.519060
O27   O     O_R   0.206850 0.711370 0.665820 -0.510922
O28   O     O_R   0.206850 0.711370 0.834180 -0.518182
O29   O     O_R   0.206850 0.288630 0.334180 -0.533722
O30   O     O_R   0.206850 0.288630 0.165820 -0.527973
O31   O     O_R   0.706850 0.211370 0.665820 -0.511878
O32   O     O_R   0.706850 0.211370 0.834180 -0.521350
O33   O     O_R   0.706850 0.788630 0.334180 -0.532404
O34   O     O_R   0.575450 0.171180 0.167950 -0.555890
O35   O     O_R   0.706850 0.788630 0.165820 -0.527615
O36   O     O_R   0.457710 0.733190 0.672630 -0.507598
O37   O     O_R   0.457710 0.733190 0.827370 -0.503630
O38   O     O_R   0.457710 0.266810 0.327370 -0.508337
O39   O     O_R   0.457710 0.266810 0.172630 -0.505958
O40   O     O_R   0.957710 0.233190 0.672630 -0.506486
O41   O     O_R   0.957710 0.233190 0.827370 -0.497516
O42   O     O_R   0.957710 0.766810 0.327370 -0.508882
O43   O     O_R   0.957710 0.766810 0.172630 -0.505356
O44   O     O_3   0.331690 0.831680 0.750000 -0.273514
O45   O     O_R   0.075450 0.328820 0.667950 -0.528450
O46   O     O_3   0.331690 0.168320 0.250000 -0.272555
O47   O     O_3   0.831690 0.331680 0.750000 -0.278206
O48   O     O_3   0.831690 0.668320 0.250000 -0.272029
O49   O     O_3   0.903295 0.003107 0.570840 -0.581321
O50   O     O_3   0.935093 0.021716 0.919756 -0.583375
O51   O     O_3   0.907123 0.980747 0.422495 -0.581345
O52   O     O_3   0.929279 0.985469 0.067998 -0.582150
O53   O     O_3   0.404267 0.508226 0.573239 -0.580955
O54   O     O_3   0.433118 0.521578 0.921800 -0.583895
O55   O     O_3   0.405983 0.486918 0.424162 -0.580442
O56   O     O_R   0.075450 0.328820 0.832050 -0.553819
O57   O     O_3   0.428754 0.482116 0.068382 -0.582912
O58   O     O_R   0.075450 0.671180 0.332050 -0.536445
O59   O     O_R   0.075450 0.671180 0.167950 -0.556343
O60   O     O_R   0.416860 0.942890 0.674680 -0.503906

loop_
_geom_bond_atom_site_label_1
_geom_bond_atom_site_label_2
_ccdc_geom_bond_type
C64   H113  S    
C6    C32   S    
Cr3   O40   S    
C60   H103  S    
H8    N1    S    
Cr5   O34   S    
C20   C144  S    
C55   H93   S    
C83   C128  S    
C41   H46   S    
C124  C133  A    
C45   H50   S    
C86   C110  A    
Cr12  O28   S    
C138  O55   S    
C88   C108  A    
C76   C153  S    
Cr8   O9    S    
C61   H106  S    
Cr10  O22   S    
C56   H95   S    
C131  C140  A    
C61   O53   S    
C70   C150  S    
C78   C151  S    
C86   C119  A    
C91   C100  A    
C4    C12   S    
Cr1   O1    S    
C88   C97   A    
C36   C71   S    
C21   C48   S    
Cr10  O14   S    
C12   H66   S    
C59   C60   S    
C101  C103  A    
C7    C33   S    
C125  H74   S    
Cr5   O46   S    
C38   H42   S    
C57   H63   S    
Cr1   O44   S    
C71   C157  S    
C137  C140  A    
C11   C20   S    
C72   C154  S    
C91   C107  A    
C127  C136  A    
C5    H27   S    
C98   H67   S    
C40   C76   S    
C28   H32   S    
C8    C150  S    
C17   C43   S    
C18   C44   S    
C69   H6    S    
Cr5   O3    S    
C67   H4    S    
C115  C118  A    
C111  C113  A    
H14   N3    S    
C148  O26   A    
C36   H40   S    
C22   C49   S    
C99   H68   S    
C149  O1    A    
C96   C104  A    
C27   C36   S    
Cr3   O32   S    
C50   H54   S    
C37   C45   S    
C2    C71   S    
C130  C138  A    
C10   C160  S    
C16   H99   S    
C16   C25   S    
C47   H51   S    
C53   H86   S    
C50   C57   S    
C90   C105  A    
C13   C72   S    
C97   H65   S    
C58   H98   S    
C8    C17   S    
C39   H43   S    
C92   N5    S    
C5    C76   S    
C7    H29   S    
C13   C45   S    
C32   H37   S    
C30   H35   S    
C143  O29   A    
C79   C108  A    
C26   C158  S    
C147  O25   A    
C20   C47   S    
C3    C11   S    
H22   N7    S    
C158  H110  S    
C129  C137  A    
C117  O6    A    
Cr11  O17   S    
C132  C134  A    
C51   H56   S    
C133  C135  A    
C83   C112  A    
H11   N2    S    
C139  O17   A    
C123  C132  A    
C43   H48   S    
C62   H109  S    
C121  C130  A    
Cr8   O44   S    
C140  O57   S    
C14   H77   S    
C130  H79   S    
Cr3   O41   S    
C1    O60   A    
C60   H102  S    
C27   H31   S    
C33   C42   S    
C46   H62   S    
H9    N1    S    
C52   H83   S    
C82   C115  A    
C79   C84   S    
C89   N2    S    
C157  O43   A    
Cr2   O29   S    
C27   C159  S    
C40   C49   S    
C91   N4    S    
C28   C160  S    
C88   N1    S    
C153  O39   A    
C124  H78   S    
C144  O21   A    
C22   C146  S    
C2    C44   S    
C29   C38   S    
Cr7   O7    S    
C32   C41   S    
C137  O54   S    
C39   C75   S    
Cr1   O60   S    
C56   H94   S    
C4    H26   S    
C133  O50   S    
Cr6   O5    S    
C86   C106  S    
C160  H13   S    
C144  O30   A    
H12   N3    S    
C63   H112  S    
Cr7   O8    S    
Cr4   O33   S    
C119  C121  A    
H20   N6    S    
C96   C111  A    
C81   C105  A    
C146  O24   A    
C120  C129  A    
C155  O41   A    
H19   N6    S    
C139  O8    A    
C48   H52   S    
C152  O23   A    
C141  O18   A    
C3    C74   S    
Cr10  O24   S    
C19   C28   S    
C33   H38   S    
Cr4   O48   S    
C103  H72   S    
Cr11  O25   S    
C12   C35   S    
C101  H70   S    
H16   N4    S    
C43   C150  S    
C114  C123  A    
C66   H119  S    
C116  C125  A    
C155  O56   A    
C62   H107  S    
C49   H53   S    
C153  O34   A    
C90   C99   A    
Cr12  O36   S    
C52   C53   S    
C117  O15   A    
C54   C55   S    
C141  O27   A    
C126  H75   S    
C127  H81   S    
C54   H89   S    
C61   H105  S    
Cr6   O47   S    
C34   C43   S    
C114  C116  A    
C19   C45   S    
C80   C95   S    
C90   N3    S    
C89   C98   A    
C14   C22   S    
C85   C113  A    
C10   H44   S    
C28   C37   S    
C56   C58   S    
C59   H100  S    
Cr8   O10   S    
C156  O42   A    
C61   C62   S    
C110  C112  A    
C2    H58   S    
C63   C64   S    
C9    C18   S    
Cr7   O58   S    
C11   H55   S    
C154  O40   A    
C148  O35   A    
C2    C9    S    
C142  O28   A    
C84   O11   A    
C15   H88   S    
C25   C33   S    
Cr4   O35   S    
C119  C127  A    
C125  C134  A    
C40   H45   S    
C122  C131  A    
Cr11  O48   S    
C8    C158  S    
C14   C46   S    
Cr10  O15   S    
C46   C49   S    
C53   H87   S    
C149  O36   A    
C87   C117  S    
C38   C74   S    
C123  H76   S    
C87   C111  A    
C1    C81   S    
C31   C40   S    
C17   C141  S    
C134  O51   S    
C145  O31   A    
C4    C75   S    
Cr2   O38   S    
C69   H5    S    
C67   H3    S    
C159  H2    S    
C80   C109  A    
Cr9   O21   S    
C35   H61   S    
C60   H104  S    
C34   C70   S    
C135  O52   S    
C107  C109  A    
Cr6   O45   S    
Cr3   O31   S    
C145  O22   A    
Cr8   O19   S    
H10   N2    S    
C35   C48   S    
C37   H41   S    
C68   C78   S    
C80   C118  A    
C54   O50   S    
C53   H85   S    
C63   H111  S    
C57   C77   S    
C157  O59   A    
Cr12  O27   S    
C42   H47   S    
C77   C149  S    
C147  O33   A    
C92   C112  A    
C23   C50   S    
C23   C147  S    
C94   C110  A    
C70   C158  S    
C21   C145  S    
C143  O20   A    
C10   C19   S    
Cr1   O12   S    
C85   C122  A    
C93   C113  A    
Cr1   O2    S    
C5    C14   S    
C92   C101  A    
H21   N7    S    
C64   H115  S    
C7    C16   S    
C94   C103  A    
C63   O54   S    
C98   C100  A    
Cr4   O43   S    
C55   H91   S    
C93   N6    S    
C142  O19   A    
Cr5   O23   S    
C41   C50   S    
C65   H117  S    
H18   N5    S    
C1    O9    A    
C115  C124  A    
Cr9   O11   S    
C24   H60   S    
C93   C102  A    
H23   N8    S    
C21   C30   S    
C3    H24   S    
C23   C32   S    
C52   H84   S    
C31   H36   S    
C69   H7    S    
Cr5   O4    S    
C6    H28   S    
Cr2   O30   S    
C74   C155  S    
C25   C148  S    
C65   C66   S    
C34   H39   S    
Cr7   O48   S    
C65   O55   S    
C37   C72   S    
C58   H96   S    
C146  O32   A    
C102  H71   S    
C151  O37   A    
C100  H69   S    
C132  O49   S    
C39   C48   S    
H25   N8    S    
Cr7   O59   S    
Cr6   O6    S    
C89   C109  A    
C46   C76   S    
Cr9   O13   S    
C52   O49   S    
C58   H97   S    
C35   C75   S    
C150  H57   S    
C65   H116  S    
C70   C156  S    
C17   C26   S    
C26   H30   S    
C41   C77   S    
H17   N5    S    
C59   O52   S    
C9    C159  S    
C156  O58   A    
C11   C24   S    
C67   O57   S    
C3    C29   S    
C96   N8    S    
C68   H64   S    
Cr9   O20   S    
C6    C15   S    
Cr12  O44   S    
C26   C34   S    
Cr3   O47   S    
C30   C39   S    
C95   O4    A    
C16   C68   S    
C94   N7    S    
C85   C139  S    
C42   C51   S    
C15   C23   S    
C66   H120  S    
C151  O12   A    
C128  O7    A    
C79   C116  A    
C154  O45   A    
C15   C57   S    
C55   H92   S    
C62   H108  S    
C97   C99   A    
C120  C122  A    
C20   C29   S    
C105  C108  A    
C22   C31   S    
C54   H90   S    
C18   C142  S    
Cr8   O18   S    
C95   O13   A    
C136  C138  A    
Cr10  O47   S    
C152  O38   A    
C8    H1    S    
C6    C77   S    
C128  O16   A    
C12   C21   S    
C29   H34   S    
C67   C69   S    
C81   C114  A    
C56   O51   S    
C25   C51   S    
C73   O10   A    
C13   H59   S    
C84   O3    A    
C106  O5    A    
C75   C152  S    
C73   C82   S    
Cr9   O46   S    
C82   C107  A    
C83   C121  A    
C102  C104  A    
C38   C47   S    
C7    C78   S    
C42   C78   S    
C131  H80   S    
C106  O14   A    
Cr6   O56   S    
Cr12  O37   S    
C64   H114  S    
C19   C143  S    
Cr4   O42   S    
C24   C47   S    
C18   C27   S    
C10   C13   S    
C126  C135  A    
C136  O53   S    
Cr2   O46   S    
C71   C159  S    
C72   C160  S    
C87   C120  A    
C9    H33   S    
C24   C74   S    
Cr11  O16   S    
C59   H101  S    
Cr11  O26   S    
C51   C68   S    
C36   C44   S    
Cr2   O39   S    
C129  H82   S    
C66   H118  S    
C104  H73   S    
C73   O2    A    
C44   H49   S    
C118  C126  A    
C4    C30   S    
H15   N4    S    
C5    C31   S    
