data_mof_unit_55848.cif
_audit_creation_date              2013-03-05T16:34:51-0500
_audit_creation_method            fapswitch 2.2
_symmetry_space_group_name_H-M    P1
_symmetry_Int_Tables_number       1
_space_group_crystal_system       triclinic
_cell_length_a                    15.044996
_cell_length_b                    9.081173
_cell_length_c                    7.784538
_cell_angle_alpha                 90.061362
_cell_angle_beta                  89.864807
_cell_angle_gamma                 90.002561
_cell_volume                      1063.56836328

loop_
_atom_site_label
_atom_site_type_symbol
_atom_site_description
_atom_site_fract_x
_atom_site_fract_y
_atom_site_fract_z
_atom_type_partial_charge
O1    O     O_R   0.500000 0.288390 0.642760 -0.572407
O2    O     O_R   0.500000 0.711610 0.357240 -0.577383
O3    O     O_R   0.500000 0.711610 0.642760 -0.578347
O4    O     O_R   0.500000 0.288390 0.357240 -0.579084
C1    C     C_R   0.499996 0.220039 0.499941 0.847818
C2    C     C_R   0.500000 0.779962 0.500056 0.843950
O5    O     O_R   0.370260 0.500000 0.642800 -0.581564
O6    O     O_R   0.629740 0.500000 0.357200 -0.588103
O7    O     O_R   0.629740 0.500000 0.642800 -0.582394
O8    O     O_R   0.370260 0.500000 0.357200 -0.586721
C3    C     C_R   0.328266 0.499787 0.500354 0.791873
C4    C     C_R   0.671731 0.500059 0.499929 0.790669
Cu1   Cu    Cu3+1 0.500000 0.500000 0.669080 1.003995
Cu2   Cu    Cu3+1 0.500000 0.500000 0.330920 0.996110
N1    N     N_1   0.500000 0.500000 0.076820 -0.050321
N2    N     N_1   0.500000 0.500000 0.923180 -0.049621
C5    C     C_R   0.813950 0.570420 0.631328 -0.167887
C6    C     C_R   0.186058 0.413143 0.379854 -0.209079
C7    C     C_R   0.814291 0.415268 0.377801 -0.206604
C8    C     C_R   0.185746 0.568106 0.633508 -0.173529
C9    C     C_R   0.768290 0.496728 0.501329 -0.087774
C10   C     C_R   0.231721 0.495150 0.502926 -0.086613
C11   C     C_R   0.906903 0.403168 0.385488 -0.040145
C12   C     C_R   0.093075 0.561817 0.641804 -0.023933
C13   C     C_R   0.906579 0.563745 0.640183 -0.026192
C14   C     C_R   0.093504 0.399904 0.388298 -0.038741
C15   C     C_R   0.953391 0.480049 0.515764 -0.065230
C16   C     C_R   0.046591 0.478948 0.516701 -0.063555
C17   C     C_R   0.953632 0.316375 0.264784 0.368023
C18   C     C_R   0.046269 0.639483 0.770586 0.405904
C19   C     C_R   0.953076 0.641392 0.769143 0.403992
C20   C     C_R   0.046871 0.312532 0.268190 0.379618
C21   C     C_1   0.499995 0.065397 0.499912 -0.178739
C22   C     C_1   0.499997 0.934605 0.500071 -0.178877
H1    H     H_    0.776512 0.634700 0.723745 0.177032
H2    H     H_    0.223342 0.359423 0.278479 0.179482
H3    H     H_    0.777191 0.358876 0.278357 0.183161
H4    H     H_    0.222845 0.632606 0.726021 0.179130
O9    O     O_3   0.909110 0.247328 0.131575 -0.565294
C23   C     C_3   0.880451 0.106801 0.185862 -0.245712
H5    H     H_    0.826747 0.069418 0.098698 0.195612
H6    H     H_    0.852739 0.106379 0.318801 0.129955
H7    H     H_    0.935337 0.025876 0.174996 0.198426
O10   O     O_3   0.090945 0.726060 0.888692 -0.566396
C24   C     C_3   0.113920 0.638024 0.031023 -0.277375
H8    H     H_    0.160214 0.547760 0.994374 0.175622
H9    H     H_    0.054163 0.590959 0.094015 0.162862
H10   H     H_    0.148214 0.708022 0.127112 0.178498
O11   O     O_3   0.908645 0.733113 0.882991 -0.559488
C25   C     C_3   0.873299 0.650478 0.021197 -0.323542
H11   H     H_    0.910506 0.676954 0.140131 0.181534
H12   H     H_    0.873464 0.528710 0.001778 0.183683
H13   H     H_    0.803354 0.684732 0.042563 0.182981
O12   O     O_3   0.091276 0.231292 0.144208 -0.555413
C26   C     C_3   0.121013 0.097735 0.217611 -0.258031
H14   H     H_    0.071669 0.046942 0.306539 0.136165
H15   H     H_    0.184597 0.113991 0.286989 0.149798
H16   H     H_    0.133532 0.017693 0.112548 0.218202

loop_
_geom_bond_atom_site_label_1
_geom_bond_atom_site_label_2
_geom_bond_distance
_ccdc_geom_bond_type
C13   C19   1.412843 A    
C25   H12   1.115922 S    
C26   H14   1.114159 S    
C14   C20   1.413305 A    
C11   C15   1.416648 A    
C13   C15   1.416694 A    
C8    H4    1.083619 S    
C7    H3    1.083622 S    
O12   C26   1.414366 S    
C3    C10   1.453210 S    
C14   C16   1.416942 A    
O3    Cu1   1.932777 S    
O6    C4    1.279422 A    
O3    C2    1.273120 A    
C5    C13   1.396791 A    
C17   O9    1.385276 S    
C23   H6    1.114794 S    
C21   C22   1.187751 T    
Cu1   N2    1.978050 S    
C24   H9    1.108945 S    
C24   H8    1.112213 S    
O5    C3    1.277531 A    
C18   O10   1.384393 S    
O2    C2    1.272716 A    
C2    C22   1.404340 S    
C19   O11   1.386263 S    
O1    C1    1.272739 A    
C11   C17   1.411998 A    
C20   O12   1.384770 S    
C23   H5    1.109307 S    
C7    C9    1.395093 A    
C8    C10   1.394982 A    
C25   H11   1.109194 S    
C17   C20   1.403530 A    
C26   H15   1.109432 S    
O4    Cu2   1.932778 S    
C18   C19   1.402275 A    
O2    Cu2   1.932341 S    
O7    C4    1.277793 A    
C12   C18   1.411929 A    
C26   H16   1.109383 S    
C25   H13   1.109455 S    
O1    Cu1   1.932342 S    
O8    C3    1.279731 A    
N1    N2    1.196017 T    
C8    C12   1.396758 A    
O5    Cu1   1.963111 S    
O10   C24   1.410665 S    
O11   C25   1.415071 S    
O8    Cu2   1.962151 S    
C24   H10   1.109306 S    
O9    C23   1.411848 S    
O7    Cu1   1.962149 S    
C7    C11   1.399102 A    
O6    Cu2   1.963109 S    
Cu2   N1    1.978050 S    
C5    H1    1.082958 S    
Cu1   Cu2   2.632420 S    
C6    C10   1.394988 A    
C6    H2    1.082826 S    
C4    C9    1.453121 S    
C23   H7    1.108463 S    
C5    C9    1.394860 A    
C12   C16   1.416137 A    
C1    C21   1.404323 S    
O4    C1    1.273091 A    
C15   C16   1.402258 A    
C6    C14   1.399047 A    
