data_mof_unit_30870.cif
_audit_creation_date              2013-03-05T16:38:59-0500
_audit_creation_method            fapswitch 2.2
_symmetry_space_group_name_H-M    P1
_symmetry_Int_Tables_number       1
_space_group_crystal_system       triclinic
_cell_length_a                    16.008016
_cell_length_b                    14.764965
_cell_length_c                    23.533559
_cell_angle_alpha                 90.000718
_cell_angle_beta                  89.438928
_cell_angle_gamma                 90.0127
_cell_volume                      5562.07330369

loop_
_atom_site_label
_atom_site_type_symbol
_atom_site_description
_atom_site_fract_x
_atom_site_fract_y
_atom_site_fract_z
_atom_type_partial_charge
O1    O     O_R   0.380310 0.575320 0.500010 -0.567455
O2    O     O_R   0.619690 0.424680 0.499990 -0.566849
O3    O     O_R   0.619690 0.575320 0.499990 -0.567461
O4    O     O_R   0.380310 0.424680 0.500010 -0.566808
C1    C     C_R   0.340999 0.500056 0.499310 0.830429
C2    C     C_R   0.658999 0.500076 0.500692 0.830431
O5    O     O_R   0.499980 0.575360 0.417880 -0.577280
O6    O     O_R   0.500020 0.424640 0.582120 -0.572579
O7    O     O_R   0.500020 0.575360 0.582120 -0.577275
O8    O     O_R   0.499980 0.424640 0.417880 -0.572636
C3    C     C_R   0.500982 0.500044 0.390751 0.799317
C4    C     C_R   0.499022 0.500044 0.609250 0.799323
Cu1   Cu    Cu3+1 0.500000 0.589220 0.500000 0.977553
Cu2   Cu    Cu3+1 0.500000 0.410780 0.500000 0.986349
C5    C     C_R   0.578249 0.479197 0.880744 0.543926
C6    C     C_R   0.421770 0.479289 0.119257 0.543918
N1    N     N_R   0.505120 0.473911 0.851573 -0.464401
N2    N     N_R   0.494892 0.473930 0.148429 -0.464401
C7    C     C_R   0.430464 0.461311 0.879025 0.565006
C8    C     C_R   0.569533 0.461255 0.120978 0.564996
C9    C     C_R   0.425727 0.462913 0.938963 -0.124223
C10   C     C_R   0.574271 0.462841 0.061040 -0.124220
C11   C     C_R   0.501173 0.465291 0.969893 -0.064669
C12   C     C_R   0.498828 0.465296 0.030109 -0.064667
C13   C     C_R   0.578944 0.468338 0.940514 -0.079630
C14   C     C_R   0.421061 0.468429 0.059488 -0.079633
C15   C     C_R   0.348187 0.460960 0.968515 0.310692
C16   C     C_R   0.651808 0.460795 0.031487 0.310693
C17   C     C_R   0.345695 0.463319 0.028255 -0.138043
C18   C     C_R   0.654303 0.463145 0.971747 -0.138030
O9    O     O_2   0.649344 0.497796 0.851819 -0.552925
O10   O     O_2   0.350699 0.497959 0.148183 -0.552931
O11   O     O_2   0.361417 0.446700 0.847925 -0.481136
O12   O     O_2   0.638562 0.446589 0.152079 -0.481155
C19   C     C_R   0.543005 0.550623 0.234995 -0.141427
C20   C     C_R   0.457083 0.550651 0.765013 -0.141426
H1    H     H_    0.580285 0.595467 0.208509 0.159679
H2    H     H_    0.419855 0.595522 0.791503 0.159692
C21   C     C_R   0.546867 0.558086 0.294227 -0.048883
C22   C     C_R   0.453213 0.558118 0.705782 -0.048891
C23   C     C_R   0.498054 0.499053 0.328394 -0.071284
C24   C     C_R   0.501958 0.499051 0.671608 -0.071276
C25   C     C_R   0.447309 0.433917 0.302295 -0.252068
C26   C     C_R   0.552640 0.433876 0.697702 -0.251962
H3    H     H_    0.409165 0.388574 0.327763 0.166577
H4    H     H_    0.590735 0.388509 0.672230 0.166572
C27   C     C_R   0.445841 0.425694 0.243388 -0.115681
C28   C     C_R   0.554111 0.425647 0.756608 -0.115667
H5    H     H_    0.407972 0.373384 0.224223 0.142038
H6    H     H_    0.591927 0.373305 0.775767 0.142049
C29   C     C_R   0.493869 0.483870 0.209343 0.326431
C30   C     C_R   0.506151 0.483859 0.790660 0.326443
C31   C     C_R   0.956191 0.584152 0.503179 -0.057841
C32   C     C_R   0.044064 0.418047 0.499781 -0.052766
C33   C     C_R   0.043875 0.584144 0.496799 -0.057908
C34   C     C_R   0.955859 0.418058 0.499864 -0.052689
C35   C     C_R   0.912440 0.501237 0.502069 0.027484
C36   C     C_R   0.087557 0.501204 0.497784 0.027547
C37   C     C_1   0.822600 0.501127 0.503022 -0.035490
C38   C     C_1   0.177398 0.501050 0.496904 -0.035288
C39   C     C_1   0.252247 0.500421 0.497712 -0.167632
C40   C     C_1   0.747751 0.500488 0.502259 -0.167663
C41   C     C_R   0.532675 0.951537 0.546790 -0.038181
C42   C     C_R   0.467015 0.048306 0.453477 -0.040946
C43   C     C_R   0.467467 0.951510 0.453146 -0.038135
C44   C     C_R   0.533133 0.048326 0.546445 -0.041018
C45   C     C_R   0.500046 0.902733 0.499978 -0.080982
C46   C     C_R   0.500050 0.097098 0.499971 -0.077532
C47   C     C_1   0.500019 0.802467 0.499992 0.124410
C48   C     C_1   0.500019 0.197484 0.499989 0.158690
N3    N     N_1   0.500000 0.276710 0.500000 -0.149779
N4    N     N_1   0.500000 0.723290 0.500000 -0.153511
N5    N     N_R   0.270721 0.459383 0.938333 0.156489
O13   O     O_R   0.241538 0.533685 0.916416 -0.347872
O14   O     O_R   0.225169 0.386408 0.938242 -0.341210
N6    N     N_R   0.729273 0.459122 0.061668 0.156492
O15   O     O_R   0.758576 0.533391 0.083573 -0.347886
O16   O     O_R   0.774706 0.386083 0.061770 -0.341190
C49   C     C_R   0.262800 0.456343 0.056696 0.217042
C50   C     C_R   0.238064 0.374665 0.082386 -0.067442
C51   C     C_R   0.159605 0.367694 0.108661 -0.127915
C52   C     C_R   0.105433 0.441956 0.109246 -0.084868
C53   C     C_R   0.129650 0.523357 0.083590 -0.122965
C54   C     C_R   0.208100 0.530680 0.057338 -0.047395
H7    H     H_    0.279542 0.316719 0.082020 0.116669
H8    H     H_    0.140754 0.304703 0.128507 0.132007
H9    H     H_    0.044684 0.436413 0.129545 0.151863
H10   H     H_    0.087621 0.580765 0.084039 0.141425
H11   H     H_    0.226344 0.594031 0.037614 0.136283
C55   C     C_R   0.737187 0.456064 0.943305 0.217026
C56   C     C_R   0.761797 0.374356 0.917609 -0.067444
C57   C     C_R   0.840245 0.367284 0.891333 -0.127983
C58   C     C_R   0.894533 0.441474 0.890755 -0.084864
C59   C     C_R   0.870441 0.522904 0.916416 -0.122880
C60   C     C_R   0.792003 0.530328 0.942668 -0.047412
H12   H     H_    0.720229 0.316465 0.917971 0.116678
H13   H     H_    0.858999 0.304271 0.871483 0.131993
H14   H     H_    0.955272 0.435853 0.870455 0.151862
H15   H     H_    0.912560 0.580256 0.915971 0.141480
H16   H     H_    0.773857 0.593701 0.962396 0.136302
C61   C     C_R   0.608766 0.621741 0.317875 0.081677
C62   C     C_R   0.583338 0.702820 0.343899 -0.074536
C63   C     C_R   0.642808 0.766392 0.360999 -0.138835
C64   C     C_R   0.727720 0.750107 0.351156 -0.134922
C65   C     C_R   0.753541 0.669110 0.325904 -0.136764
C66   C     C_R   0.694350 0.605122 0.309225 -0.137546
H17   H     H_    0.517668 0.717024 0.350300 0.160054
H18   H     H_    0.623154 0.828820 0.381140 0.124628
H19   H     H_    0.773638 0.800351 0.362814 0.122152
H20   H     H_    0.819370 0.656419 0.318617 0.131697
H21   H     H_    0.715014 0.543358 0.288601 0.157046
C67   C     C_R   0.391363 0.621807 0.682145 0.081731
C68   C     C_R   0.416851 0.702890 0.656139 -0.074529
C69   C     C_R   0.357426 0.766499 0.639061 -0.138905
C70   C     C_R   0.272503 0.750248 0.648909 -0.134962
C71   C     C_R   0.246623 0.669248 0.674143 -0.136730
C72   C     C_R   0.305767 0.605223 0.690799 -0.137456
H22   H     H_    0.482532 0.717068 0.649736 0.159991
H23   H     H_    0.377124 0.828930 0.618933 0.124657
H24   H     H_    0.226623 0.800522 0.637270 0.122182
H25   H     H_    0.180786 0.656584 0.681435 0.131727
H26   H     H_    0.285058 0.543457 0.711411 0.157089
C73   C     C_R   0.087835 0.670983 0.484291 0.128675
C74   C     C_R   0.147935 0.706262 0.521315 -0.136157
C75   C     C_R   0.185378 0.790019 0.509697 -0.143303
C76   C     C_R   0.162487 0.839419 0.461676 -0.126949
C77   C     C_R   0.103334 0.804470 0.424443 -0.135304
C78   C     C_R   0.066298 0.720563 0.435539 -0.127193
H27   H     H_    0.164914 0.669478 0.559256 0.131632
H28   H     H_    0.232202 0.817071 0.537753 0.122616
H29   H     H_    0.191115 0.904498 0.453083 0.118282
H30   H     H_    0.086043 0.842473 0.387036 0.128519
H31   H     H_    0.020132 0.694483 0.406429 0.119719
C79   C     C_R   0.908840 0.331114 0.499325 0.125400
C80   C     C_R   0.911879 0.272041 0.546056 -0.121578
C81   C     C_R   0.868183 0.190017 0.545033 -0.131941
C82   C     C_R   0.820878 0.166737 0.497601 -0.104966
C83   C     C_R   0.817154 0.225434 0.451117 -0.123288
C84   C     C_R   0.861094 0.307273 0.451834 -0.148152
H32   H     H_    0.948139 0.289501 0.583093 0.123794
H33   H     H_    0.871075 0.144437 0.580967 0.117306
H34   H     H_    0.787267 0.103159 0.496767 0.111120
H35   H     H_    0.780447 0.207364 0.414436 0.127069
H36   H     H_    0.858199 0.351967 0.415410 0.126090
C85   C     C_R   0.912294 0.670984 0.515751 0.128738
C86   C     C_R   0.852262 0.706372 0.478727 -0.136203
C87   C     C_R   0.814912 0.790147 0.490379 -0.143337
C88   C     C_R   0.837819 0.839451 0.538440 -0.126903
C89   C     C_R   0.896901 0.804392 0.575675 -0.135433
C90   C     C_R   0.933853 0.720470 0.564540 -0.127208
H37   H     H_    0.835277 0.669661 0.440757 0.131600
H38   H     H_    0.768154 0.817289 0.462315 0.122500
H39   H     H_    0.809259 0.904543 0.547062 0.118404
H40   H     H_    0.914207 0.842322 0.613111 0.128537
H41   H     H_    0.979975 0.694309 0.593646 0.119748
C91   C     C_R   0.091012 0.331102 0.500036 0.125538
C92   C     C_R   0.088387 0.272735 0.452932 -0.121677
C93   C     C_R   0.131975 0.190659 0.453691 -0.131598
C94   C     C_R   0.178708 0.166608 0.501249 -0.104553
C95   C     C_R   0.181997 0.224606 0.548115 -0.123547
C96   C     C_R   0.138215 0.306528 0.547641 -0.148717
H42   H     H_    0.052519 0.290781 0.415817 0.123785
H43   H     H_    0.129416 0.145621 0.417461 0.117267
H44   H     H_    0.212202 0.102969 0.501890 0.110999
H45   H     H_    0.218239 0.205925 0.584902 0.127037
H46   H     H_    0.140759 0.350684 0.584351 0.126087
C97   C     C_R   0.569796 0.098977 0.594679 0.114021
C98   C     C_R   0.518226 0.150383 0.630957 -0.143975
C99   C     C_R   0.552282 0.195480 0.677512 -0.134401
C100  C     C_R   0.638012 0.190380 0.687808 -0.123352
C101  C     C_R   0.689750 0.139655 0.651735 -0.116867
C102  C     C_R   0.655833 0.093815 0.605373 -0.114657
H47   H     H_    0.451637 0.154370 0.623582 0.121469
H48   H     H_    0.512147 0.234237 0.705670 0.142604
H49   H     H_    0.664297 0.225553 0.723809 0.123008
H50   H     H_    0.756045 0.135433 0.659914 0.119332
H51   H     H_    0.696284 0.053806 0.578095 0.106961
C103  C     C_R   0.434014 0.901285 0.403299 0.098280
C104  C     C_R   0.467957 0.914994 0.348628 -0.144954
C105  C     C_R   0.434623 0.869822 0.301802 -0.138305
C106  C     C_R   0.367877 0.809812 0.309201 -0.130756
C107  C     C_R   0.334302 0.795009 0.363429 -0.128336
C108  C     C_R   0.367012 0.840709 0.410234 -0.146298
H52   H     H_    0.520355 0.960386 0.342316 0.128299
H53   H     H_    0.461004 0.880780 0.259848 0.141117
H54   H     H_    0.342494 0.774441 0.272977 0.143509
H55   H     H_    0.282810 0.748274 0.369208 0.149774
H56   H     H_    0.340270 0.829049 0.451954 0.132511
C109  C     C_R   0.430521 0.098936 0.405174 0.113833
C110  C     C_R   0.482181 0.150610 0.369097 -0.143930
C111  C     C_R   0.448330 0.195636 0.322452 -0.134331
C112  C     C_R   0.362715 0.190167 0.311845 -0.123336
C113  C     C_R   0.310887 0.139164 0.347706 -0.117027
C114  C     C_R   0.344594 0.093430 0.394174 -0.114627
H57   H     H_    0.548694 0.154861 0.376695 0.121443
H58   H     H_    0.488542 0.234606 0.294457 0.142775
H59   H     H_    0.336592 0.225261 0.275764 0.122947
H60   H     H_    0.244689 0.134635 0.339275 0.119217
H61   H     H_    0.304077 0.053201 0.421281 0.107026
C115  C     C_R   0.566222 0.901352 0.596616 0.098431
C116  C     C_R   0.633202 0.840792 0.589631 -0.146153
C117  C     C_R   0.665978 0.795101 0.636412 -0.128340
C118  C     C_R   0.632498 0.809906 0.690665 -0.130751
C119  C     C_R   0.565782 0.869906 0.698114 -0.138294
C120  C     C_R   0.532378 0.915064 0.651313 -0.145006
H62   H     H_    0.659874 0.829134 0.547891 0.132433
H63   H     H_    0.717446 0.748371 0.630596 0.149838
H64   H     H_    0.657933 0.774543 0.726870 0.143467
H65   H     H_    0.539472 0.880865 0.740087 0.141094
H66   H     H_    0.479994 0.960436 0.657663 0.128211

loop_
_geom_bond_atom_site_label_1
_geom_bond_atom_site_label_2
_geom_bond_distance
_ccdc_geom_bond_type
C102  H51   1.082763 S    
C44   C46   1.416614 A    
C118  C119  1.397472 A    
C61   C62   1.403284 A    
C15   C17   1.406501 A    
N5    O14   1.300910 A    
C116  C117  1.397817 A    
C65   C66   1.396912 A    
C87   C88   1.397023 A    
C72   H26   1.083330 S    
C18   C55   1.483918 S    
O3    C2    1.277111 A    
C42   C109  1.485096 S    
C55   C56   1.404219 A    
C83   C84   1.398210 A    
C89   C90   1.396861 A    
C80   C81   1.398757 A    
C27   H5    1.082853 S    
Cu2   N3    1.979540 S    
C106  C107  1.397066 A    
C34   C35   1.412008 A    
O5    C3    1.282291 A    
C58   C59   1.398068 A    
C44   C97   1.484936 S    
O1    C1    1.277133 A    
C42   C46   1.416686 A    
C91   C92   1.405047 A    
C19   H1    1.084257 S    
C65   H20   1.082378 S    
N6    O16   1.300904 A    
C86   C87   1.399928 A    
C28   C30   1.399478 A    
C83   H35   1.082353 S    
C32   C91   1.487731 S    
C64   H19   1.081485 S    
C35   C37   1.438111 S    
C100  C101  1.397875 A    
C36   C38   1.438134 S    
C52   H9    1.082340 S    
C115  C120  1.406345 A    
C61   C66   1.404744 A    
C76   H29   1.082693 S    
C41   C115  1.491622 S    
N5    O13   1.301060 A    
C43   C103  1.491624 S    
O7    Cu1   1.943386 S    
C107  C108  1.397811 A    
C67   C68   1.403285 A    
C4    C24   1.468799 S    
C62   C63   1.398719 A    
C56   H12   1.083104 S    
C77   H30   1.082259 S    
C85   C90   1.406753 A    
C75   H28   1.080220 S    
C92   C93   1.398716 A    
C94   C95   1.397729 A    
C115  C116  1.404694 A    
C43   C45   1.420146 A    
C119  H65   1.082180 S    
C57   H13   1.082285 S    
C99   H48   1.082203 S    
C48   N3    1.169769 T    
C51   H8    1.082282 S    
C20   C30   1.401246 A    
C104  H52   1.082646 S    
C66   H21   1.083329 S    
C8    O12   1.348919 S    
C22   C24   1.415713 A    
C53   H10   1.082288 S    
C9    C15   1.417152 A    
C41   C44   1.429123 A    
C10   C16   1.417155 A    
Cu1   Cu2   2.634659 S    
C98   H47   1.083291 S    
C23   C25   1.404087 A    
O2    C2    1.278828 A    
C24   C26   1.404099 A    
C109  C114  1.404498 A    
N1    C30   1.440951 S    
C64   C65   1.396283 A    
C26   H4    1.083014 S    
N2    C29   1.440944 S    
C21   C61   1.478268 S    
C33   C73   1.490431 S    
C100  H49   1.082322 S    
C31   C33   1.410196 A    
C6    C14   1.415841 A    
C80   H32   1.083019 S    
C41   C45   1.420128 A    
C82   H34   1.082160 S    
C117  C118  1.397062 A    
C111  C112  1.397791 A    
C99   C100  1.397973 A    
C103  C104  1.406352 A    
C73   C74   1.404385 A    
N6    O15   1.301057 A    
C21   C23   1.415711 A    
O8    Cu2   1.943386 S    
C74   H27   1.082085 S    
C79   C84   1.404924 A    
C31   C35   1.410653 A    
C60   H16   1.083020 S    
O4    C1    1.278825 A    
C27   C29   1.399477 A    
C112  H59   1.082323 S    
C5    O9    1.348589 S    
C51   C52   1.398096 A    
C68   H22   1.081111 S    
C38   C39   1.198551 T    
C45   C47   1.480412 S    
O3    Cu1   1.927003 S    
C47   N4    1.169052 T    
C19   C21   1.400243 A    
C89   H40   1.082258 S    
C110  C111  1.397298 A    
C78   H31   1.083296 S    
C50   H7    1.083097 S    
C84   H36   1.083147 S    
C53   C54   1.398283 A    
C17   C49   1.483915 S    
C20   C22   1.400240 A    
O6    C4    1.283437 A    
C31   C85   1.490418 S    
C1    C39   1.421630 S    
C62   H17   1.081100 S    
C95   H45   1.082615 S    
C88   C89   1.395261 A    
C101  H50   1.082218 S    
C28   H6    1.082858 S    
C25   H3    1.083028 S    
C101  C102  1.398111 A    
C97   C102  1.404604 A    
C93   H43   1.082350 S    
C14   C17   1.420858 A    
C110  H57   1.083187 S    
C46   C48   1.482190 S    
C98   C99   1.397300 A    
C8    C10   1.412054 A    
C91   C96   1.405135 A    
C52   C53   1.398064 A    
C59   C60   1.398285 A    
C90   H41   1.083292 S    
C9    C11   1.416660 A    
C7    O11   1.348922 S    
C75   C76   1.397024 A    
C10   C12   1.416665 A    
C49   C50   1.404213 A    
C33   C36   1.410609 A    
O1    Cu1   1.926914 S    
C54   H11   1.083015 S    
C77   C78   1.396850 A    
C16   N6    1.435303 S    
C103  C108  1.404689 A    
C97   C98   1.404617 A    
C105  C106  1.397476 A    
C68   C69   1.398725 A    
C32   C36   1.411901 A    
C13   C18   1.420856 A    
C5    N1    1.365110 A    
C37   C40   1.198534 T    
O6    Cu2   1.943381 S    
C11   C12   1.417222 A    
C49   C54   1.404220 A    
C7    C9    1.412045 A    
C85   C86   1.404373 A    
C111  H58   1.082136 S    
C12   C14   1.418842 A    
C50   C51   1.398264 A    
C55   C60   1.404231 A    
C34   C79   1.488087 S    
C106  H54   1.082250 S    
C70   H24   1.081490 S    
C32   C34   1.411971 A    
C69   C70   1.397527 A    
C79   C80   1.404862 A    
Cu1   N4    1.979540 S    
C104  C105  1.398323 A    
C6    O10   1.348589 S    
C82   C83   1.397389 A    
C67   C72   1.404747 A    
C117  H63   1.082426 S    
C59   H15   1.082296 S    
C95   C96   1.398189 A    
C2    C40   1.421595 S    
C16   C18   1.406504 A    
C87   H38   1.080234 S    
C108  H56   1.081020 S    
C112  C113  1.397752 A    
C19   C29   1.401248 A    
C22   C67   1.478258 S    
C73   C78   1.406767 A    
C93   C94   1.398190 A    
C69   H23   1.081873 S    
C120  H66   1.082642 S    
C76   C77   1.395244 A    
C92   H42   1.083270 S    
C42   C43   1.429220 A    
C20   H2    1.084259 S    
C57   C58   1.398107 A    
N1    C7    1.365653 A    
C81   H33   1.082137 S    
C71   C72   1.396909 A    
C3    C23   1.468766 S    
C116  H62   1.081034 S    
N2    C8    1.365652 A    
C107  H55   1.082428 S    
C11   C13   1.418839 A    
O4    Cu2   1.927004 S    
C109  C110  1.404580 A    
O2    Cu2   1.926912 S    
O7    C4    1.282307 A    
C5    C13   1.415846 A    
O8    C3    1.283437 A    
C96   H46   1.083382 S    
C86   H37   1.082075 S    
C114  H61   1.082669 S    
C26   C28   1.392017 A    
O5    Cu1   1.943381 S    
C119  C120  1.398318 A    
C118  H64   1.082250 S    
C6    N2    1.365109 A    
C113  C114  1.398118 A    
C88   H39   1.082694 S    
C105  H53   1.082181 S    
C63   C64   1.397522 A    
C94   H44   1.082123 S    
C81   C82   1.397843 A    
C63   H18   1.081880 S    
C71   H25   1.082380 S    
C15   N5    1.435306 S    
C25   C27   1.392016 A    
C58   H14   1.082339 S    
C113  H60   1.082068 S    
C56   C57   1.398266 A    
C70   C71   1.396277 A    
C74   C75   1.399938 A    
