data_mof_unit_61614.cif
_audit_creation_date              2012-12-10T18:18:45-0500
_audit_creation_method            fapswitch 2.2
_symmetry_space_group_name_H-M    P1
_symmetry_Int_Tables_number       1
_space_group_crystal_system       triclinic
_cell_length_a                    24.061419
_cell_length_b                    14.721418
_cell_length_c                    15.876534
_cell_angle_alpha                 89.791939
_cell_angle_beta                  90.265049
_cell_angle_gamma                 89.71798
_cell_volume                      5623.59155854

loop_
_atom_site_label
_atom_site_type_symbol
_atom_type_description
_atom_site_fract_x
_atom_site_fract_y
_atom_site_fract_z
_atom_type_partial_charge
C1    C     C_R   0.500168 0.499858 0.659957 0.859740
C2    C     C_R   0.020354 0.498382 0.636627 0.384067
C3    C     C_R   0.961790 0.492742 0.633899 -0.148575
C4    C     C_R   0.933286 0.492384 0.555302 -0.071242
C5    C     C_R   0.964457 0.503653 0.481139 -0.045861
C6    C     C_R   0.936722 0.504263 0.402935 -0.157508
C7    C     C_R   0.967701 0.514512 0.327918 0.349503
C8    C     C_R   0.025866 0.513810 0.330766 0.376231
C9    C     C_R   0.874561 0.481417 0.548158 0.564189
C10   C     C_R   0.878669 0.488428 0.401173 0.634725
C11   C     C_R   0.747613 0.494358 0.400773 -0.014083
C12   C     C_R   0.608134 0.499947 0.500832 0.855808
C13   C     C_R   0.690675 0.485715 0.414766 -0.300959
C14   C     C_R   0.667842 0.500269 0.493016 -0.088869
C15   C     C_R   0.701248 0.527932 0.558687 0.335228
C16   C     C_R   0.758232 0.533231 0.547209 -0.116908
C17   C     C_R   0.784864 0.506665 0.471534 0.189971
C18   C     C_R   0.243122 0.481129 0.568563 0.323742
C19   C     C_R   0.301420 0.493795 0.570791 0.316460
C20   C     C_R   0.331349 0.502570 0.498560 -0.260971
C21   C     C_R   0.305099 0.510116 0.422272 -0.198930
C22   C     C_R   0.246188 0.501633 0.415544 0.377845
C23   C     C_R   0.500340 0.500150 0.340072 0.794170
C24   C     C_R   0.209311 0.489501 0.490879 0.049436
C25   C     C_3   0.469377 0.406902 0.949436 0.543057
C26   C     C_3   0.461071 0.585934 0.947935 0.539393
C27   C     C_3   0.460848 0.586527 0.048728 0.106052
C28   C     C_3   0.468627 0.407525 0.050213 0.108025
C29   C     C_1   0.498643 0.500583 0.250705 -0.046705
C30   C     C_3   0.494350 0.499658 0.916389 -0.129821
C31   C     C_3   0.493746 0.500320 0.082904 -0.122146
C32   C     C_3   0.554173 0.506746 0.049017 -0.314719
C33   C     C_3   0.554515 0.506978 0.951706 -0.423113
C34   C     C_1   0.496470 0.500822 0.175362 0.094419
C35   C     C_1   0.497053 0.499470 0.824338 0.188882
C36   C     C_R   0.391975 0.500512 0.502461 0.897647
C37   C     C_1   0.498823 0.499561 0.749100 0.010586
C38   C     C_3   0.472185 0.945920 0.411353 0.563329
C39   C     C_3   0.472212 0.055189 0.411271 0.563416
C40   C     C_3   0.558104 0.945924 0.509099 -0.348586
C41   C     C_3   0.558064 0.053184 0.509125 -0.350629
C42   C     C_3   0.497199 0.907576 0.497897 -0.242272
C43   C     C_3   0.497148 0.092478 0.497852 -0.241611
C44   C     C_3   0.462551 0.054896 0.576198 0.185039
C45   C     C_3   0.462627 0.945037 0.576291 0.183958
C46   C     C_1   0.498079 0.195601 0.498176 0.339709
C47   C     C_1   0.498126 0.804422 0.498181 0.341723
C48   C     C_R   0.113323 0.500085 0.416379 0.673990
C49   C     C_R   0.110102 0.480542 0.560183 0.652593
C50   C     C_R   0.051750 0.498790 0.560735 -0.091435
C51   C     C_R   0.023536 0.505799 0.484223 -0.113559
C52   C     C_R   0.054610 0.506943 0.410367 -0.176391
Cu1   Cu    Cu3+1 0.500070 0.410080 0.500090 1.092714
Cu2   Cu    Cu3+1 0.500070 0.589920 0.500090 1.098460
H1    H     H_    0.581019 0.450280 0.928832 0.249434
H2    H     H_    0.575164 0.569604 0.928656 0.252281
H3    H     H_    0.580063 0.449273 0.072649 0.241509
H4    H     H_    0.575038 0.569029 0.072431 0.242419
H5    H     H_    0.574151 0.924214 0.571827 0.158363
H6    H     H_    0.574005 0.074092 0.571955 0.156945
H7    H     H_    0.662850 0.473752 0.362090 0.157868
H8    H     H_    0.781715 0.558295 0.600178 0.213264
N1    N     N_R   0.144482 0.491468 0.489944 -0.437812
N2    N     N_R   0.846624 0.495427 0.472591 -0.441737
N3    N     N_1   0.498850 0.275030 0.498610 -0.132592
N4    N     N_1   0.498850 0.724970 0.498610 -0.131162
O1    O     O_R   0.500060 0.424030 0.620640 -0.562993
O2    O     O_R   0.500060 0.575970 0.620640 -0.555098
O3    O     O_R   0.582180 0.424050 0.500100 -0.579849
O4    O     O_R   0.582180 0.575950 0.500100 -0.569729
O5    O     O_R   0.500060 0.424100 0.379510 -0.559150
O6    O     O_R   0.500060 0.575900 0.379510 -0.558452
O7    O     O_R   0.417940 0.424080 0.500050 -0.547060
O8    O     O_R   0.417940 0.575920 0.500050 -0.552674
O9    O     O_2   0.136827 0.499830 0.343693 -0.384397
O10   O     O_2   0.126762 0.433331 0.626458 -0.374975
O11   O     O_2   0.846718 0.448564 0.615202 -0.515391
O12   O     O_2   0.857799 0.451570 0.330984 -0.464940
Cl1   Cl    Cl    0.053260 0.513696 0.736244 -0.384443
Cl2   Cl    Cl    0.340739 0.497579 0.667302 -0.379950
C53   C     C_1   0.341592 0.522679 0.348755 0.461955
N5    N     N_1   0.370076 0.531701 0.290744 -0.251552
Cl3   Cl    Cl    0.233728 0.502721 0.303436 -0.359046
C54   C     C_1   0.412304 0.392715 0.084199 0.376887
N6    N     N_1   0.368387 0.380197 0.111202 -0.101614
C55   C     C_1   0.403887 0.590038 0.082672 0.379749
N7    N     N_1   0.359197 0.593909 0.109094 -0.094358
Cl4   Cl    Cl    0.402192 0.384144 0.902807 -0.370552
Cl5   Cl    Cl    0.392319 0.591558 0.901591 -0.373314
Cl6   Cl    Cl    0.492270 0.687368 0.904219 -0.391978
Cl7   Cl    Cl    0.510150 0.313528 0.907960 -0.401623
Cl8   Cl    Cl    0.491401 0.688380 0.092431 -0.400870
Cl9   Cl    Cl    0.507276 0.313477 0.095992 -0.407061
Cl10  Cl    Cl    0.509543 0.101659 0.322489 -0.394502
Cl11  Cl    Cl    0.509388 0.899345 0.322504 -0.395659
C56   C     C_1   0.932024 0.492391 0.713047 0.478604
N8    N     N_1   0.908476 0.492207 0.776478 -0.131814
C57   C     C_1   0.599014 0.904440 0.451178 0.406233
N9    N     N_1   0.631122 0.871657 0.406283 -0.176964
C58   C     C_1   0.599006 0.094714 0.451417 0.404365
N10   N     N_1   0.631127 0.127604 0.406678 -0.168772
Cl12  Cl    Cl    0.393510 0.898277 0.579971 -0.345406
Cl13  Cl    Cl    0.393383 0.102546 0.579684 -0.338816
C59   C     C_1   0.486848 0.906621 0.655446 0.281926
N11   N     N_1   0.505487 0.876327 0.716868 -0.130157
C60   C     C_1   0.486657 0.092438 0.655367 0.280369
N12   N     N_1   0.505230 0.122014 0.716815 -0.131624
Cl14  Cl    Cl    0.404325 0.899543 0.390186 -0.311432
Cl15  Cl    Cl    0.404394 0.102894 0.389896 -0.311410
Cl16  Cl    Cl    0.934179 0.537395 0.229668 -0.363061
Cl17  Cl    Cl    0.059088 0.525269 0.230821 -0.285507
C61   C     C_1   0.759214 0.505400 0.311542 0.403852
N13   N     N_1   0.766431 0.513876 0.239655 -0.145122
Cl18  Cl    Cl    0.672578 0.555386 0.657306 -0.559909
Cl19  Cl    Cl    0.225971 0.437300 0.668686 -0.260707

loop_
_geom_bond_atom_site_label_1
_geom_bond_atom_site_label_2
_ccdc_geom_bond_type
C33   H1    S    
C12   O3    A    
C49   N1    A    
C28   C54   S    
C9    N2    A    
C19   C20   A    
C32   H4    S    
Cu1   O3    S    
C53   N5    T    
C10   O12   S    
C7    C8    A    
Cu1   Cu2   S    
C26   Cl5   S    
C26   C27   S    
C30   C35   S    
C18   C24   A    
C23   C29   S    
C35   C37   T    
C38   C42   S    
C17   N2    S    
C40   C57   S    
C5    C6    A    
Cu2   O2    S    
C60   N12   T    
C15   C16   A    
C1    O2    A    
C18   C19   A    
C49   C50   A    
C59   N11   T    
C2    Cl1   S    
C2    C50   A    
Cu2   O8    S    
C16   C17   A    
C38   Cl11  S    
C3    C56   S    
Cu1   N3    S    
C8    C52   A    
C47   N4    T    
C1    C37   S    
C33   H2    S    
C40   C42   S    
C40   H5    S    
C21   C22   A    
C41   C43   S    
C48   O9    S    
C16   H8    S    
C32   H3    S    
C61   N13   T    
C44   Cl13  S    
C10   N2    A    
C25   Cl7   S    
C27   C31   S    
C51   C52   A    
C23   O5    A    
C54   N6    T    
C46   N3    T    
C45   Cl12  S    
C8    Cl17  S    
C55   N7    T    
C48   N1    A    
C39   C43   S    
C29   C34   T    
C25   Cl4   S    
C28   Cl9   S    
C25   C28   S    
C42   C45   S    
C27   C55   S    
C43   C44   S    
C39   Cl10  S    
C45   C59   S    
C31   C32   S    
Cu2   O4    S    
C39   Cl15  S    
C56   N8    T    
C50   C51   A    
C41   C58   S    
C13   H7    S    
C27   Cl8   S    
C9    O11   S    
C36   O8    A    
C40   C41   S    
C21   C53   S    
C26   C30   S    
C24   N1    S    
C22   C24   A    
C3    C4    A    
Cu1   O5    S    
C31   C34   S    
C44   C45   S    
C25   C30   S    
C12   O4    A    
C11   C17   A    
C30   C33   S    
C11   C61   S    
C23   O6    A    
C28   C31   S    
Cu1   O7    S    
C41   H6    S    
C12   C14   S    
C4    C5    A    
C18   Cl19  S    
C6    C10   A    
C6    C7    A    
Cu2   N4    S    
C44   C60   S    
C26   Cl6   S    
C7    Cl16  S    
C32   C33   S    
C2    C3    A    
C22   Cl3   S    
C11   C13   A    
C38   C39   S    
C49   O10   S    
C58   N10   T    
C1    O1    A    
C42   C47   S    
C38   Cl14  S    
C19   Cl2   S    
Cu1   O1    S    
C43   C46   S    
C36   O7    A    
C20   C36   S    
C48   C52   A    
Cu2   O6    S    
C20   C21   A    
C57   N9    T    
C14   C15   A    
C5    C51   A    
C4    C9    A    
C13   C14   A    
C15   Cl18  S    
