data_mof_unit_5791.cif
_audit_creation_date              2012-12-10T17:13:37-0500
_audit_creation_method            fapswitch 2.2
_symmetry_space_group_name_H-M    P1
_symmetry_Int_Tables_number       1
_space_group_crystal_system       triclinic
_cell_length_a                    10.833014
_cell_length_b                    13.05651
_cell_length_c                    11.717418
_cell_angle_alpha                 99.933943
_cell_angle_beta                  93.880691
_cell_angle_gamma                 91.624916
_cell_volume                      1627.38478541

loop_
_atom_site_label
_atom_site_type_symbol
_atom_type_description
_atom_site_fract_x
_atom_site_fract_y
_atom_site_fract_z
_atom_type_partial_charge
C1    C     C_R   0.507383 0.299391 0.478585 0.819994
C2    C     C_3   0.878721 0.499610 0.501665 -0.131440
C3    C     C_3   0.937677 0.611541 0.564517 0.250061
C4    C     C_3   0.921575 0.472984 0.372765 -0.251636
C5    C     C_R   0.502484 0.814492 0.536439 -0.068785
C6    C     C_R   0.522636 0.185910 0.467242 -0.134302
C7    C     C_R   0.528040 0.013557 0.349628 -0.221894
C8    C     C_R   0.534852 0.121385 0.357851 -0.087705
C9    C     C_R   0.525163 0.140360 0.568680 0.386055
C10   C     C_R   0.516503 0.031749 0.558645 0.022809
C11   C     C_R   0.517126 0.968716 0.448363 0.115075
C12   C     C_R   0.260348 0.498871 0.500200 0.742167
C13   C     C_R   0.510101 0.861013 0.438024 -0.237895
C14   C     C_R   0.498215 0.876991 0.647202 0.454454
C15   C     C_R   0.503651 0.985209 0.656783 -0.262525
C16   C     C_R   0.370946 0.411885 0.021598 0.336541
C17   C     C_R   0.392812 0.410348 0.141952 0.000849
C18   C     C_R   0.545737 0.547670 0.159011 0.642075
C19   C     C_R   0.542366 0.538133 0.034570 -0.178642
C20   C     C_R   0.453746 0.468030 0.965441 -0.227521
C21   C     C_R   0.448381 0.458199 0.841495 0.659570
C22   C     C_R   0.609320 0.586708 0.854860 -0.079651
C23   C     C_R   0.500650 0.700840 0.521898 0.920719
C24   C     C_R   0.624050 0.595887 0.977058 0.356524
C25   C     C_R   0.740054 0.498890 0.499865 0.801930
C26   C     C_3   0.077325 0.421221 0.584564 0.278060
C27   C     C_3   0.928614 0.407252 0.567450 -0.133719
C28   C     C_3   0.082529 0.616095 0.543971 -0.077002
C29   C     C_3   0.061586 0.456645 0.377423 -0.596267
C30   C     C_3   0.122706 0.498692 0.502548 -0.102226
Cu1   Cu    Cu3+1 0.509350 0.507730 0.615930 1.064503
Cu2   Cu    Cu3+1 0.490650 0.492270 0.384070 1.018467
H1    H     H_    0.512066 0.813393 0.352809 0.173105
H2    H     H_    0.534605 0.964099 0.265870 0.143932
H3    H     H_    0.496036 0.032155 0.741441 0.163706
H4    H     H_    0.668162 0.632864 0.810837 0.135457
H5    H     H_    0.104539 0.490735 0.308386 0.187873
H6    H     H_    0.077961 0.372473 0.352515 0.219461
H7    H     H_    0.875454 0.397943 0.329040 0.232399
N1    N     N_R   0.523430 0.519360 0.790130 -0.216750
N2    N     N_R   0.476570 0.480640 0.209880 -0.256610
O1    O     O_R   0.506640 0.354460 0.582000 -0.487533
O2    O     O_R   0.490840 0.341410 0.386200 -0.597605
O3    O     O_R   0.325590 0.506510 0.597900 -0.507233
O4    O     O_R   0.309790 0.493450 0.402100 -0.652991
O5    O     O_R   0.509160 0.658590 0.613800 -0.530450
O6    O     O_R   0.493360 0.645540 0.418000 -0.564413
O7    O     O_R   0.690210 0.506550 0.597900 -0.614089
O8    O     O_R   0.674410 0.493490 0.402100 -0.495810
O9    O     O_3   0.115472 0.467631 0.700252 -0.729914
H8    H     H_    0.108456 0.416198 0.753053 0.376046
C31   C     C_2   0.888444 0.547215 0.290450 0.558009
H9    H     H_    0.920309 0.627832 0.308481 0.114460
O10   O     O_2   0.831206 0.514678 0.197281 -0.472101
C32   C     C_2   0.114328 0.682063 0.451280 0.295753
H10   H     H_    0.161601 0.649754 0.375735 0.092853
O11   O     O_2   0.096189 0.775191 0.464552 -0.502916
C33   C     C_2   0.872859 0.706187 0.529590 0.304602
H11   H     H_    0.904915 0.783368 0.573509 0.163046
O12   O     O_2   0.782906 0.698858 0.459829 -0.557113
O13   O     O_3   0.487972 0.831607 0.744622 -0.684454
H12   H     H_    0.486805 0.886524 0.814456 0.326171
C34   C     C_2   0.564235 0.160765 0.251146 0.469183
H13   H     H_    0.524460 0.120908 0.167152 0.097224
O14   O     O_2   0.640218 0.232369 0.254815 -0.519247
O15   O     O_3   0.536815 0.202876 0.676896 -0.695397
H14   H     H_    0.600331 0.173566 0.725594 0.340882
O16   O     O_3   0.370641 0.386048 0.769816 -0.627675
H15   H     H_    0.380838 0.318644 0.796569 0.382626
C35   C     C_2   0.142077 0.317232 0.560707 0.554283
H16   H     H_    0.200866 0.299726 0.489031 0.007144
O17   O     O_2   0.127213 0.251198 0.621348 -0.482572
O18   O     O_3   0.266736 0.362237 0.959020 -0.677614
H17   H     H_    0.199900 0.358619 0.012054 0.349253
O19   O     O_3   0.719715 0.657852 0.039463 -0.683792
H18   H     H_    0.768009 0.690859 0.985596 0.327940
C36   C     C_2   0.328024 0.327269 0.189990 0.396912
H19   H     H_    0.295833 0.339596 0.275659 0.109873
O20   O     O_2   0.309696 0.240457 0.131716 -0.536359
O21   O     O_3   0.616949 0.624350 0.230997 -0.607192
H20   H     H_    0.602421 0.690287 0.202161 0.326232
C37   C     C_2   0.877864 0.302593 0.493018 0.418069
H21   H     H_    0.779821 0.282329 0.491489 0.107415
O22   O     O_2   0.940284 0.243538 0.430530 -0.530706
C38   C     C_2   0.877265 0.407668 0.687783 0.421060
H22   H     H_    0.899467 0.470810 0.759562 0.169509
O23   O     O_2   0.812473 0.335663 0.708262 -0.537691
C39   C     C_2   0.158054 0.668962 0.656708 0.541555
H23   H     H_    0.139694 0.650452 0.740654 0.176914
O24   O     O_2   0.241795 0.733483 0.655751 -0.522602
O25   O     O_3   0.925854 0.621374 0.685037 -0.792764
H24   H     H_    0.839560 0.637380 0.702720 0.322006

loop_
_geom_bond_atom_site_label_1
_geom_bond_atom_site_label_2
_ccdc_geom_bond_type
C32   H10   S    
C34   O14   D    
Cu1   O1    S    
O18   H17   S    
C19   C20   A    
C6    C9    A    
C7    C8    A    
C36   H19   S    
C7    C11   A    
C26   C27   S    
C4    C31   S    
C3    C28   S    
C10   C15   A    
C26   O9    S    
O21   H20   S    
C33   O12   D    
Cu1   N1    S    
C3    O25   S    
C18   C19   A    
Cu2   O4    S    
C27   C38   S    
C9    O15   S    
C1    O2    A    
C16   C17   A    
Cu1   O5    S    
C29   H6    S    
C28   C39   S    
Cu2   N2    S    
C2    C27   S    
C9    C10   A    
C5    C13   A    
C4    C29   S    
C38   O23   D    
O15   H14   S    
C23   O5    A    
C15   H3    S    
C28   C32   S    
C31   O10   D    
C17   N2    A    
C36   O20   D    
C23   O6    A    
Cu1   O3    S    
C16   O18   S    
C18   N2    A    
O25   H24   S    
O16   H15   S    
C6    C8    A    
C33   H11   S    
C38   H22   S    
C14   O13   S    
C1    C6    S    
C2    C4    S    
O19   H18   S    
C13   H1    S    
C29   C30   S    
Cu1   Cu2   S    
C5    C23   S    
C4    H7    S    
C16   C20   A    
C22   N1    A    
C17   C36   S    
O9    H8    S    
C39   H23   S    
C25   O7    A    
C5    C14   A    
C35   H16   S    
C39   O24   D    
C26   C30   S    
C37   O22   D    
Cu1   O7    S    
C32   O11   D    
C21   O16   S    
C26   C35   S    
Cu2   O6    S    
C22   C24   A    
C31   H9    S    
C12   C30   S    
C27   C37   S    
C12   O4    A    
C24   O19   S    
C22   H4    S    
C28   C30   S    
C2    C3    S    
C12   O3    A    
C11   C13   A    
C21   N1    A    
C7    H2    S    
Cu2   O2    S    
C19   C24   A    
C2    C25   S    
O13   H12   S    
C25   O8    A    
Cu2   O8    S    
C10   C11   A    
C8    C34   S    
C34   H13   S    
C3    C33   S    
C1    O1    A    
C20   C21   A    
C18   O21   S    
C37   H21   S    
C29   H5    S    
C14   C15   A    
C35   O17   D    
