data_mof_unit_50154.cif
_audit_creation_date              2012-12-10T18:59:15-0500
_audit_creation_method            fapswitch 2.2
_symmetry_space_group_name_H-M    P1
_symmetry_Int_Tables_number       1
_space_group_crystal_system       triclinic
_cell_length_a                    10.747242
_cell_length_b                    10.874983
_cell_length_c                    9.595518
_cell_angle_alpha                 89.857329
_cell_angle_beta                  89.041901
_cell_angle_gamma                 90.876968
_cell_volume                      1121.19410283

loop_
_atom_site_label
_atom_site_type_symbol
_atom_type_description
_atom_site_fract_x
_atom_site_fract_y
_atom_site_fract_z
_atom_type_partial_charge
C1    C     C_R   0.499495 0.262919 0.500016 0.761459
C2    C     C_R   0.063040 0.383964 0.537396 -0.074330
C3    C     C_R   0.128834 0.493314 0.501733 -0.267380
C4    C     C_R   0.066526 0.599078 0.461310 0.576284
C5    C     C_R   0.937988 0.598773 0.459041 0.614547
C6    C     C_R   0.870815 0.492874 0.497778 -0.248958
C7    C     C_R   0.491617 0.061971 0.620569 -0.063475
C8    C     C_R   0.501414 0.130428 0.498674 -0.073113
C9    C     C_R   0.513327 0.065365 0.372187 -0.149174
C10   C     C_R   0.512733 0.936370 0.372172 -0.069154
C11   C     C_R   0.501750 0.870095 0.498598 -0.036683
C12   C     C_R   0.262763 0.498452 0.500808 0.902936
C13   C     C_R   0.492394 0.937830 0.620699 -0.101128
C14   C     C_3   0.467525 0.928370 0.773765 0.445787
C15   C     C_3   0.465836 0.069786 0.773229 0.817124
C16   C     C_R   0.606648 0.525285 0.070915 0.045354
C17   C     C_R   0.401159 0.456106 0.077946 -0.026511
C18   C     C_R   0.401340 0.453533 0.930434 0.520779
C19   C     C_R   0.606827 0.524508 0.924211 0.019429
C20   C     C_3   0.689805 0.634876 0.913420 0.364557
C21   C     C_3   0.687500 0.638144 0.072028 1.030947
C22   C     C_R   0.499879 0.737227 0.499826 0.885539
C23   C     C_R   0.737163 0.498814 0.499110 0.889703
C24   C     C_R   0.124787 0.274080 0.570444 -0.131207
C25   C     C_R   0.057265 0.167492 0.605425 0.756596
C26   C     C_R   0.927672 0.168285 0.607264 -0.162091
C27   C     C_R   0.864986 0.275275 0.572986 -0.168548
C28   C     C_R   0.931667 0.384170 0.537001 0.019689
Cu1   Cu    Cu3+1 0.499990 0.499980 0.640670 1.092290
Cu2   Cu    Cu3+1 0.500010 0.500020 0.359330 1.066101
H1    H     H_    0.544807 0.888362 0.832711 0.058502
H2    H     H_    0.321199 0.420628 0.135847 0.181988
H3    H     H_    0.646509 0.713958 0.861521 0.070947
H4    H     H_    0.225287 0.269551 0.568893 0.166568
H5    H     H_    0.875355 0.085474 0.634200 0.197284
H6    H     H_    0.764384 0.271474 0.573695 0.157755
H7    H     H_    0.521664 0.113318 0.273320 0.204737
H8    H     H_    0.519206 0.889539 0.273295 0.240017
N1    N     N_R   0.500790 0.500930 0.147930 -0.224470
N2    N     N_R   0.500790 0.500890 0.852020 -0.240480
O1    O     O_R   0.500000 0.319640 0.618810 -0.534458
O2    O     O_R   0.500010 0.319680 0.381230 -0.599052
O3    O     O_R   0.319640 0.499980 0.618820 -0.520146
O4    O     O_R   0.319650 0.500020 0.381230 -0.586093
O5    O     O_R   0.499990 0.680320 0.618770 -0.586021
O6    O     O_R   0.500000 0.680360 0.381190 -0.530505
O7    O     O_R   0.680350 0.499980 0.618770 -0.548237
O8    O     O_R   0.680360 0.500020 0.381180 -0.540409
F1    F     F_    0.130895 0.703270 0.425416 -0.571658
F2    F     F_    0.349828 0.116989 0.803549 -0.524319
Cl1   Cl    Cl    0.589403 0.140887 0.867169 -0.602817
Cl2   Cl    Cl    0.272768 0.377775 0.858453 -0.463070
F3    F     F_    0.805581 0.605453 0.858724 -0.568796
F4    F     F_    0.802156 0.617968 0.130836 -0.553101
F5    F     F_    0.628177 0.739973 0.125122 -0.681157
F6    F     F_    0.117859 0.062815 0.636948 -0.545925
F7    F     F_    0.878359 0.702881 0.421942 -0.566772
F8    F     F_    0.351914 0.875528 0.802743 -0.527682

loop_
_geom_bond_atom_site_label_1
_geom_bond_atom_site_label_2
_ccdc_geom_bond_type
C8    C9    A    
C16   C21   S    
C23   O8    A    
C15   Cl1   S    
C27   H6    S    
C1    C8    S    
C9    C10   A    
C14   H1    S    
C11   C22   S    
C19   C20   S    
C25   F6    S    
C5    F7    S    
C4    F1    S    
C10   H8    S    
C20   C21   S    
C7    C15   S    
C17   C18   A    
C18   Cl2   S    
C7    C8    A    
C12   O4    A    
C13   C14   S    
Cu1   O3    S    
C4    C5    A    
C11   C13   A    
Cu2   O4    S    
C26   C27   A    
Cu1   Cu2   S    
Cu1   O7    S    
C16   C19   A    
C5    C6    A    
C20   H3    S    
Cu1   N2    S    
C9    H7    S    
C22   O6    A    
Cu2   N1    S    
C2    C3    A    
C12   O3    A    
C19   N2    A    
C2    C24   A    
C21   F4    S    
C14   F8    S    
C6    C28   A    
C23   O7    A    
C10   C11   A    
C6    C23   S    
C16   N1    A    
C3    C4    A    
C1    O2    A    
C7    C13   A    
C22   O5    A    
C24   C25   A    
C17   N1    A    
C15   F2    S    
Cu2   O8    S    
C26   H5    S    
C21   F5    S    
C17   H2    S    
C18   N2    A    
C14   C15   S    
Cu2   O2    S    
C2    C28   A    
C3    C12   S    
Cu1   O1    S    
C25   C26   A    
Cu2   O6    S    
C24   H4    S    
C1    O1    A    
Cu1   O5    S    
C20   F3    S    
C27   C28   A    
