data_mof_unit_36652.cif
_audit_creation_date              2012-12-10T19:48:00-0500
_audit_creation_method            fapswitch 2.2
_symmetry_space_group_name_H-M    P1
_symmetry_Int_Tables_number       1
_space_group_crystal_system       triclinic
_cell_length_a                    15.158774
_cell_length_b                    14.193089
_cell_length_c                    10.735652
_cell_angle_alpha                 90.120504
_cell_angle_beta                  91.427831
_cell_angle_gamma                 89.758784
_cell_volume                      2309.03143532

loop_
_atom_site_label
_atom_site_type_symbol
_atom_type_description
_atom_site_fract_x
_atom_site_fract_y
_atom_site_fract_z
_atom_type_partial_charge
C1    C     C_R   0.328077 0.499714 0.511130 0.887462
C2    C     C_R   0.672153 0.499218 0.490880 0.892385
C3    C     C_R   0.048036 0.498757 0.518340 0.080972
C4    C     C_R   0.951850 0.499338 0.509341 0.080812
C5    C     C_R   0.460434 0.103952 0.402696 -0.282732
C6    C     C_R   0.566882 0.894606 0.562213 -0.321485
C7    C     C_R   0.539754 0.103981 0.597434 -0.282456
C8    C     C_R   0.433369 0.895061 0.437601 -0.321134
C9    C     C_R   0.456272 0.203549 0.405657 0.335309
C10   C     C_R   0.563981 0.795414 0.566218 0.315212
C11   C     C_R   0.543489 0.203601 0.594622 0.340578
C12   C     C_R   0.436371 0.795816 0.433153 0.316500
C13   C     C_R   0.500115 0.052763 0.500069 0.078791
C14   C     C_R   0.500074 0.946375 0.500087 0.088359
C15   C     C_R   0.511729 0.500169 0.260534 0.906296
C16   C     C_R   0.488262 0.500499 0.739456 0.902509
C17   C     C_R   0.545553 0.675447 0.114759 -0.069058
C18   C     C_R   0.447432 0.330556 0.889170 -0.071376
C19   C     C_R   0.457495 0.676857 0.886708 -0.076194
C20   C     C_R   0.547306 0.328398 0.109507 -0.072534
C21   C     C_R   0.526582 0.760763 0.056461 -0.190846
C22   C     C_R   0.468337 0.245062 0.946397 -0.152808
C23   C     C_R   0.477897 0.761531 0.945771 -0.189748
C24   C     C_R   0.523233 0.243860 0.052191 -0.154664
C25   C     C_R   0.483375 0.589056 0.939251 0.067608
C26   C     C_R   0.517876 0.415540 0.059542 0.062039
C27   C     C_R   0.518221 0.588448 0.061344 0.071562
C28   C     C_R   0.479452 0.416325 0.939813 0.061352
C29   C     C_R   0.474948 0.502309 0.874229 -0.228933
C30   C     C_R   0.524793 0.501374 0.125707 -0.226143
C31   C     C_R   0.093152 0.579910 0.554815 -0.201541
C32   C     C_R   0.905183 0.417689 0.536072 -0.209934
C33   C     C_R   0.907475 0.578390 0.462467 -0.200013
C34   C     C_R   0.094492 0.415808 0.495069 -0.209215
C35   C     C_R   0.184741 0.580816 0.561269 -0.019891
C36   C     C_R   0.815791 0.411939 0.508672 -0.032549
C37   C     C_R   0.816297 0.578059 0.446820 -0.022823
C38   C     C_R   0.185036 0.411907 0.512662 -0.029247
C39   C     C_R   0.232334 0.497427 0.531466 -0.195855
C40   C     C_R   0.768529 0.495926 0.478205 -0.188715
H1    H     H_    0.544374 0.177439 0.092593 0.142861
H2    H     H_    0.458564 0.827804 0.903210 0.146453
H3    H     H_    0.445153 0.179613 0.905576 0.144154
H4    H     H_    0.546847 0.826420 0.099758 0.145324
H5    H     H_    0.582138 0.679361 0.201321 0.217492
H6    H     H_    0.405862 0.329096 0.805801 0.191180
H7    H     H_    0.420662 0.681827 0.800511 0.221318
H8    H     H_    0.589286 0.325023 0.192400 0.184807
H9    H     H_    0.056640 0.642283 0.581624 0.175859
H10   H     H_    0.939283 0.355717 0.571299 0.175967
H11   H     H_    0.944389 0.639261 0.432774 0.176862
H12   H     H_    0.060042 0.352111 0.467700 0.174140
H13   H     H_    0.432270 0.065640 0.324779 0.149656
H14   H     H_    0.621964 0.930273 0.607230 0.164232
H15   H     H_    0.568221 0.065634 0.675123 0.149087
H16   H     H_    0.378474 0.931182 0.392309 0.163621
N1    N     N_R   0.500000 0.252470 0.500000 -0.152616
N2    N     N_R   0.500000 0.747530 0.500000 -0.133908
O1    O     O_R   0.369060 0.579480 0.500010 -0.606579
O2    O     O_R   0.630940 0.420520 0.499990 -0.629057
O3    O     O_R   0.630940 0.579480 0.499990 -0.609014
O4    O     O_R   0.369060 0.420520 0.500010 -0.630891
O5    O     O_R   0.499990 0.579480 0.316780 -0.603707
O6    O     O_R   0.500010 0.420520 0.683220 -0.632638
O7    O     O_R   0.500010 0.579480 0.683220 -0.602503
O8    O     O_R   0.499990 0.420520 0.316780 -0.635820
Zn1   Zn    Zn3+2 0.500000 0.606140 0.500000 0.996319
Zn2   Zn    Zn3+2 0.500000 0.393860 0.500000 0.975269
C41   C     C_2   0.225970 0.667507 0.611622 0.895533
O9    O     O_2   0.286437 0.661922 0.688196 -0.665280
O10   O     O_R   0.191866 0.755760 0.577577 -0.818115
H17   H     H_    0.225087 0.809572 0.619308 0.342554
C42   C     C_2   0.779245 0.315154 0.498048 0.926700
O11   O     O_2   0.731608 0.293766 0.408839 -0.623481
O12   O     O_R   0.806825 0.245842 0.582861 -0.821208
H18   H     H_    0.783564 0.181170 0.559348 0.340687
C43   C     C_2   0.776004 0.660397 0.383186 0.897298
O13   O     O_2   0.719193 0.648579 0.302404 -0.666556
O14   O     O_R   0.806924 0.751119 0.409821 -0.818684
H19   H     H_    0.774682 0.801335 0.359158 0.342633
C44   C     C_2   0.223982 0.315904 0.523028 0.932342
O15   O     O_2   0.274927 0.296752 0.609555 -0.632283
O16   O     O_R   0.195820 0.245034 0.440878 -0.819503
H20   H     H_    0.222311 0.181349 0.463049 0.339931
N3    N     N_2   0.407295 0.253529 0.310713 -0.282721
H21   H     H_    0.378977 0.314855 0.339964 0.285243
C45   C     C_3   0.349743 0.203268 0.223576 -0.787169
H22   H     H_    0.315837 0.254373 0.160234 0.260472
H23   H     H_    0.299165 0.163185 0.273885 0.256726
H24   H     H_    0.388074 0.154441 0.164924 0.232877
N4    N     N_2   0.630701 0.744586 0.633172 -0.259926
H25   H     H_    0.685337 0.731016 0.581111 0.253104
C46   C     C_3   0.653737 0.776181 0.758227 -0.768750
H26   H     H_    0.658616 0.714177 0.820865 0.267443
H27   H     H_    0.603816 0.825626 0.795040 0.234368
H28   H     H_    0.718553 0.812501 0.758953 0.233769
N5    N     N_2   0.591769 0.253787 0.689885 -0.279696
H29   H     H_    0.622341 0.313297 0.659730 0.282112
C47   C     C_3   0.645511 0.203454 0.781826 -0.783729
H30   H     H_    0.677793 0.254669 0.846509 0.261632
H31   H     H_    0.697297 0.161398 0.736068 0.253791
H32   H     H_    0.604469 0.156186 0.838148 0.232965
N6    N     N_2   0.371110 0.745322 0.363268 -0.260305
H33   H     H_    0.316861 0.728761 0.414171 0.255327
C48   C     C_3   0.347151 0.779877 0.240024 -0.773806
H34   H     H_    0.338198 0.719115 0.175775 0.266533
H35   H     H_    0.398703 0.826513 0.202744 0.236647
H36   H     H_    0.284213 0.820157 0.242994 0.234804

loop_
_geom_bond_atom_site_label_1
_geom_bond_atom_site_label_2
_ccdc_geom_bond_type
O8    Zn2   S    
C45   H22   S    
C46   H26   S    
C42   O11   D    
C19   C23   A    
C7    H15   S    
C1    O4    A    
C8    H16   S    
N5    H29   S    
C43   O13   D    
C7    C11   A    
C48   H35   S    
C23   H2    S    
O6    Zn2   S    
C5    H13   S    
C28   C29   A    
C10   N2    A    
C17   H5    S    
C37   C40   A    
C1    O1    A    
C38   C39   A    
C19   H7    S    
C6    C14   A    
O1    Zn1   S    
C41   O10   S    
C9    N3    S    
O16   H20   S    
O7    Zn1   S    
C5    C13   A    
C2    O3    A    
C12   N2    A    
N3    C45   S    
C46   H27   S    
C18   C22   A    
C13   C14   S    
C27   C30   A    
C24   H1    S    
C42   O12   S    
C2    O2    A    
C31   H9    S    
C18   H6    S    
C44   O16   S    
C44   O15   D    
C43   O14   S    
C25   C29   A    
C48   H36   S    
O5    Zn1   S    
C17   C27   A    
C20   C24   A    
C36   C40   A    
C18   C28   A    
C12   N6    S    
N5    C47   S    
N4    H25   S    
C3    C34   A    
C16   C29   S    
N3    H21   S    
C15   O8    A    
C37   C43   S    
C33   C37   A    
C35   C39   A    
O12   H18   S    
C5    C9    A    
N4    C46   S    
C21   H4    S    
O3    Zn1   S    
C47   H30   S    
C8    C12   A    
N6    C48   S    
C4    C32   A    
C3    C31   A    
C32   H10   S    
C20   H8    S    
C47   H31   S    
C10   N4    S    
C6    H14   S    
C46   H28   S    
C21   C23   A    
C38   C44   S    
C22   C24   A    
C33   H11   S    
N1    Zn2   S    
C3    C4    S    
C32   C36   A    
C15   C30   S    
C4    C33   A    
C8    C14   A    
C34   C38   A    
C34   H12   S    
C6    C10   A    
C26   C30   A    
C25   C27   A    
C48   H34   S    
C26   C28   A    
O4    Zn2   S    
C11   N5    S    
O2    Zn2   S    
C45   H23   S    
O10   H17   S    
C20   C26   A    
C31   C35   A    
C9    N1    A    
C41   O9    D    
C19   C25   A    
C17   C21   A    
C36   C42   S    
C1    C39   S    
O14   H19   S    
C2    C40   S    
N2    Zn1   S    
C7    C13   A    
C47   H32   S    
C35   C41   S    
C45   H24   S    
N6    H33   S    
C15   O5    A    
C16   O7    A    
C16   O6    A    
C11   N1    A    
C22   H3    S    
