data_mof_unit_36619.cif
_audit_creation_date              2012-12-10T18:59:16-0500
_audit_creation_method            fapswitch 2.2
_symmetry_space_group_name_H-M    P1
_symmetry_Int_Tables_number       1
_space_group_crystal_system       triclinic
_cell_length_a                    10.785144
_cell_length_b                    10.824386
_cell_length_c                    9.53668
_cell_angle_alpha                 89.574042
_cell_angle_beta                  90.08332
_cell_angle_gamma                 89.830897
_cell_volume                      1113.29962478

loop_
_atom_site_label
_atom_site_type_symbol
_atom_type_description
_atom_site_fract_x
_atom_site_fract_y
_atom_site_fract_z
_atom_type_partial_charge
C1    C     C_R   0.496327 0.262437 0.500522 0.792707
C2    C     C_R   0.066350 0.396894 0.581901 0.102047
C3    C     C_R   0.129027 0.486313 0.499678 -0.098286
C4    C     C_R   0.063612 0.569409 0.414750 -0.199955
C5    C     C_R   0.935758 0.569390 0.415014 -0.213020
C6    C     C_R   0.871303 0.486701 0.500731 -0.105009
C7    C     C_R   0.490165 0.062126 0.625355 0.115044
C8    C     C_R   0.479325 0.130006 0.501485 -0.141122
C9    C     C_R   0.444235 0.068736 0.378592 -0.212950
C10   C     C_R   0.441393 0.939246 0.374566 0.153280
C11   C     C_R   0.476342 0.871272 0.497212 -0.125871
C12   C     C_R   0.262607 0.495577 0.499964 0.782503
C13   C     C_R   0.489099 0.935313 0.623028 0.097670
C14   C     C_3   0.585386 0.925253 0.735341 -0.464274
C15   C     C_3   0.586842 0.065482 0.737412 -0.464709
C16   C     C_R   0.562881 0.588918 0.073018 0.248525
C17   C     C_R   0.428862 0.419464 0.075020 -0.069818
C18   C     C_R   0.428932 0.419383 0.926065 -0.074189
C19   C     C_R   0.562953 0.588862 0.925583 0.259068
C20   C     C_3   0.698913 0.613249 0.919957 -0.495288
C21   C     C_3   0.698701 0.613729 0.078994 -0.509637
C22   C     C_R   0.494023 0.737807 0.498984 0.813243
C23   C     C_R   0.737487 0.495426 0.500226 0.794445
C24   C     C_R   0.130709 0.304306 0.658538 -0.185856
C25   C     C_R   0.066569 0.217111 0.738185 -0.136862
C26   C     C_R   0.937730 0.218640 0.740923 -0.141972
C27   C     C_R   0.872234 0.306886 0.663258 -0.199040
C28   C     C_R   0.935217 0.397664 0.583368 0.099381
Cu1   Cu    Cu3+1 0.499990 0.499980 0.640670 0.933611
Cu2   Cu    Cu3+1 0.500010 0.500020 0.359330 0.935689
H1    H     H_    0.111936 0.636709 0.350380 0.148760
H2    H     H_    0.673593 0.884062 0.697201 0.190945
H3    H     H_    0.550856 0.104835 0.836768 0.196986
H4    H     H_    0.675690 0.105029 0.699818 0.189335
H5    H     H_    0.373191 0.352679 0.131404 0.135044
H6    H     H_    0.373432 0.352462 0.870652 0.133958
H7    H     H_    0.752700 0.534845 0.875969 0.227295
H8    H     H_    0.720232 0.704991 0.873113 0.189748
H9    H     H_    0.752692 0.535798 0.125133 0.227528
H10   H     H_    0.719253 0.705901 0.123931 0.188106
H11   H     H_    0.230534 0.296276 0.655683 0.140104
H12   H     H_    0.117079 0.147073 0.796588 0.130037
H13   H     H_    0.888308 0.149924 0.801838 0.133009
H14   H     H_    0.772389 0.301350 0.664824 0.149631
H15   H     H_    0.886699 0.636533 0.350609 0.147620
H16   H     H_    0.424502 0.121393 0.284002 0.159835
H17   H     H_    0.548006 0.883611 0.833408 0.197955
N1    N     N_R   0.500790 0.500930 0.147930 -0.183286
N2    N     N_R   0.500790 0.500890 0.852020 -0.185404
O1    O     O_R   0.500000 0.319640 0.618810 -0.593881
O2    O     O_R   0.500010 0.319680 0.381230 -0.585320
O3    O     O_R   0.319640 0.499980 0.618820 -0.583190
O4    O     O_R   0.319650 0.500020 0.381230 -0.582677
O5    O     O_R   0.499990 0.680320 0.618770 -0.574383
O6    O     O_R   0.500000 0.680360 0.381190 -0.577362
O7    O     O_R   0.680350 0.499980 0.618770 -0.588719
O8    O     O_R   0.680360 0.500020 0.381180 -0.576593
C29   C     C_3   0.405353 0.879090 0.238177 -0.826361
H18   H     H_    0.331526 0.809602 0.256859 0.235266
H19   H     H_    0.368283 0.947452 0.161289 0.207507
H20   H     H_    0.487614 0.835006 0.189615 0.239152

loop_
_geom_bond_atom_site_label_1
_geom_bond_atom_site_label_2
_ccdc_geom_bond_type
C25   H12   S    
Cu2   O2    S    
C15   H4    S    
C14   H17   S    
C20   H7    S    
Cu1   O7    S    
C1    C8    S    
C20   H8    S    
C9    C10   A    
C19   N2    A    
C11   C22   S    
C12   O4    A    
C21   H9    S    
C17   N1    A    
C10   C11   A    
C16   N1    A    
C29   H20   S    
C7    C15   S    
C2    C3    A    
C25   C26   A    
C22   O6    A    
C7    C8    A    
C22   O5    A    
Cu1   N2    S    
C13   C14   S    
C20   C21   S    
C24   H11   S    
C1    O2    A    
C23   O7    A    
C26   C27   A    
C16   C21   S    
C21   H10   S    
C18   H6    S    
C16   C19   A    
C6    C23   S    
Cu2   N1    S    
C12   O3    A    
C26   H13   S    
C17   C18   A    
C29   H19   S    
C9    H16   S    
Cu1   O1    S    
C2    C24   A    
C5    C6    A    
Cu2   O4    S    
C11   C13   A    
C1    O1    A    
Cu1   O5    S    
Cu1   Cu2   S    
C3    C4    A    
C4    H1    S    
Cu2   O8    S    
C7    C13   A    
C24   C25   A    
Cu2   O6    S    
C27   C28   A    
C23   O8    A    
C14   C15   S    
C4    C5    A    
C2    C28   A    
C3    C12   S    
C17   H5    S    
C10   C29   S    
C29   H18   S    
C5    H15   S    
C27   H14   S    
C15   H3    S    
C6    C28   A    
C19   C20   S    
C18   N2    A    
C14   H2    S    
C8    C9    A    
Cu1   O3    S    
