data_mof_unit_67800.cif
_audit_creation_date              2013-03-05T15:41:22-0500
_audit_creation_method            fapswitch 2.2
_symmetry_space_group_name_H-M    P1
_symmetry_Int_Tables_number       1
_space_group_crystal_system       triclinic
_cell_length_a                    8.477686
_cell_length_b                    9.402552
_cell_length_c                    11.395017
_cell_angle_alpha                 97.62718
_cell_angle_beta                  82.309201
_cell_angle_gamma                 90.487007
_cell_volume                      892.144117627

loop_
_atom_site_label
_atom_site_type_symbol
_atom_site_description
_atom_site_fract_x
_atom_site_fract_y
_atom_site_fract_z
_atom_type_partial_charge
O1    O     O_R   0.389250 0.738570 0.508370 -0.492873
O2    O     O_R   0.678390 0.711620 0.486510 -0.536793
C1    C     C_R   0.540913 0.791862 0.497816 0.994662
O3    O     O_R   0.355430 0.513500 0.696140 -0.533542
O4    O     O_R   0.644580 0.486550 0.674270 -0.560809
C2    C     C_R   0.498147 0.499243 0.741935 0.921345
Zn1   Zn    Zn3+2 0.306940 0.517990 0.514600 1.205828
Zn2   Zn    Zn3+2 0.693060 0.482010 0.485400 1.173350
O5    O     O_R   0.321610 0.288380 0.513490 -0.523880
O6    O     O_R   0.610750 0.261430 0.491630 -0.630653
O7    O     O_R   0.355420 0.513450 0.325730 -0.587371
O8    O     O_R   0.644570 0.486500 0.303860 -0.528460
C3    C     C_R   0.460975 0.211159 0.504331 0.830423
C4    C     C_R   0.502629 0.497524 0.260421 0.966896
C5    C     C_3   0.359842 0.584913 0.965577 0.111957
H1    H     H_    0.263279 0.514628 0.964621 0.174174
C6    C     C_3   0.373198 0.610492 0.103920 -0.351952
C7    C     C_3   0.476872 0.327441 0.913865 -0.374261
C8    C     C_3   0.652216 0.569951 0.928311 -0.307193
C9    C     C_3   0.499401 0.492567 0.881923 -0.220189
H2    H     H_    0.615517 0.682611 0.937488 0.177504
C10   C     C_3   0.505269 0.492556 0.124427 -0.337562
C11   C     C_3   0.475103 0.327091 0.060951 0.114518
C12   C     C_3   0.675868 0.546442 0.059364 0.073521
C13   C     C_2   0.563286 0.952777 0.491992 -0.306314
C14   C     C_2   0.445817 0.057178 0.518230 0.224220
N1    N     N_2   0.950330 0.457950 0.465890 -0.152029
N2    N     N_2   0.049670 0.542050 0.534110 0.029951
S1    S     S_3+6 0.845688 0.429461 0.047968 0.059776
O9    O     O_2   0.860233 0.373858 0.161529 -0.143425
O10   O     O_2   0.859362 0.306871 0.949045 -0.284235
O11   O     O_3   0.999606 0.533155 0.018925 -0.551940
H3    H     H_    0.036983 0.500864 0.935028 0.403647
C15   C     C_2   0.597686 0.223377 0.833152 1.012661
O12   O     O_2   0.580494 0.093742 0.826967 -0.514250
O13   O     O_R   0.719575 0.270876 0.756203 -0.708764
H4    H     H_    0.808005 0.198227 0.730031 0.392478
C16   C     C_2   0.593313 0.220621 0.099221 1.061811
O14   O     O_2   0.600679 0.218556 0.205646 -0.583003
O15   O     O_R   0.682157 0.116115 0.019898 -0.712822
H5    H     H_    0.761438 0.063856 0.058549 0.400695
C17   C     C_2   0.727915 0.998959 0.484053 0.985511
O16   O     O_2   0.797421 0.036521 0.392509 -0.576289
O17   O     O_R   0.801754 0.999642 0.585502 -0.746759
H6    H     H_    0.915816 0.029094 0.572234 0.384916
S2    S     S_3+6 0.269461 0.018390 0.595934 0.051860
O18   O     O_2   0.188619 0.932591 0.502515 -0.242812
O19   O     O_2   0.311837 0.934479 0.689603 -0.187248
O20   O     O_3   0.153121 0.156179 0.663061 -0.486667
H7    H     H_    0.065595 0.113433 0.712590 0.361277
C18   C     C_2   0.996571 0.317934 0.416834 1.165871
O21   O     O_2   0.963213 0.270592 0.319056 -0.459025
O22   O     O_R   0.049023 0.224745 0.485656 -0.755919
H8    H     H_    0.081820 0.130634 0.434677 0.386383
S3    S     S_3+6 0.971019 0.707083 0.579131 0.194195
O23   O     O_2   0.965962 0.775433 0.468189 -0.261238
O24   O     O_2   0.809294 0.700252 0.646418 -0.273822
O25   O     O_3   0.072555 0.800752 0.674675 -0.379240
H9    H     H_    0.998426 0.876421 0.718722 0.400836
S4    S     S_3+6 0.293387 0.735754 0.903928 0.132199
O26   O     O_2   0.174598 0.681751 0.825077 -0.204616
O27   O     O_2   0.208562 0.848260 0.994017 -0.144329
O28   O     O_3   0.448842 0.803692 0.823113 -0.486122
H10   H     H_    0.495901 0.873402 0.880351 0.453317
C19   C     C_2   0.425806 0.761183 0.154867 0.904166
O29   O     O_2   0.405705 0.797845 0.263254 -0.605347
O30   O     O_R   0.500636 0.856607 0.083359 -0.761683
H11   H     H_    0.545310 0.939737 0.133920 0.385657
C20   C     C_2   0.200025 0.616175 0.171641 1.124171
O31   O     O_2   0.136485 0.515427 0.214503 -0.490111
O32   O     O_R   0.112793 0.744761 0.188125 -0.700340
H12   H     H_    0.010627 0.740951 0.243963 0.386059
C21   C     C_2   0.320957 0.263483 0.872910 0.983261
O33   O     O_2   0.231676 0.332311 0.826439 -0.600791
O34   O     O_R   0.280145 0.121913 0.888002 -0.603250
H13   H     H_    0.164569 0.099545 0.880802 0.398629
S5    S     S_3+6 0.294225 0.245140 0.130659 0.066187
O35   O     O_2   0.277598 0.271700 0.263825 -0.322889
O36   O     O_2   0.144863 0.285405 0.086892 -0.163001
O37   O     O_3   0.309295 0.068165 0.100663 -0.459940
H14   H     H_    0.238663 0.031629 0.166490 0.427676
C22   C     C_2   0.807649 0.587695 0.847727 1.145266
O38   O     O_2   0.868318 0.706211 0.852470 -0.508498
O39   O     O_R   0.890629 0.472745 0.776988 -0.690400
H15   H     H_    0.001268 0.496881 0.741227 0.371252
C23   C     C_2   0.740277 0.687301 0.124898 0.973006
O40   O     O_2   0.815671 0.773919 0.069338 -0.519005
O41   O     O_R   0.716116 0.719879 0.248119 -0.802560
H16   H     H_    0.755221 0.818463 0.275272 0.363111

loop_
_geom_bond_atom_site_label_1
_geom_bond_atom_site_label_2
_geom_bond_distance
_ccdc_geom_bond_type
S3    O23   1.497879 D    
C6    C20   1.562315 S    
C5    S4    1.790661 S    
C8    C9    1.597612 S    
S5    O35   1.492500 D    
Zn1   O7    2.131141 S    
S2    O20   1.671253 S    
S4    O28   1.676295 S    
S4    O27   1.488983 D    
O13   H4    1.006164 S    
C8    H2    1.094222 S    
S1    O11   1.646589 S    
O4    C2    1.368122 A    
O7    C4    1.363358 A    
C23   O41   1.384633 S    
C5    H1    1.047995 S    
C18   O21   1.212459 D    
Zn1   O5    2.161818 S    
C15   O12   1.220188 D    
C21   O33   1.216008 D    
C20   O32   1.400601 S    
O5    C3    1.376756 A    
C12   S1    1.799534 S    
C19   O30   1.384723 S    
C8    C22   1.523309 S    
C15   O13   1.374653 S    
C21   O34   1.399351 S    
C17   O17   1.385608 S    
O3    Zn1   2.168221 S    
N2    S3    1.682370 S    
N1    C18   1.397899 S    
S5    O36   1.490884 D    
C5    C9    1.599462 S    
S2    O19   1.490578 D    
C7    C11   1.674548 S    
C1    C13   1.532309 S    
O39   H15   1.007946 S    
O3    C2    1.394442 A    
C23   O40   1.221620 D    
O25   H9    0.990683 S    
O22   H8    1.011083 S    
Zn1   N2    2.173213 S    
O30   H11   1.010036 S    
S4    O26   1.480437 D    
C18   O22   1.364874 S    
O34   H13   1.012144 S    
S1    O9    1.478663 D    
Zn2   O8    2.168220 S    
C11   S5    1.841871 S    
C7    C15   1.542190 S    
O15   H5    1.014617 S    
O8    C4    1.370740 A    
C22   O38   1.221049 D    
C7    C21   1.550377 S    
C22   O39   1.393802 S    
S3    O24   1.483925 D    
O20   H7    0.986778 S    
C10   C12   1.642677 S    
C3    C14   1.479873 S    
C17   O16   1.220591 D    
O17   H6    1.001016 S    
S5    O37   1.656209 S    
C5    C6    1.581909 S    
S2    O18   1.487144 D    
O1    Zn1   2.189687 S    
O2    Zn2   2.161818 S    
O37   H14   0.991920 S    
O6    C3    1.347365 A    
C13   C17   1.452921 S    
O4    Zn2   2.131142 S    
C11   C16   1.564154 S    
C2    C9    1.606165 S    
C6    C19   1.543928 S    
C6    C10   1.642507 S    
O11   H3    0.974697 S    
C4    C10   1.541300 S    
C8    C12   1.577238 S    
C13   C14   1.379777 D    
O32   H12   1.007140 S    
S1    O10   1.495026 D    
C16   O15   1.394434 S    
C16   O14   1.225353 D    
O2    C1    1.375924 A    
C7    C9    1.644959 S    
C20   O31   1.212349 D    
C14   S2    1.695415 S    
O28   H10   0.982798 S    
O41   H16   1.005463 S    
Zn2   O6    2.189685 S    
C19   O29   1.226752 D    
S3    O25   1.638714 S    
N1    N2    1.392688 D    
Zn2   N1    2.173213 S    
C10   C11   1.659243 S    
O1    C1    1.371989 A    
C12   C23   1.563404 S    
