data_mof_unit_18900.cif
_audit_creation_date              2012-12-10T17:05:14-0500
_audit_creation_method            fapswitch 2.2
_symmetry_space_group_name_H-M    P1
_symmetry_Int_Tables_number       1
_space_group_crystal_system       triclinic
_cell_length_a                    10.785883
_cell_length_b                    11.049958
_cell_length_c                    9.839326
_cell_angle_alpha                 111.720028
_cell_angle_beta                  98.238976
_cell_angle_gamma                 90.688342
_cell_volume                      1075.48336259

loop_
_atom_site_label
_atom_site_type_symbol
_atom_type_description
_atom_site_fract_x
_atom_site_fract_y
_atom_site_fract_z
_atom_type_partial_charge
C1    C     C_R   0.493008 0.253426 0.439468 0.781976
C2    C     C_2   0.492698 0.489280 0.920987 0.068973
C3    C     C_R   0.260238 0.499763 0.501676 0.791383
C4    C     C_R   0.510114 0.746144 0.560103 0.853236
C5    C     C_R   0.739676 0.497113 0.498029 0.786203
C6    C     C_3   0.088682 0.507407 0.657451 -0.152195
C7    C     C_3   0.946701 0.516388 0.654917 -0.405117
C8    C     C_3   0.069107 0.608614 0.459760 -0.401095
C9    C     C_3   0.058155 0.363167 0.380750 -0.063336
C10   C     C_3   0.122555 0.495044 0.502654 -0.012325
C11   C     C_2   0.157771 0.617861 0.792469 0.882050
C12   C     C_3   0.877364 0.493405 0.495458 0.021249
C13   C     C_2   0.840077 0.322872 0.224779 0.835189
C14   C     C_2   0.474201 0.023981 0.242584 0.850098
C15   C     C_3   0.652868 0.653965 0.955684 -0.513195
C16   C     C_3   0.885816 0.744363 0.544225 -0.845332
C17   C     C_3   0.125310 0.239739 0.381037 -0.853866
C18   C     C_3   0.870569 0.244188 0.433840 -0.788037
C19   C     C_3   0.924816 0.607602 0.452467 -0.046089
C20   C     C_3   0.911166 0.355395 0.383153 0.086605
C21   C     C_2   0.492555 0.112203 0.401860 -0.173380
C22   C     C_2   0.508855 0.067593 0.512604 -0.230439
C23   C     C_2   0.514112 0.885948 0.594539 -0.345833
C24   C     C_2   0.520128 0.929828 0.486463 -0.111226
C25   C     C_2   0.512459 0.509530 0.083970 -0.050422
Cu1   Cu    Cu3+1 0.522160 0.521810 0.644910 0.964959
Cu2   Cu    Cu3+1 0.477840 0.478190 0.355090 0.983985
H1    H     H_    0.091360 0.598988 0.349283 0.178509
H2    H     H_    0.910904 0.445423 0.698353 0.179286
H3    H     H_    0.924980 0.612348 0.734430 0.194361
H4    H     H_    0.116553 0.703633 0.538243 0.222770
H5    H     H_    0.073559 0.367396 0.273084 0.200631
H6    H     H_    0.259586 0.669034 0.996660 0.343616
H7    H     H_    0.699854 0.216542 0.062845 0.346282
H8    H     H_    0.385450 0.863573 0.079874 0.335406
H9    H     H_    0.694938 0.698491 0.887295 0.229329
H10   H     H_    0.612631 0.732706 0.042107 0.177344
H11   H     H_    0.728768 0.610147 0.007345 0.179285
H12   H     H_    0.881621 0.590452 0.337122 0.202162
H13   H     H_    0.931031 0.779333 0.661758 0.273567
H14   H     H_    0.914837 0.815829 0.497645 0.239340
H15   H     H_    0.782443 0.744979 0.538987 0.216962
H16   H     H_    0.076914 0.151433 0.290241 0.253789
H17   H     H_    0.222671 0.244673 0.358703 0.234103
H18   H     H_    0.129935 0.226502 0.487795 0.236670
H19   H     H_    0.771088 0.248878 0.451343 0.226741
H20   H     H_    0.878506 0.146162 0.348696 0.252041
H21   H     H_    0.928597 0.248105 0.537935 0.220992
H22   H     H_    0.531901 0.862336 0.377078 0.197837
H23   H     H_    0.516511 0.135001 0.627217 0.181335
H24   H     H_    0.507744 0.952372 0.706542 0.172182
H25   H     H_    0.420471 0.415700 0.847764 0.140617
H26   H     H_    0.585556 0.579847 0.160421 0.164578
H27   H     H_    0.113268 0.416246 0.674718 0.140219
H28   H     H_    0.375105 0.378747 0.064095 0.208083
N1    N     N_2   0.444530 0.445420 0.137360 -0.276551
N2    N     N_2   0.555520 0.554510 0.862630 -0.139483
O1    O     O_R   0.511820 0.332340 0.577400 -0.594594
O2    O     O_R   0.220913 0.588538 0.909568 -0.777255
O3    O     O_2   0.870095 0.379875 0.147615 -0.651110
O4    O     O_R   0.739401 0.227719 0.167059 -0.701349
O5    O     O_2   0.530754 0.049958 0.156553 -0.557834
O6    O     O_R   0.389560 0.913929 0.190119 -0.770425
O7    O     O_R   0.474400 0.295500 0.332650 -0.530563
O8    O     O_R   0.336400 0.518400 0.622370 -0.573272
O9    O     O_R   0.298980 0.481560 0.377620 -0.578621
O10   O     O_R   0.525600 0.704500 0.667350 -0.564365
O11   O     O_R   0.488180 0.667660 0.422600 -0.576970
O12   O     O_R   0.701020 0.518440 0.622380 -0.583542
O13   O     O_R   0.663600 0.481600 0.377630 -0.575146
O14   O     O_2   0.155382 0.731195 0.801709 -0.610974

loop_
_geom_bond_atom_site_label_1
_geom_bond_atom_site_label_2
_ccdc_geom_bond_type
C6    C10   S    
C4    O10   A    
C5    O12   A    
H28   N1    S    
C17   H16   S    
C15   H11   S    
C1    C21   S    
C6    C7    S    
C7    H2    S    
Cu1   O1    S    
C9    C10   S    
C9    C20   S    
C23   H24   S    
C3    C10   S    
C25   N1    D    
C22   H23   S    
C18   H20   S    
C12   C20   S    
C4    O11   A    
C2    N2    D    
C18   H21   S    
H6    O2    S    
C13   O3    D    
C21   C22   D    
C15   N2    S    
Cu1   Cu2   S    
C3    O8    A    
Cu2   O13   S    
C2    H25   S    
C16   H13   S    
C16   C19   S    
C11   O2    S    
Cu1   O10   S    
C18   H19   S    
C14   C21   S    
C9    C17   S    
C8    H4    S    
C6    H27   S    
C7    H3    S    
C2    C25   S    
C11   O14   D    
H7    O4    S    
C7    C12   S    
C8    H1    S    
Cu1   N2    S    
C22   C24   S    
C17   H17   S    
C8    C19   S    
Cu2   O7    S    
C14   O6    S    
C23   C24   D    
C3    O9    A    
C1    O7    A    
C16   H15   S    
C15   H9    S    
C24   H22   S    
C13   O4    S    
C12   C19   S    
C5    C12   S    
C19   H12   S    
C18   C20   S    
C6    C11   S    
Cu2   O9    S    
Cu1   O12   S    
Cu2   N1    S    
C15   H10   S    
H8    O6    S    
Cu2   O11   S    
C13   C20   S    
C4    C23   S    
C1    O1    A    
Cu1   O8    S    
C9    H5    S    
C16   H14   S    
C8    C10   S    
C17   H18   S    
C25   H26   S    
C5    O13   A    
C14   O5    D    
