data_mof_unit_18336.cif
_audit_creation_date              2013-03-05T15:58:28-0500
_audit_creation_method            fapswitch 2.2
_symmetry_space_group_name_H-M    P1
_symmetry_Int_Tables_number       1
_space_group_crystal_system       triclinic
_cell_length_a                    11.51424
_cell_length_b                    12.748366
_cell_length_c                    13.092625
_cell_angle_alpha                 81.785033
_cell_angle_beta                  93.578779
_cell_angle_gamma                 102.536139
_cell_volume                      1855.78773153

loop_
_atom_site_label
_atom_site_type_symbol
_atom_site_description
_atom_site_fract_x
_atom_site_fract_y
_atom_site_fract_z
_atom_type_partial_charge
O1    O     O_R   0.471500 0.366730 0.627160 -0.551082
O2    O     O_R   0.509620 0.544830 0.662520 -0.591339
C1    C     C_R   0.468325 0.440175 0.688210 0.928957
O3    O     O_R   0.646490 0.410960 0.482310 -0.563543
O4    O     O_R   0.684610 0.589050 0.517670 -0.615693
C2    C     C_R   0.717646 0.501314 0.500690 0.915878
Zn1   Zn    Zn3+2 0.474550 0.381080 0.476390 1.059414
Zn2   Zn    Zn3+2 0.525450 0.618920 0.523610 1.062008
O5    O     O_R   0.490380 0.455170 0.337480 -0.631365
O6    O     O_R   0.528500 0.633270 0.372840 -0.538530
O7    O     O_R   0.315390 0.410950 0.482330 -0.619141
O8    O     O_R   0.353510 0.589040 0.517690 -0.567542
C3    C     C_R   0.517182 0.560475 0.308814 0.928437
C4    C     C_R   0.282291 0.498200 0.500325 0.925620
C5    C     C_1   0.838999 0.503358 0.501540 -0.091275
C6    C     C_1   0.940931 0.501233 0.501460 0.042954
C7    C     C_1   0.058823 0.497121 0.500790 0.023535
C8    C     C_1   0.160828 0.495424 0.500317 -0.093446
C9    C     C_R   0.559592 0.728257 0.045958 -0.114520
H1    H     H_    0.592163 0.810695 0.010537 0.221398
C10   C     C_R   0.526228 0.594946 0.197800 -0.152030
C11   C     C_R   0.392601 0.294219 0.833870 0.257504
C12   C     C_R   0.416272 0.265053 0.938760 -0.219150
C13   C     C_R   0.460850 0.344558 0.002675 0.277902
C14   C     C_R   0.456036 0.454962 0.966205 -0.073872
C15   C     C_R   0.429354 0.483516 0.860946 -0.164540
C16   C     C_R   0.480092 0.538816 0.029080 0.059956
C17   C     C_R   0.500533 0.648736 0.985356 -0.109544
C18   C     C_R   0.456797 0.674982 0.884627 0.188064
C19   C     C_R   0.410853 0.590113 0.826080 0.477214
C20   C     C_R   0.474695 0.516689 0.134982 -0.158777
C21   C     C_R   0.582312 0.699538 0.151764 0.349130
C22   C     C_R   0.422730 0.405042 0.793447 -0.201845
H2    H     H_    0.427246 0.437721 0.168393 0.184927
H3    H     H_    0.407202 0.180325 0.969567 0.238333
C23   C     C_R   0.303506 0.085608 0.370357 -0.189957
H4    H     H_    0.306814 0.255458 0.334358 0.146512
H5    H     H_    0.241093 0.878891 0.365941 0.194769
H6    H     H_    0.225683 0.062557 0.320971 0.170147
N1    N     N_R   0.440320 0.222190 0.444690 -0.165022
C24   C     C_R   0.660201 0.804021 0.612236 -0.077384
C25   C     C_R   0.712737 0.912396 0.617536 0.172761
C26   C     C_R   0.655806 0.992382 0.564674 0.493851
C27   C     C_R   0.537533 0.962832 0.523277 -0.123725
C28   C     C_R   0.495987 0.852909 0.508149 0.089054
C29   C     C_R   0.466626 0.040043 0.484522 -0.057523
C30   C     C_R   0.361690 0.008377 0.425218 0.062014
C31   C     C_R   0.319485 0.900806 0.415313 -0.196894
C32   C     C_R   0.392097 0.826741 0.442309 0.354730
C33   C     C_R   0.491591 0.147384 0.506446 0.433399
C34   C     C_R   0.349301 0.194015 0.376867 0.043513
N2    N     N_R   0.559060 0.776980 0.554780 -0.124985
H7    H     H_    0.704271 0.740485 0.647529 0.189161
N3    N     N_R   0.663060 0.774673 0.208907 0.238783
O9    O     O_R   0.732367 0.739316 0.282004 -0.381051
O10   O     O_R   0.681871 0.878293 0.177228 -0.324282
N4    N     N_R   0.542807 0.169916 0.606207 0.243809
O11   O     O_R   0.634594 0.248057 0.615114 -0.310701
O12   O     O_R   0.511429 0.099673 0.687186 -0.288594
O13   O     O_3   0.721229 0.097188 0.544697 -0.551859
C35   C     C_3   0.770485 0.111078 0.446450 -0.178983
H8    H     H_    0.822693 0.195405 0.430608 0.208898
H9    H     H_    0.699944 0.099402 0.384432 0.168986
H10   H     H_    0.832366 0.055420 0.443960 0.171733
N5    N     N_R   0.826365 0.940653 0.670676 0.233517
O14   O     O_R   0.889841 0.867890 0.699013 -0.361940
O15   O     O_R   0.863912 0.037177 0.697171 -0.248794
N6    N     N_R   0.387389 0.759348 0.363967 0.218131
O16   O     O_R   0.453206 0.801842 0.285284 -0.358048
O17   O     O_R   0.287139 0.693719 0.345445 -0.421994
N7    N     N_R   0.444279 0.783887 0.846607 0.233676
O18   O     O_R   0.453201 0.819920 0.748797 -0.329183
O19   O     O_R   0.408383 0.842291 0.907037 -0.305862
N8    N     N_R   0.334820 0.212453 0.771214 0.250971
O20   O     O_R   0.324801 0.110214 0.806458 -0.263883
O21   O     O_R   0.269058 0.238280 0.691021 -0.361382
N9    N     N_R   0.519329 0.312550 0.098711 0.202651
O22   O     O_R   0.624762 0.366507 0.122340 -0.354954
O23   O     O_R   0.477853 0.219603 0.153026 -0.387760
O24   O     O_3   0.344673 0.611481 0.736546 -0.559431
C36   C     C_3   0.223016 0.572751 0.757116 -0.220401
H11   H     H_    0.197012 0.605444 0.824813 0.181705
H12   H     H_    0.200254 0.482599 0.768935 0.158044
H13   H     H_    0.169721 0.600848 0.689335 0.199783

loop_
_geom_bond_atom_site_label_1
_geom_bond_atom_site_label_2
_geom_bond_distance
_ccdc_geom_bond_type
C32   N6    1.420502 S    
C24   C25   1.392449 A    
C4    C8    1.391293 S    
C9    H1    1.082382 S    
C36   H11   1.114357 S    
N9    O22   1.301555 A    
Zn1   O7    1.959258 S    
C10   C20   1.392972 A    
N8    O21   1.301657 A    
C17   C18   1.403187 A    
O4    C2    1.308224 A    
H4    C34   1.081846 S    
O7    C4    1.306937 A    
N4    O12   1.300981 A    
C1    C22   1.478683 S    
C5    C6    1.179919 T    
C23   C30   1.399390 A    
C35   H9    1.113951 S    
O5    C3    1.314896 A    
C2    C5    1.391234 S    
C29   C30   1.409402 A    
N6    O16   1.299524 A    
N5    O15   1.301440 A    
C25   N5    1.441866 S    
Zn1   N1    2.074574 S    
Zn2   N2    2.062359 S    
C24   N2    1.353287 A    
H5    C31   1.086245 S    
C19   O24   1.384321 S    
O3    Zn1   1.931956 S    
C9    C21   1.404580 A    
C21   N3    1.439789 S    
C36   H12   1.112197 S    
C27   C29   1.430850 A    
N9    O23   1.301438 A    
C10   C21   1.415397 A    
N3    O10   1.301674 A    
N8    O20   1.301746 A    
C16   C20   1.377423 A    
C13   C14   1.431972 A    
O3    C2    1.304180 A    
N7    O19   1.301515 A    
C6    C7    1.370394 S    
C28   N2    1.384942 A    
C14   C15   1.406560 A    
O13   C35   1.410683 S    
O1    C1    1.322603 A    
C35   H10   1.114081 S    
C26   C27   1.426078 A    
C18   C19   1.405682 A    
C15   C22   1.413780 A    
C30   C31   1.373779 A    
C28   C32   1.437189 A    
Zn2   O8    1.931958 S    
C7    C8    1.179812 T    
C20   H2    1.080986 S    
C3    C10   1.460487 S    
C9    C17   1.408167 A    
C24   H7    1.081324 S    
C23   C34   1.380928 A    
C26   O13   1.381617 S    
Zn2   O6    1.958046 S    
C31   C32   1.387762 A    
O8    C4    1.305736 A    
C15   C19   1.427132 A    
C12   H3    1.082634 S    
C25   C26   1.407245 A    
C11   N8    1.441284 S    
C36   H13   1.108602 S    
C27   C28   1.417142 A    
Zn1   O5    1.925812 S    
C11   C22   1.411720 A    
N3    O9    1.301330 A    
O1    Zn1   1.958047 S    
C33   N4    1.440064 S    
C23   H6    1.083991 S    
O2    Zn2   1.925812 S    
O24   C36   1.409745 S    
O6    C3    1.317976 A    
O4    Zn2   1.959258 S    
C14   C16   1.411249 A    
N1    C34   1.351817 A    
C29   C33   1.403135 A    
O2    C1    1.317415 A    
N7    O18   1.299745 A    
N4    O11   1.297567 A    
N1    C33   1.369739 A    
C35   H8    1.109673 S    
C12   C13   1.397835 A    
C13   N9    1.437996 S    
N6    O17   1.301929 A    
N5    O14   1.301687 A    
C16   C17   1.411083 A    
C11   C12   1.396348 A    
C18   N7    1.441011 S    
