data_mof_unit_44216.cif
_audit_creation_date              2012-12-10T17:05:21-0500
_audit_creation_method            fapswitch 2.2
_symmetry_space_group_name_H-M    P1
_symmetry_Int_Tables_number       1
_space_group_crystal_system       triclinic
_cell_length_a                    10.073458
_cell_length_b                    10.631516
_cell_length_c                    15.442313
_cell_angle_alpha                 90.740422
_cell_angle_beta                  67.174907
_cell_angle_gamma                 90.942462
_cell_volume                      1524.0628699

loop_
_atom_site_label
_atom_site_type_symbol
_atom_type_description
_atom_site_fract_x
_atom_site_fract_y
_atom_site_fract_z
_atom_type_partial_charge
C1    C     C_R   0.501249 0.738143 0.500507 1.031115
C2    C     C_R   0.396603 0.456508 0.919875 0.053760
C3    C     C_R   0.256050 0.500676 0.975431 0.145046
C4    C     C_R   0.493804 0.425781 0.961973 0.081643
C5    C     C_R   0.462372 0.464392 0.055231 0.066945
C6    C     C_R   0.320710 0.501178 0.111299 -0.329863
C7    C     C_R   0.218158 0.522361 0.072823 -0.034600
C8    C     C_R   0.620713 0.356503 0.914174 -0.214518
C9    C     C_R   0.717465 0.333133 0.956041 -0.214288
C10   C     C_R   0.695027 0.384443 0.043987 0.171751
C11   C     C_R   0.572063 0.458890 0.091288 0.025461
C12   C     C_R   0.409052 0.496741 0.676298 0.933138
C13   C     C_R   0.793125 0.361552 0.085863 -0.199404
C14   C     C_R   0.764930 0.405748 0.176420 -0.182250
C15   C     C_R   0.565290 0.526454 0.172061 -0.078003
C16   C     C_2   0.557588 0.068896 0.569875 -0.079987
C17   C     C_2   0.464636 0.137809 0.547803 -0.373150
C18   C     C_2   0.534337 0.932534 0.573178 -0.176773
C19   C     C_2   0.508110 0.872855 0.502484 -0.197154
C20   C     C_2   0.098090 0.415891 0.456995 -0.096776
C21   C     C_2   0.960079 0.433342 0.442155 -0.041788
C22   C     C_R   0.490799 0.264732 0.513783 0.969974
C23   C     C_R   0.590781 0.499679 0.323645 0.962717
C24   C     C_R   0.349872 0.488557 0.778790 -0.024083
C25   C     C_R   0.647532 0.484492 0.221398 -0.037355
C26   C     C_R   0.159127 0.521042 0.931055 -0.150527
C27   C     C_R   0.206227 0.515976 0.833448 -0.196249
C28   C     C_R   0.441594 0.454283 0.822158 -0.223360
H1    H     H_    0.863272 0.534127 0.558347 0.160359
H2    H     H_    0.551941 0.433763 0.778090 0.178735
H3    H     H_    0.643539 0.313295 0.846314 0.171916
N1    N     N_2   0.148330 0.498670 0.499030 -0.206316
N2    N     N_2   0.852680 0.498640 0.499000 -0.187202
O1    O     O_R   0.386950 0.680940 0.500010 -0.572221
O2    O     O_R   0.613110 0.680900 0.499990 -0.625789
O3    O     O_R   0.322330 0.500030 0.632270 -0.638252
O4    O     O_R   0.548480 0.499990 0.632240 -0.588040
O5    O     O_R   0.386890 0.319100 0.500010 -0.616799
O6    O     O_R   0.613050 0.319060 0.499990 -0.507261
O7    O     O_R   0.451520 0.500010 0.367760 -0.535825
O8    O     O_R   0.677670 0.499970 0.367730 -0.608212
Zn1   Zn    Zn3+2 0.349000 0.500030 0.500020 1.014615
Zn2   Zn    Zn3+2 0.651000 0.499970 0.499980 1.025463
C29   C     C_2   0.079615 0.577791 0.136830 0.387255
H4    H     H_    0.040277 0.559721 0.211561 0.054987
O9    O     O_2   0.013287 0.651200 0.109016 -0.559952
H5    H     H_    0.886233 0.303026 0.051148 0.148694
C30   C     C_2   0.680094 0.120320 0.590888 0.466905
H6    H     H_    0.777089 0.065318 0.572797 0.036432
O10   O     O_2   0.670021 0.218933 0.634287 -0.583115
H7    H     H_    0.366208 0.093903 0.547795 0.166853
C31   C     C_2   0.529894 0.868881 0.659888 0.442692
H8    H     H_    0.584129 0.911777 0.701548 0.059290
O11   O     O_2   0.459495 0.772861 0.688772 -0.588417
C32   C     C_2   0.516605 0.936604 0.415357 0.396231
H9    H     H_    0.596666 0.009964 0.384125 0.098087
O12   O     O_2   0.430444 0.910446 0.379921 -0.487145
C33   C     C_2   0.178478 0.299374 0.418972 0.511574
H10   H     H_    0.128644 0.209065 0.445572 0.041154
O13   O     O_2   0.295219 0.302673 0.353311 -0.544212
H11   H     H_    0.092168 0.581188 0.519157 0.163831
C34   C     C_2   0.952990 0.369998 0.358136 0.430315
H12   H     H_    0.046433 0.373561 0.292407 0.024271
O14   O     O_2   0.851241 0.303416 0.362719 -0.556882
C35   C     C_2   0.496721 0.652638 0.193623 0.408116
H13   H     H_    0.451530 0.694099 0.147511 0.090019
O15   O     O_2   0.497682 0.715690 0.259808 -0.517703
H14   H     H_    0.832381 0.375534 0.211869 0.183440
H15   H     H_    0.811141 0.276258 0.918870 0.152340
H16   H     H_    0.047206 0.542278 0.970052 0.198648
H17   H     H_    0.131676 0.537699 0.800832 0.164510
H18   H     H_    0.289259 0.515301 0.186196 0.155187

loop_
_geom_bond_atom_site_label_1
_geom_bond_atom_site_label_2
_ccdc_geom_bond_type
O4    Zn2   S    
C2    C4    A    
C32   H9    S    
O5    Zn1   S    
C34   H12   S    
C12   O3    A    
O2    Zn2   S    
C9    C10   A    
C12   C24   S    
O3    Zn1   S    
C17   C22   S    
O1    Zn1   S    
C24   C27   A    
C4    C8    A    
C17   H7    S    
C15   C35   S    
O7    Zn1   S    
C2    C3    A    
C26   C27   A    
C18   C31   S    
C28   H2    S    
C35   H13   S    
C32   O12   D    
C13   C14   A    
C31   H8    S    
C6    H18   S    
O8    Zn2   S    
C16   C30   S    
C21   C34   S    
C6    C7    A    
C22   O6    A    
C23   O8    A    
C30   O10   D    
C30   H6    S    
C8    H3    S    
C31   O11   D    
C1    O1    A    
C5    C11   A    
C3    C7    A    
C23   C25   S    
C14   C25   A    
N1    Zn1   S    
C5    C6    A    
C26   H16   S    
C15   C25   A    
C29   H4    S    
C21   N2    D    
C10   C11   A    
C9    H15   S    
C33   O13   D    
C23   O7    A    
C22   O5    A    
H1    N2    S    
C20   C33   S    
C27   H17   S    
C20   C21   S    
C1    O2    A    
C16   C18   S    
C18   C19   D    
C20   N1    D    
C19   C32   S    
C12   O4    A    
C13   H5    S    
C14   H14   S    
C2    C28   A    
C8    C9    A    
C34   O14   D    
C7    C29   S    
C33   H10   S    
O6    Zn2   S    
C1    C19   S    
C11   C15   A    
C3    C26   A    
N1    H11   S    
C24   C28   A    
C16   C17   D    
C29   O9    D    
C4    C5    A    
C35   O15   D    
C10   C13   A    
N2    Zn2   S    
