data_mof_unit_62314.cif
_audit_creation_date              2013-03-05T16:55:22-0500
_audit_creation_method            fapswitch 2.2
_symmetry_space_group_name_H-M    P1
_symmetry_Int_Tables_number       1
_space_group_crystal_system       triclinic
_cell_length_a                    17.580243
_cell_length_b                    16.837982
_cell_length_c                    14.932629
_cell_angle_alpha                 89.988918
_cell_angle_beta                  91.686432
_cell_angle_gamma                 90.062916
_cell_volume                      4418.37700665

loop_
_atom_site_label
_atom_site_type_symbol
_atom_site_description
_atom_site_fract_x
_atom_site_fract_y
_atom_site_fract_z
_atom_type_partial_charge
O1    O     O_R   0.389110 0.566570 0.500000 -0.554798
O2    O     O_R   0.610890 0.433430 0.500000 -0.556994
O3    O     O_R   0.610890 0.566570 0.500000 -0.552577
O4    O     O_R   0.389110 0.433430 0.500000 -0.556261
C1    C     C_R   0.353046 0.499958 0.501094 1.105747
C2    C     C_R   0.646809 0.500060 0.497368 1.110022
O5    O     O_R   0.499980 0.566550 0.367850 -0.593117
O6    O     O_R   0.500020 0.433450 0.632150 -0.603469
O7    O     O_R   0.500020 0.566550 0.632150 -0.593778
O8    O     O_R   0.499980 0.433450 0.367850 -0.603867
C3    C     C_R   0.498257 0.500056 0.326937 1.002386
C4    C     C_R   0.501746 0.500054 0.673065 1.006532
Zn1   Zn    Zn3+2 0.500000 0.588860 0.500000 1.144523
Zn2   Zn    Zn3+2 0.500000 0.411140 0.500000 1.134771
C5    C     C_R   0.571866 0.499031 0.816586 0.251298
C6    C     C_R   0.428252 0.499809 0.183383 0.256607
C7    C     C_R   0.502634 0.501201 0.768333 -0.277010
C8    C     C_R   0.497475 0.501187 0.231679 -0.273944
C9    C     C_R   0.433269 0.508383 0.809452 0.638094
C10   C     C_R   0.566957 0.507469 0.190601 0.637059
C11   C     C_R   0.431051 0.513635 0.902508 -0.158446
C12   C     C_R   0.569276 0.512697 0.097534 -0.157425
C13   C     C_R   0.500706 0.511124 0.953106 -0.082980
C14   C     C_R   0.499601 0.511102 0.046916 -0.084321
C15   C     C_R   0.571499 0.507411 0.909922 -0.131875
C16   C     C_R   0.428759 0.508247 0.090080 -0.131928
C17   C     C_R   0.361313 0.520554 0.946353 0.205343
C18   C     C_R   0.639107 0.518734 0.053697 0.207788
C19   C     C_R   0.360529 0.516596 0.039308 0.646281
C20   C     C_R   0.639838 0.514859 0.960721 0.646004
C21   C     C_R   0.845590 0.572322 0.458837 0.597027
C22   C     C_R   0.151041 0.429028 0.473518 0.595854
C23   C     C_R   0.151238 0.572817 0.485317 0.594781
C24   C     C_R   0.847707 0.428722 0.473248 0.590569
C25   C     C_R   0.767720 0.572449 0.471097 0.579591
C26   C     C_R   0.229395 0.427987 0.486925 0.569029
C27   C     C_R   0.229615 0.572389 0.498761 0.585369
C28   C     C_R   0.769866 0.428184 0.485612 0.564512
C29   C     C_R   0.729142 0.500303 0.486002 -0.517376
C30   C     C_R   0.269817 0.499991 0.496970 -0.518481
C31   C     C_R   0.885115 0.500670 0.460616 -0.445534
C32   C     C_R   0.112647 0.501366 0.471352 -0.447450
C33   C     C_1   0.965168 0.501484 0.458316 0.331037
C34   C     C_1   0.032676 0.501726 0.461788 0.331618
C35   C     C_R   0.463458 0.833014 0.431287 0.537380
C36   C     C_R   0.531013 0.166922 0.572799 0.534613
C37   C     C_R   0.536430 0.832819 0.569421 0.536367
C38   C     C_R   0.469114 0.166548 0.427862 0.534760
C39   C     C_R   0.463664 0.748949 0.432059 0.238785
C40   C     C_R   0.531431 0.251046 0.571407 0.234212
C41   C     C_R   0.536556 0.748748 0.568004 0.236822
C42   C     C_R   0.468915 0.250674 0.428605 0.236003
N1    N     N_R   0.500000 0.707230 0.500000 -0.256259
N2    N     N_R   0.500000 0.292770 0.500000 -0.252151
C43   C     C_R   0.499826 0.875926 0.500539 -0.301615
C44   C     C_R   0.499932 0.123762 0.500521 -0.301348
C45   C     C_1   0.499866 0.963451 0.500690 0.302648
C46   C     C_1   0.499906 0.036229 0.500699 0.303450
N3    N     N_R   0.641132 0.483328 0.770983 0.263093
O9    O     O_R   0.664008 0.531034 0.708810 -0.314259
O10   O     O_R   0.680305 0.419675 0.789940 -0.199765
N4    N     N_R   0.358781 0.484823 0.228911 0.260409
O11   O     O_R   0.336048 0.533198 0.290417 -0.328481
O12   O     O_R   0.318884 0.421563 0.209982 -0.206991
F1    F     F_    0.368482 0.506062 0.757362 -0.611358
F2    F     F_    0.631684 0.504359 0.242739 -0.619608
N5    N     N_R   0.290834 0.534509 0.898017 0.297335
O13   O     O_R   0.232380 0.489017 0.911381 -0.202311
O14   O     O_R   0.281332 0.600125 0.853025 -0.221962
N6    N     N_R   0.709783 0.531668 0.102066 0.295208
O15   O     O_R   0.767543 0.485349 0.088702 -0.206552
O16   O     O_R   0.720256 0.597094 0.147162 -0.224773
F3    F     F_    0.292831 0.526899 0.079378 -0.524914
F4    F     F_    0.707672 0.524342 0.920671 -0.523444
F5    F     F_    0.882733 0.642157 0.446890 -0.500853
F6    F     F_    0.112470 0.359490 0.463316 -0.501175
F7    F     F_    0.112847 0.642776 0.486670 -0.501330
F8    F     F_    0.886944 0.359235 0.475438 -0.503042
F9    F     F_    0.730652 0.643132 0.467682 -0.515283
F10   F     F_    0.264961 0.356522 0.490393 -0.515375
F11   F     F_    0.265469 0.642686 0.514401 -0.514207
F12   F     F_    0.735060 0.357103 0.497312 -0.515049
F13   F     F_    0.426991 0.872393 0.363242 -0.518501
F14   F     F_    0.562697 0.127609 0.644041 -0.518362
F15   F     F_    0.573182 0.872030 0.637430 -0.519210
F16   F     F_    0.437695 0.126849 0.356701 -0.517674
N7    N     N_R   0.424919 0.708037 0.360655 0.278380
O17   O     O_R   0.451093 0.712647 0.280231 -0.276848
O18   O     O_R   0.354750 0.686284 0.370538 -0.211682
N8    N     N_R   0.566779 0.291816 0.645350 0.273029
O19   O     O_R   0.543539 0.278937 0.725995 -0.265662
O20   O     O_R   0.631830 0.326775 0.635061 -0.227598
N9    N     N_R   0.576714 0.707618 0.638166 0.277627
O21   O     O_R   0.553226 0.713171 0.719732 -0.275072
O22   O     O_R   0.645962 0.684237 0.625330 -0.214177
N10   N     N_R   0.435045 0.291021 0.353467 0.273632
O23   O     O_R   0.458680 0.276468 0.273366 -0.263830
O24   O     O_R   0.371056 0.328225 0.362341 -0.233240

loop_
_geom_bond_atom_site_label_1
_geom_bond_atom_site_label_2
_geom_bond_distance
_ccdc_geom_bond_type
O5    Zn1   2.008845 S    
N7    O17   1.300932 A    
C3    C8    1.422244 S    
N9    O21   1.300962 A    
C17   C19   1.390135 A    
C39   N7    1.425453 S    
O3    C2    1.287436 A    
N8    O19   1.301085 A    
C35   F13   1.358466 S    
O5    C3    1.275461 A    
C40   N2    1.379049 A    
C6    N4    1.437231 S    
O1    C1    1.288142 A    
C23   C32   1.393265 A    
C22   C26   1.386239 A    
C10   F2    1.360775 S    
C9    C11   1.394093 A    
C14   C16   1.419848 A    
C27   C30   1.410423 A    
C28   C29   1.410443 A    
C20   F4    1.358982 S    
C5    C15   1.401104 A    
C19   F3    1.359026 S    
C38   C44   1.398477 A    
O7    Zn1   2.008703 S    
N4    O12   1.301246 A    
C21   F5    1.358672 S    
C40   N8    1.426737 S    
N10   O24   1.298400 A    
C4    C7    1.422372 S    
C13   C14   1.401536 A    
C9    F1    1.360730 S    
N6    O15   1.301117 A    
C8    C10   1.386842 A    
O3    Zn1   1.985678 S    
C11   C17   1.411707 A    
N3    O9    1.299958 A    
N9    O22   1.299457 A    
C12   C18   1.411724 A    
C28   F12   1.357210 S    
C31   C33   1.408845 S    
C27   F11   1.357452 S    
O2    C2    1.287964 A    
C24   C31   1.393247 A    
C32   C34   1.408977 S    
C42   N2    1.379413 A    
Zn1   N1    1.993112 S    
C6    C16   1.400737 A    
N3    O10   1.301228 A    
N5    O13   1.301114 A    
C26   C30   1.410435 A    
C26   F10   1.356970 S    
C37   C41   1.415748 A    
C23   C27   1.386609 A    
C41   N1    1.376154 A    
C25   C29   1.411456 A    
C33   C34   1.186414 T    
N4    O11   1.299746 A    
N8    O20   1.298752 A    
C35   C39   1.415544 A    
O6    C4    1.277103 A    
N10   O23   1.301149 A    
C41   N9    1.425839 S    
C36   F14   1.358619 S    
Zn2   N2    1.993112 S    
C10   C12   1.394290 A    
C11   C13   1.420504 A    
O8    Zn2   2.008703 S    
C12   C14   1.420520 A    
O1    Zn1   1.984870 S    
C37   F15   1.358467 S    
C37   C43   1.400255 A    
C15   C20   1.407330 A    
C5    C7    1.396559 A    
O6    Zn2   2.008845 S    
C21   C31   1.392789 A    
C24   C28   1.386261 A    
C5    N3    1.437371 S    
C18   N6    1.435117 S    
O4    C1    1.288121 A    
C22   F6    1.358759 S    
C36   C40   1.416648 A    
C43   C45   1.473731 S    
C18   C20   1.390368 A    
C24   F8    1.358786 S    
C23   F7    1.358708 S    
C45   C46   1.225444 T    
C39   N1    1.375996 A    
C21   C25   1.386506 A    
C25   F9    1.357736 S    
C7    C9    1.386764 A    
C44   C46   1.473869 S    
C42   N10   1.426983 S    
C38   F16   1.358674 S    
C13   C15   1.419901 A    
O4    Zn2   1.985679 S    
O2    Zn2   1.984868 S    
O7    C4    1.275371 A    
C17   N5    1.435038 S    
O8    C3    1.276981 A    
C38   C42   1.416565 A    
C35   C43   1.400222 A    
C16   C19   1.407179 A    
C6    C8    1.396391 A    
C1    C30   1.462665 S    
C36   C44   1.398676 A    
N7    O18   1.298989 A    
C22   C32   1.393084 A    
C2    C29   1.462315 S    
N6    O16   1.301365 A    
N5    O14   1.301331 A    
