data_mof_unit_18029.cif
_audit_creation_date              2012-12-10T18:49:57-0500
_audit_creation_method            fapswitch 2.2
_symmetry_space_group_name_H-M    P1
_symmetry_Int_Tables_number       1
_space_group_crystal_system       triclinic
_cell_length_a                    10.584424
_cell_length_b                    9.975468
_cell_length_c                    10.745445
_cell_angle_alpha                 89.640396
_cell_angle_beta                  88.928888
_cell_angle_gamma                 89.63841
_cell_volume                      1134.31097413

loop_
_atom_site_label
_atom_site_type_symbol
_atom_type_description
_atom_site_fract_x
_atom_site_fract_y
_atom_site_fract_z
_atom_type_partial_charge
C1    C     C_R   0.260555 0.500360 0.501633 0.839709
C2    C     C_3   0.596299 0.610874 0.922205 -0.452012
C3    C     C_R   0.066747 0.441907 0.404067 -0.176310
C4    C     C_R   0.062580 0.557463 0.603432 -0.155463
C5    C     C_R   0.937386 0.438265 0.406485 -0.177235
C6    C     C_R   0.932631 0.558392 0.603455 -0.177889
C7    C     C_R   0.871716 0.498304 0.504804 -0.010354
C8    C     C_R   0.128029 0.500807 0.502845 0.036961
C9    C     C_R   0.608486 0.070567 0.519139 -0.016478
C10   C     C_R   0.609032 0.927743 0.516246 -0.033195
C11   C     C_R   0.390376 0.930239 0.486500 -0.018788
C12   C     C_R   0.392133 0.072045 0.477748 -0.024236
C13   C     C_R   0.501331 0.500734 0.257478 0.926701
C14   C     C_R   0.739252 0.499529 0.502986 0.890350
C15   C     C_R   0.505049 0.499557 0.741024 0.848541
C16   C     C_3   0.360957 0.506437 0.069068 0.219473
C17   C     C_3   0.568828 0.364391 0.069336 0.310345
C18   C     C_3   0.368866 0.523275 0.924331 0.227226
C19   C     C_3   0.552765 0.359653 0.925876 0.111419
C20   C     C_3   0.581365 0.632614 0.065081 -0.254714
C21   C     C_3   0.504421 0.503153 0.119483 -0.311147
C22   C     C_3   0.506886 0.499063 0.876407 -0.160449
H1    H     H_    0.306962 0.445395 0.882574 0.137677
H2    H     H_    0.474901 0.288440 0.906186 0.217940
H3    H     H_    0.581930 0.706577 0.870804 0.258183
H4    H     H_    0.694884 0.582885 0.895926 0.188185
H5    H     H_    0.118634 0.398982 0.326193 0.173201
H6    H     H_    0.111653 0.599890 0.681045 0.153850
H7    H     H_    0.888483 0.393483 0.330343 0.189200
H8    H     H_    0.879871 0.603431 0.680063 0.147896
H9    H     H_    0.695912 0.122704 0.534983 0.159805
H10   H     H_    0.696983 0.874332 0.529496 0.150355
N1    N     N_R   0.499970 0.857200 0.499970 -0.110489
N2    N     N_R   0.499970 0.142800 0.499970 -0.118160
O1    O     O_R   0.316750 0.614620 0.499990 -0.602424
O2    O     O_R   0.316750 0.385380 0.499990 -0.623251
O3    O     O_R   0.499970 0.614670 0.314790 -0.536510
O4    O     O_R   0.499970 0.385330 0.314790 -0.534274
O5    O     O_R   0.683220 0.614710 0.500010 -0.613113
O6    O     O_R   0.683220 0.385290 0.500010 -0.613844
O7    O     O_R   0.500010 0.614660 0.685200 -0.607226
O8    O     O_R   0.500010 0.385340 0.685200 -0.599674
Zn1   Zn    Zn3+2 0.499980 0.653120 0.500000 1.041518
Zn2   Zn    Zn3+2 0.499980 0.346880 0.500000 1.042332
C23   C     C_2   0.267615 0.610151 0.123600 0.980626
O9    O     O_2   0.295041 0.683624 0.208881 -0.595401
O10   O     O_R   0.144596 0.614337 0.078048 -0.710214
H11   H     H_    0.089138 0.683298 0.121892 0.374543
C24   C     C_2   0.707007 0.344203 0.106639 0.975456
O11   O     O_2   0.793348 0.401039 0.051068 -0.618007
O12   O     O_R   0.735426 0.249170 0.198535 -0.764351
H12   H     H_    0.829096 0.228361 0.202526 0.345067
C25   C     C_2   0.265568 0.867121 0.492376 1.000659
O13   O     O_2   0.209003 0.844486 0.396743 -0.568570
O14   O     O_R   0.206218 0.849351 0.608409 -0.765684
H13   H     H_    0.113823 0.825488 0.600935 0.343607
C26   C     C_2   0.276134 0.139395 0.437218 0.970030
O15   O     O_2   0.269495 0.181121 0.330531 -0.591981
O16   O     O_R   0.170953 0.144952 0.517815 -0.781469
H14   H     H_    0.092769 0.180982 0.475889 0.345400
O17   O     O_3   0.302659 0.381930 0.092410 -0.705643
H15   H     H_    0.290560 0.372199 0.183648 0.371599
O18   O     O_3   0.502681 0.252612 0.119314 -0.668262
H16   H     H_    0.537968 0.169121 0.081786 0.364345
O19   O     O_3   0.325132 0.650312 0.885291 -0.668722
H17   H     H_    0.284609 0.639286 0.803599 0.350790
O20   O     O_3   0.659704 0.305021 0.862875 -0.723969
H18   H     H_    0.713606 0.378172 0.829768 0.356706
C27   C     C_2   0.515686 0.769036 0.090580 1.013610
O21   O     O_2   0.447022 0.821686 0.013937 -0.531612
O22   O     O_R   0.540781 0.839616 0.199748 -0.751316
H19   H     H_    0.493823 0.928389 0.205038 0.361524
C28   C     C_2   0.713843 0.653533 0.116962 0.994883
O23   O     O_2   0.788589 0.726201 0.060573 -0.586344
O24   O     O_R   0.748134 0.600715 0.231967 -0.811495
H20   H     H_    0.835131 0.631283 0.256992 0.350564

loop_
_geom_bond_atom_site_label_1
_geom_bond_atom_site_label_2
_ccdc_geom_bond_type
C16   C23   S    
O3    Zn1   S    
O16   H14   S    
C11   C12   A    
O24   H20   S    
C2    C22   S    
C16   C21   S    
C2    H3    S    
C1    C8    S    
O1    Zn1   S    
C9    C10   A    
C15   O8    A    
C13   O3    A    
O10   H11   S    
C11   C25   S    
O6    Zn2   S    
C1    O2    A    
C4    C8    A    
O17   H15   S    
O14   H13   S    
C3    H5    S    
C19   H2    S    
C13   O4    A    
C3    C5    A    
C13   C21   S    
O22   H19   S    
C2    H4    S    
C23   O9    D    
C17   O18   S    
C18   O19   S    
C19   O20   S    
O7    Zn1   S    
C1    O1    A    
C26   O15   D    
C6    C7    A    
O8    Zn2   S    
O20   H18   S    
C12   C26   S    
C4    C6    A    
C17   C19   S    
C14   O6    A    
O4    Zn2   S    
C24   O11   D    
C10   N1    A    
C5    H7    S    
C27   O21   D    
C25   O14   S    
C3    C8    A    
C9    N2    A    
C20   C28   S    
C17   C21   S    
C20   C27   S    
C26   O16   S    
O2    Zn2   S    
C16   O17   S    
C28   O24   S    
C2    C20   S    
C18   H1    S    
N1    Zn1   S    
C10   H10   S    
C27   O22   S    
C11   N1    A    
C19   C22   S    
N2    Zn2   S    
C20   C21   S    
C15   O7    A    
C16   C18   S    
O19   H17   S    
C28   O23   D    
C23   O10   S    
C17   C24   S    
C5    C7    A    
C9    H9    S    
O5    Zn1   S    
C4    H6    S    
C14   O5    A    
C18   C22   S    
C12   N2    A    
C6    H8    S    
C15   C22   S    
C7    C14   S    
O12   H12   S    
C25   O13   D    
O18   H16   S    
C24   O12   S    
