data_mof_unit_60663.cif
_audit_creation_date              2012-12-11T21:25:38-0500
_audit_creation_method            fapswitch 2.2
_symmetry_space_group_name_H-M    P1
_symmetry_Int_Tables_number       1
_space_group_crystal_system       triclinic
_cell_length_a                    23.284165
_cell_length_b                    29.349069
_cell_length_c                    8.325151
_cell_angle_alpha                 90.000955
_cell_angle_beta                  92.938372
_cell_angle_gamma                 89.999886
_cell_volume                      5681.66668901

loop_
_atom_site_label
_atom_site_type_symbol
_atom_type_description
_atom_site_fract_x
_atom_site_fract_y
_atom_site_fract_z
_atom_type_partial_charge
Ba1   Ba    Ba6+2 0.999920 0.467660 0.844980 1.623003
Ba2   Ba    Ba6+2 0.999920 0.532340 0.344980 1.623002
Ba3   Ba    Ba6+2 0.499920 0.967660 0.844980 1.623002
Ba4   Ba    Ba6+2 0.499920 0.032340 0.344980 1.623003
C1    C     C_3   0.050008 0.255141 0.628368 -0.388159
C2    C     C_R   0.195559 0.245488 0.277780 0.050444
C3    C     C_R   0.350517 0.223499 0.946570 -0.112895
C4    C     C_R   0.894214 0.351565 0.413483 -0.012975
C5    C     C_R   0.894212 0.648435 0.913488 -0.012973
C6    C     C_R   0.394219 0.851563 0.413468 -0.012999
C7    C     C_R   0.394213 0.148436 0.913489 -0.012976
C8    C     C_R   0.903159 0.389275 0.314545 -0.292075
C9    C     C_R   0.903157 0.610726 0.814548 -0.292077
C10   C     C_R   0.403162 0.889273 0.314535 -0.292123
C11   C     C_R   0.403157 0.110726 0.814550 -0.292069
C12   C     C_R   0.869889 0.396237 0.171609 0.038122
C13   C     C_R   0.695557 0.254510 0.777784 0.050440
C14   C     C_R   0.869888 0.603763 0.671611 0.038123
C15   C     C_R   0.369892 0.896235 0.171600 0.038150
C16   C     C_R   0.369888 0.103763 0.671612 0.038116
C17   C     C_3   0.177399 0.473081 0.171081 0.290751
C18   C     C_3   0.177401 0.526918 0.671086 0.290748
C19   C     C_3   0.677398 0.973081 0.171085 0.290748
C20   C     C_3   0.677401 0.026917 0.671092 0.290750
C21   C     C_3   0.237655 0.450623 0.167796 -0.082296
C22   C     C_3   0.237657 0.549375 0.667802 -0.082296
C23   C     C_3   0.737653 0.950622 0.167800 -0.082297
C24   C     C_R   0.695551 0.745485 0.277789 0.050451
C25   C     C_3   0.737656 0.049375 0.667806 -0.082298
C26   C     C_3   0.835831 0.529682 0.996824 0.315137
C27   C     C_3   0.835831 0.470318 0.496825 0.315133
C28   C     C_3   0.335829 0.029681 0.996824 0.315135
C29   C     C_3   0.335833 0.970317 0.496822 0.315136
C30   C     C_3   0.783075 0.560359 0.993282 -0.395305
C31   C     C_3   0.783075 0.439641 0.493275 -0.395308
C32   C     C_3   0.283072 0.060358 0.993283 -0.395304
C33   C     C_3   0.283076 0.939640 0.493260 -0.395306
C34   C     C_3   0.022174 0.301819 0.608495 0.360050
C35   C     C_R   0.220775 0.754578 0.938229 0.015322
C36   C     C_3   0.022174 0.698180 0.108507 0.360054
C37   C     C_3   0.522186 0.801828 0.608717 0.360048
C38   C     C_3   0.522173 0.198183 0.108502 0.360055
C39   C     C_R   0.753855 0.291731 0.005761 0.012593
C40   C     C_R   0.753853 0.708267 0.505762 0.012594
C41   C     C_R   0.253866 0.791725 0.005739 0.012549
C42   C     C_R   0.253857 0.208269 0.505759 0.012594
C43   C     C_3   0.233151 0.398878 0.182658 -0.482428
C44   C     C_3   0.233154 0.601120 0.682683 -0.482424
C45   C     C_3   0.733149 0.898877 0.182668 -0.482427
C46   C     C_R   0.220767 0.245416 0.438244 0.015315
C47   C     C_3   0.733153 0.101120 0.682698 -0.482424
C48   C     C_3   0.269140 0.465368 0.016830 -0.148945
C49   C     C_3   0.328869 0.443839 0.003660 -0.223221
C50   C     C_3   0.360916 0.465627 0.867889 -0.441248
C51   C     C_3   0.269138 0.534633 0.516825 -0.148944
C52   C     C_3   0.328865 0.556164 0.503645 -0.223245
C53   C     C_3   0.360901 0.534388 0.367831 -0.441255
C54   C     C_3   0.769137 0.965365 0.016831 -0.148942
C55   C     C_3   0.828865 0.943834 0.003655 -0.223226
C56   C     C_3   0.860907 0.965617 0.867866 -0.441252
C57   C     C_R   0.720765 0.254583 0.938248 0.015315
C58   C     C_3   0.769135 0.034636 0.516823 -0.148936
C59   C     C_3   0.828861 0.056170 0.503633 -0.223265
C60   C     C_3   0.860889 0.034401 0.367800 -0.441275
C61   C     C_3   0.215555 0.784305 0.643234 -0.419188
C62   C     C_3   0.215546 0.215684 0.143251 -0.419181
C63   C     C_3   0.715544 0.284312 0.643254 -0.419186
C64   C     C_3   0.715535 0.715681 0.143258 -0.419187
C65   C     C_3   0.928493 0.234513 0.952994 -0.378088
C66   C     C_3   0.928491 0.765485 0.453015 -0.378080
C67   C     C_3   0.428317 0.734584 0.953172 -0.378263
C68   C     C_R   0.720762 0.745414 0.438250 0.015320
C69   C     C_3   0.428494 0.265488 0.453007 -0.378066
C70   C     C_R   0.155569 0.720959 0.730396 -0.088783
C71   C     C_R   0.155565 0.279036 0.230404 -0.088785
C72   C     C_R   0.655563 0.220962 0.730408 -0.088788
C73   C     C_3   0.050007 0.744859 0.128375 -0.388132
C74   C     C_R   0.655555 0.779032 0.230416 -0.088799
C75   C     C_R   0.143925 0.683830 0.828806 -0.054631
C76   C     C_R   0.143923 0.316167 0.328809 -0.054629
C77   C     C_R   0.643921 0.183832 0.828813 -0.054633
C78   C     C_R   0.643916 0.816164 0.328818 -0.054597
C79   C     C_R   0.174752 0.679598 0.978920 -0.005201
C80   C     C_R   0.174749 0.320399 0.478925 -0.005202
C81   C     C_R   0.674746 0.179601 0.978930 -0.005201
C82   C     C_R   0.674744 0.820397 0.478932 -0.005206
C83   C     C_R   0.213791 0.714739 0.033309 0.008346
C84   C     C_3   0.549996 0.755140 0.628525 -0.388128
C85   C     C_R   0.213784 0.285258 0.533321 0.008342
C86   C     C_R   0.713781 0.214743 0.033326 0.008343
C87   C     C_R   0.713779 0.785255 0.533327 0.008325
C88   C     C_R   0.105206 0.649109 0.775876 -0.012169
C89   C     C_R   0.105206 0.350889 0.275875 -0.012176
C90   C     C_R   0.605204 0.149110 0.775879 -0.012173
C91   C     C_R   0.605201 0.850887 0.275883 -0.012154
C92   C     C_R   0.095948 0.611505 0.875523 -0.288456
C93   C     C_R   0.095949 0.388494 0.375522 -0.288457
C94   C     C_R   0.595948 0.111505 0.875523 -0.288455
C95   C     C_3   0.550006 0.244861 0.128388 -0.388121
C96   C     C_R   0.595946 0.888493 0.375526 -0.288402
C97   C     C_R   0.127711 0.605325 0.021352 0.048143
C98   C     C_R   0.127711 0.394675 0.521351 0.048150
C99   C     C_R   0.627710 0.105325 0.021353 0.048142
C100  C     C_R   0.627708 0.894674 0.521355 0.048142
C101  C     C_3   0.978459 0.300311 0.101398 0.403454
C102  C     C_3   0.978458 0.699686 0.601411 0.403447
C103  C     C_3   0.478488 0.800292 0.101596 0.403450
C104  C     C_3   0.478456 0.199686 0.601402 0.403458
C105  C     C_R   0.168273 0.639389 0.071904 -0.042441
C106  C     C_R   0.750948 0.336080 0.940396 -0.104398
C107  C     C_R   0.168272 0.360610 0.571906 -0.042436
C108  C     C_R   0.668270 0.139391 0.071910 -0.042442
C109  C     C_R   0.668268 0.860608 0.571911 -0.042465
C110  C     C_R   0.787602 0.285708 0.151017 0.025277
C111  C     C_R   0.787601 0.714291 0.651019 0.025275
C112  C     C_R   0.287615 0.785702 0.150992 0.025261
C113  C     C_R   0.287604 0.214293 0.651016 0.025275
C114  C     C_R   0.824595 0.321580 0.209991 0.003185
C115  C     C_R   0.824593 0.678420 0.709994 0.003184
C116  C     C_R   0.324606 0.821575 0.209967 0.003206
C117  C     C_R   0.750947 0.663918 0.440397 -0.104397
C118  C     C_R   0.324595 0.178421 0.709993 0.003185
C119  C     C_R   0.828352 0.362927 0.122595 -0.039154
C120  C     C_R   0.828352 0.637072 0.622597 -0.039152
C121  C     C_R   0.328359 0.862923 0.122578 -0.039150
C122  C     C_R   0.328353 0.137073 0.622597 -0.039153
C123  C     C_R   0.788826 0.370247 0.992817 -0.038719
C124  C     C_R   0.788825 0.629751 0.492818 -0.038716
C125  C     C_R   0.288832 0.870243 0.992802 -0.038704
C126  C     C_R   0.288826 0.129752 0.492818 -0.038716
C127  C     C_R   0.204190 0.633684 0.209803 -0.029421
C128  C     C_R   0.250957 0.836074 0.940376 -0.104396
C129  C     C_R   0.204189 0.366316 0.709804 -0.029416
C130  C     C_R   0.704186 0.133686 0.209810 -0.029414
C131  C     C_R   0.704186 0.866314 0.709808 -0.029420
C132  C     C_R   0.241697 0.667548 0.264021 -0.096377
C133  C     C_R   0.241692 0.332451 0.764029 -0.096367
C134  C     C_R   0.741689 0.167552 0.264036 -0.096365
C135  C     C_R   0.741689 0.832449 0.764033 -0.096357
C136  C     C_R   0.246442 0.709199 0.181133 0.015806
C137  C     C_R   0.246434 0.290797 0.681149 0.015820
C138  C     C_R   0.746431 0.209204 0.181152 0.015816
C139  C     C_R   0.250950 0.163920 0.440394 -0.104394
C140  C     C_R   0.746429 0.790795 0.681153 0.015817
C141  C     C_R   0.783811 0.244625 0.239558 0.019216
C142  C     C_R   0.783808 0.755375 0.739562 0.019216
C143  C     C_R   0.283824 0.744619 0.239533 0.019251
C144  C     C_R   0.283813 0.255377 0.739557 0.019214
C145  C     C_R   0.815902 0.241210 0.387985 -0.113644
C146  C     C_R   0.815897 0.758790 0.887995 -0.113638
C147  C     C_R   0.315914 0.741205 0.387961 -0.113629
C148  C     C_R   0.315902 0.258792 0.887988 -0.113640
C149  C     C_3   0.955370 0.251620 0.112749 -0.227530
C150  C     C_R   0.195566 0.754505 0.777767 0.050439
C151  C     C_3   0.955366 0.748377 0.612771 -0.227528
C152  C     C_3   0.455398 0.751598 0.112834 -0.227403
C153  C     C_3   0.455366 0.248377 0.612767 -0.227519
C154  C     C_R   0.856632 0.316552 0.358254 -0.034840
C155  C     C_R   0.856629 0.683448 0.858260 -0.034841
C156  C     C_R   0.356641 0.816547 0.358231 -0.034827
C157  C     C_R   0.356631 0.183449 0.858259 -0.034841
C158  C     C_R   0.850517 0.276504 0.446564 -0.112889
C159  C     C_R   0.850513 0.723497 0.946574 -0.112888
C160  C     C_R   0.350526 0.776499 0.446544 -0.112913
H1    H     H_    0.049531 0.327089 0.675784 0.094643
H2    H     H_    0.851707 0.472667 0.374337 0.008968
H3    H     H_    0.659739 0.032095 0.791042 -0.022284
H4    H     H_    0.147934 0.457776 0.077374 0.070871
H5    H     H_    0.147936 0.542223 0.577381 0.070862
H6    H     H_    0.647933 0.957776 0.077380 0.070874
H7    H     H_    0.647935 0.042224 0.577392 0.070857
H8    H     H_    0.213158 0.390896 0.296072 0.112134
H9    H     H_    0.207259 0.384236 0.079919 0.149097
H10   H     H_    0.276142 0.382570 0.191008 0.128764
H11   H     H_    0.213159 0.609100 0.796096 0.112132
H12   H     H_    0.276145 0.617427 0.691048 0.128764
H13   H     H_    0.351702 0.027330 0.874333 0.008965
H14   H     H_    0.207265 0.615765 0.579946 0.149088
H15   H     H_    0.713153 0.890896 0.296078 0.112129
H16   H     H_    0.707259 0.884234 0.079926 0.149105
H17   H     H_    0.776139 0.882569 0.191027 0.128763
H18   H     H_    0.713158 0.109098 0.796111 0.112130
H19   H     H_    0.776144 0.117427 0.691070 0.128765
H20   H     H_    0.707265 0.115766 0.579963 0.149086
H21   H     H_    0.336278 0.460977 0.751234 0.137835
H22   H     H_    0.367452 0.502592 0.890987 0.126948
H23   H     H_    0.403636 0.449207 0.860027 0.129701
H24   H     H_    0.351712 0.972667 0.374338 0.008965
H25   H     H_    0.354633 0.448350 0.118672 0.121883
H26   H     H_    0.324645 0.406877 0.977503 0.121797
H27   H     H_    0.242140 0.457658 0.907081 0.126130
H28   H     H_    0.275207 0.502872 0.022467 0.121746
H29   H     H_    0.367440 0.497423 0.390885 0.126953
H30   H     H_    0.336253 0.539047 0.251198 0.137844
H31   H     H_    0.403618 0.550812 0.359955 0.129699
H32   H     H_    0.324641 0.593128 0.477532 0.121807
H33   H     H_    0.354637 0.551644 0.618636 0.121890
H34   H     H_    0.275207 0.497129 0.522451 0.121738
H35   H     H_    0.869299 0.544965 0.080034 0.072425
H36   H     H_    0.242134 0.542343 0.407084 0.126138
H37   H     H_    0.836266 0.960963 0.751220 0.137837
H38   H     H_    0.867444 0.002582 0.890944 0.126951
H39   H     H_    0.903625 0.949196 0.859999 0.129702
H40   H     H_    0.854633 0.948350 0.118658 0.121883
H41   H     H_    0.824640 0.906872 0.977517 0.121800
H42   H     H_    0.742135 0.957656 0.907085 0.126132
H43   H     H_    0.775206 0.002869 0.022465 0.121744
H44   H     H_    0.867431 0.997436 0.390832 0.126961
H45   H     H_    0.836237 0.039063 0.251182 0.137852
H46   H     H_    0.869298 0.455035 0.580042 0.072427
H47   H     H_    0.903605 0.050827 0.359917 0.129704
H48   H     H_    0.824634 0.093133 0.477540 0.121816
H49   H     H_    0.854637 0.051646 0.618610 0.121896
H50   H     H_    0.775208 0.997132 0.522446 0.121735
H51   H     H_    0.742128 0.042345 0.407089 0.126142
H52   H     H_    0.185586 0.813332 0.621862 0.110783
H53   H     H_    0.260415 0.796172 0.666667 0.135577
H54   H     H_    0.215683 0.764692 0.529237 0.124017
H55   H     H_    0.260406 0.203818 0.166667 0.135573
H56   H     H_    0.185576 0.186657 0.121887 0.110780
H57   H     H_    0.369297 0.044965 0.080034 0.072422
H58   H     H_    0.215672 0.235294 0.029248 0.124013
H59   H     H_    0.685575 0.313339 0.621889 0.110781
H60   H     H_    0.760405 0.296178 0.666678 0.135575
H61   H     H_    0.715671 0.264701 0.529253 0.124014
H62   H     H_    0.760396 0.703816 0.166667 0.135573
H63   H     H_    0.685566 0.686653 0.121902 0.110772
H64   H     H_    0.715658 0.735290 0.029253 0.124015
H65   H     H_    0.961865 0.230881 0.863684 0.172763
H66   H     H_    0.894389 0.258260 0.906379 0.142182
H67   H     H_    0.908714 0.200583 0.970868 0.104122
H68   H     H_    0.369298 0.955034 0.580044 0.072432
H69   H     H_    0.961864 0.769119 0.363711 0.172760
H70   H     H_    0.908710 0.799414 0.470895 0.104122
H71   H     H_    0.894387 0.741738 0.406390 0.142184
H72   H     H_    0.461577 0.730969 0.863513 0.172855
H73   H     H_    0.394185 0.758376 0.906996 0.142095
H74   H     H_    0.408522 0.700659 0.971025 0.104177
H75   H     H_    0.461869 0.269123 0.363707 0.172755
H76   H     H_    0.408715 0.299418 0.470890 0.104117
H77   H     H_    0.394389 0.241742 0.406373 0.142181
H78   H     H_    0.749348 0.546637 0.907318 0.120300
H79   H     H_    0.749350 0.453361 0.407303 0.120301
H80   H     H_    0.249346 0.046636 0.907320 0.120301
H81   H     H_    0.049532 0.672910 0.175804 0.094645
H82   H     H_    0.249354 0.953361 0.407281 0.120301
H83   H     H_    0.794353 0.595269 0.955262 0.062408
H84   H     H_    0.794354 0.404729 0.455262 0.062411
H85   H     H_    0.294351 0.095268 0.955263 0.062408
H86   H     H_    0.294358 0.904729 0.455248 0.062409
H87   H     H_    0.765848 0.562231 0.115101 0.120387
H88   H     H_    0.765844 0.437771 0.615089 0.120387
H89   H     H_    0.265846 0.062229 0.115102 0.120388
H90   H     H_    0.265843 0.937770 0.615070 0.120388
H91   H     H_    0.020130 0.310447 0.478793 -0.057992
H92   H     H_    0.549522 0.827078 0.676187 0.094858
H93   H     H_    0.020131 0.689548 0.978803 -0.057999
H94   H     H_    0.520205 0.810496 0.479046 -0.057960
H95   H     H_    0.520126 0.189556 0.978793 -0.058003
H96   H     H_    0.092296 0.254909 0.572956 0.078803
H97   H     H_    0.092296 0.745088 0.072953 0.078800
H98   H     H_    0.592337 0.754930 0.573380 0.078811
H99   H     H_    0.592288 0.245095 0.072923 0.078795
H100  H     H_    0.056773 0.246725 0.757952 0.143140
H101  H     H_    0.056773 0.753278 0.257967 0.143128
H102  H     H_    0.556652 0.746667 0.758108 0.143192
H103  H     H_    0.549534 0.172910 0.175781 0.094626
H104  H     H_    0.556787 0.253271 0.257989 0.143130
H105  H     H_    0.922043 0.250560 0.202936 0.082677
H106  H     H_    0.922038 0.749435 0.702954 0.082677
H107  H     H_    0.422188 0.750495 0.203376 0.082654
H108  H     H_    0.422036 0.249434 0.702945 0.082675
H109  H     H_    0.066141 0.585229 0.834193 0.078144
H110  H     H_    0.066143 0.414770 0.334191 0.078142
H111  H     H_    0.566142 0.085228 0.834190 0.078143
H112  H     H_    0.566142 0.914770 0.334193 0.078130
H113  H     H_    0.135903 0.723218 0.610274 0.111269
H114  H     H_    0.263730 0.462828 0.274400 0.098953
H115  H     H_    0.135899 0.276776 0.110280 0.111264
H116  H     H_    0.635898 0.223221 0.610285 0.111265
H117  H     H_    0.635887 0.776771 0.110296 0.111239
H118  H     H_    0.785498 0.402781 0.932369 0.092441
H119  H     H_    0.785497 0.597217 0.432370 0.092442
H120  H     H_    0.285501 0.902778 0.932360 0.092440
H121  H     H_    0.285498 0.097218 0.432371 0.092441
H122  H     H_    0.204109 0.602918 0.279184 0.098720
H123  H     H_    0.204111 0.397084 0.779180 0.098714
H124  H     H_    0.704107 0.102919 0.279187 0.098717
H125  H     H_    0.263733 0.537168 0.774397 0.098957
H126  H     H_    0.704109 0.897083 0.779182 0.098720
H127  H     H_    0.872755 0.271393 0.562007 0.111392
H128  H     H_    0.872749 0.728607 0.062020 0.111388
H129  H     H_    0.372760 0.771390 0.561992 0.111443
H130  H     H_    0.372754 0.228609 0.062015 0.111383
H131  H     H_    0.933878 0.415049 0.354557 0.071961
H132  H     H_    0.933876 0.584951 0.854558 0.071960
H133  H     H_    0.433878 0.915049 0.354553 0.071968
H134  H     H_    0.433875 0.084951 0.854562 0.071960
H135  H     H_    0.718291 0.345678 0.850668 0.073258
H136  H     H_    0.763729 0.962827 0.274401 0.098954
H137  H     H_    0.718290 0.654318 0.350670 0.073255
H138  H     H_    0.218299 0.845672 0.850649 0.073262
H139  H     H_    0.218293 0.154321 0.350666 0.073257
H140  H     H_    0.266863 0.659333 0.371868 0.053614
H141  H     H_    0.266860 0.340667 0.871875 0.053609
H142  H     H_    0.766854 0.159338 0.371884 0.053612
H143  H     H_    0.766856 0.840665 0.871878 0.053610
H144  H     H_    0.022118 0.228821 0.568490 0.106668
H145  H     H_    0.022113 0.771180 0.068491 0.106667
H146  H     H_    0.522140 0.728845 0.568334 0.106619
H147  H     H_    0.763734 0.037167 0.774396 0.098958
H148  H     H_    0.522103 0.271186 0.068552 0.106671
H149  H     H_    0.814417 0.212091 0.466012 0.070109
H150  H     H_    0.814409 0.787908 0.966026 0.070110
H151  H     H_    0.314429 0.712086 0.465989 0.070101
H152  H     H_    0.314416 0.287911 0.966016 0.070110
H153  H     H_    0.946666 0.322241 0.033822 0.073302
H154  H     H_    0.946665 0.677756 0.533828 0.073305
H155  H     H_    0.446668 0.822250 0.034236 0.073099
H156  H     H_    0.446663 0.177757 0.533812 0.073311
H157  H     H_    0.983902 0.313504 0.226062 -0.106599
H158  H     H_    0.851704 0.527331 0.874333 0.008966
H159  H     H_    0.983900 0.686492 0.726073 -0.106591
H160  H     H_    0.483997 0.813441 0.226309 -0.106647
H161  H     H_    0.483896 0.186490 0.726064 -0.106603
H162  H     H_    0.990627 0.228319 0.155036 0.112181
H163  H     H_    0.990623 0.771679 0.655067 0.112179
H164  H     H_    0.490696 0.728263 0.154624 0.112206
H165  H     H_    0.490623 0.271678 0.655074 0.112172
H166  H     H_    0.159735 0.467902 0.291028 -0.022293
H167  H     H_    0.159738 0.532097 0.791033 -0.022289
H168  H     H_    0.659735 0.967903 0.291032 -0.022290
O1    O     O_2   0.885810 0.435270 0.885040 -0.465160
O2    O     O_3   0.030843 0.699861 0.524293 -0.602213
O3    O     O_3   0.530832 0.800142 0.024267 -0.602226
O4    O     O_3   0.530842 0.199861 0.524287 -0.602210
O5    O     O_3   0.066460 0.522600 0.056690 -0.486797
O6    O     O_3   0.066460 0.477400 0.556690 -0.486801
O7    O     O_3   0.566460 0.022600 0.056690 -0.486797
O8    O     O_3   0.566460 0.977400 0.556690 -0.486799
O9    O     O_3   0.933490 0.477290 0.133000 -0.492621
O10   O     O_3   0.933490 0.522710 0.633000 -0.492627
O11   O     O_3   0.433490 0.977290 0.133000 -0.492623
O12   O     O_2   0.885810 0.564730 0.385040 -0.465158
O13   O     O_3   0.433490 0.022710 0.633000 -0.492628
O14   O     O_3   0.980190 0.395350 0.639000 -0.481519
O15   O     O_3   0.980190 0.604650 0.139000 -0.481522
O16   O     O_3   0.480190 0.895350 0.639000 -0.481548
O17   O     O_3   0.480190 0.104650 0.139000 -0.481518
O18   O     O_2   0.887070 0.357410 0.748190 -0.486063
O19   O     O_2   0.887070 0.642590 0.248196 -0.486064
O20   O     O_2   0.387058 0.857419 0.748163 -0.485995
O21   O     O_2   0.387070 0.142590 0.248198 -0.486064
O22   O     O_3   0.820016 0.486342 0.048545 -0.641333
O23   O     O_2   0.385810 0.935270 0.885040 -0.465149
O24   O     O_3   0.820016 0.513658 0.548540 -0.641335
O25   O     O_3   0.320016 0.986341 0.048546 -0.641336
O26   O     O_3   0.320017 0.013657 0.548539 -0.641335
O27   O     O_3   0.967036 0.300568 0.669427 -0.604863
O28   O     O_3   0.967035 0.699432 0.169436 -0.604863
O29   O     O_3   0.467016 0.800568 0.669453 -0.604901
O30   O     O_3   0.467035 0.199432 0.169446 -0.604857
O31   O     O_2   0.113920 0.434910 0.804950 -0.472547
O32   O     O_2   0.113920 0.565090 0.304950 -0.472544
O33   O     O_2   0.613920 0.934910 0.804950 -0.472556
O34   O     O_2   0.385810 0.064730 0.385040 -0.465156
O35   O     O_2   0.613920 0.065090 0.304950 -0.472542
O36   O     O_3   0.019410 0.395290 0.051170 -0.473186
O37   O     O_3   0.019410 0.604710 0.551170 -0.473186
O38   O     O_3   0.519410 0.895290 0.051170 -0.473160
O39   O     O_3   0.519410 0.104710 0.551170 -0.473184
O40   O     O_2   0.110969 0.356083 0.939204 -0.499829
O41   O     O_2   0.110968 0.643917 0.439203 -0.499833
O42   O     O_2   0.610970 0.856082 0.939215 -0.499901
O43   O     O_2   0.610969 0.143917 0.439206 -0.499828
O44   O     O_3   0.184360 0.480367 0.643224 -0.671865
O45   O     O_3   0.184360 0.519632 0.143223 -0.671866
O46   O     O_3   0.684360 0.980367 0.643221 -0.671862
O47   O     O_3   0.684359 0.019631 0.143223 -0.671866
O48   O     O_3   0.030843 0.300138 0.024276 -0.602210
P1    P     P_3+3 0.880180 0.450420 0.058010 0.973545
P2    P     P_3+3 0.067935 0.649353 0.573096 0.939752
P3    P     P_3+3 0.567932 0.850645 0.073097 0.939692
P4    P     P_3+3 0.567934 0.149354 0.573096 0.939758
P5    P     P_3+3 0.930978 0.648842 0.116689 0.937943
P6    P     P_3+3 0.930979 0.351158 0.616684 0.937946
P7    P     P_3+3 0.430978 0.148843 0.116692 0.937945
P8    P     P_3+3 0.430974 0.851160 0.616680 0.937990
P9    P     P_3+3 0.880180 0.549580 0.558010 0.973539
P10   P     P_3+3 0.380180 0.950420 0.058010 0.973553
P11   P     P_3+3 0.380180 0.049580 0.558010 0.973539
P12   P     P_3+3 0.119600 0.450040 0.631910 0.965254
P13   P     P_3+3 0.119600 0.549960 0.131910 0.965257
P14   P     P_3+3 0.619600 0.950040 0.631910 0.965239
P15   P     P_3+3 0.619600 0.049960 0.131910 0.965256
P16   P     P_3+3 0.067935 0.350646 0.073093 0.939753

loop_
_geom_bond_atom_site_label_1
_geom_bond_atom_site_label_2
_ccdc_geom_bond_type
C102  O2    S    
C70   H113  S    
C129  C133  A    
C34   O27   S    
C35   C83   A    
C59   H48   S    
C132  C136  A    
C20   O46   S    
O34   P11   D    
C2    C71   A    
C131  C135  A    
C146  C159  A    
C37   H92   S    
C118  C157  A    
C73   H97   S    
C9    C14   A    
C53   H31   S    
C10   H133  S    
Ba4   O35   S    
C69   H75   S    
C47   H19   S    
C4    P6    S    
C64   H62   S    
Ba2   O6    S    
C40   C117  A    
C96   C100  A    
C52   C53   S    
C20   H7    S    
C5    C9    A    
C13   C57   A    
C142  C146  A    
Ba2   P13   S    
C7    C11   A    
C8    C12   A    
C88   P2    S    
C13   C72   A    
C130  H124  S    
C39   C106  A    
C90   P4    S    
C29   H68   S    
C49   H26   S    
C26   O22   S    
C62   H58   S    
Ba3   O13   S    
C44   H11   S    
C95   H99   S    
C55   C56   S    
C89   P16   S    
Ba4   P15   S    
C58   H50   S    
C98   C107  A    
O30   P7    S    
Ba3   O33   S    
C160  H129  S    
C11   C16   A    
C98   P12   S    
C13   C63   S    
C72   H116  S    
C35   C150  A    
Ba4   O17   S    
C91   P3    S    
C117  C124  A    
C158  H127  S    
Ba3   O8    S    
C68   C87   A    
C116  C121  A    
C153  H108  S    
C15   C121  A    
C1    H96   S    
C42   C113  A    
C99   C108  A    
O44   P12   S    
C62   H55   S    
C74   C78   A    
O10   P9    S    
C63   H59   S    
C56   H38   S    
Ba1   P1    S    
C70   C75   A    
Ba2   O37   S    
C114  C154  A    
O2    P2    S    
C6    C156  A    
C39   C57   A    
C9    H132  S    
C10   C15   A    
C108  C130  A    
C112  C143  A    
C81   C86   A    
C64   H64   S    
Ba2   O12   S    
C61   H53   S    
C67   C152  S    
C31   H88   S    
C40   C68   A    
C66   H71   S    
O6    P12   S    
C43   H10   S    
C102  H154  S    
C3    C148  A    
C121  C125  A    
C41   C128  A    
C115  C155  A    
C33   H90   S    
C109  C131  A    
C53   H29   S    
C116  C156  A    
C122  C126  A    
C36   C73   S    
C145  C158  A    
C76   C89   A    
O17   P7    S    
C48   H27   S    
C94   C99   A    
C101  O48   S    
O40   P16   D    
C146  H150  S    
C34   H1    S    
C101  C149  S    
C31   H79   S    
C99   P15   S    
O9    P1    S    
C83   C136  A    
C81   C108  A    
C44   H14   S    
C36   H81   S    
C84   H98   S    
C152  H107  S    
O25   P10   S    
C3    C157  A    
C111  C142  A    
Ba1   O14   S    
C17   H4    S    
C113  C144  A    
C28   C32   S    
C24   C64   S    
O12   P9    D    
C69   C153  S    
C88   C92   A    
C70   C150  A    
Ba4   O34   S    
C56   H39   S    
C55   H40   S    
C50   H21   S    
C7    P7    S    
C5    P5    S    
C159  H128  S    
C35   C41   A    
C8    H131  S    
O8    P14   S    
C147  H151  S    
C95   H148  S    
Ba4   O7    S    
C136  C143  A    
C131  H126  S    
C95   H104  S    
C26   C30   S    
C66   C151  S    
C67   H74   S    
C20   H3    S    
O21   P7    D    
C127  C132  A    
C6    C10   A    
C104  C153  S    
C112  C116  A    
C66   H69   S    
C143  C147  A    
C113  C118  A    
C74   H117  S    
O31   P12   D    
C65   H65   S    
Ba1   O1    S    
C119  C123  A    
C4    C8    A    
C2    C46   A    
C152  H164  S    
C45   H17   S    
C111  C115  A    
O28   P5    S    
C18   C22   S    
Ba3   Ba4   S    
C89   C93   A    
C151  H106  S    
C133  H141  S    
O24   P9    S    
C14   P9    S    
O19   P5    D    
C25   C47   S    
C17   C21   S    
C78   C91   A    
O3    P3    S    
C144  C148  A    
C110  C141  A    
C21   H114  S    
C1    H144  S    
O15   P5    S    
Ba1   P12   S    
O20   P8    D    
C53   H30   S    
C21   C48   S    
C77   C90   A    
C41   C112  A    
C18   H167  S    
C29   O26   S    
C29   H24   S    
C100  C109  A    
C134  H142  S    
C147  C160  A    
C80   C85   A    
C30   H83   S    
C97   P13   S    
C45   H15   S    
C38   H103  S    
C1    C34   S    
C49   H25   S    
C17   H166  S    
C77   C81   A    
C23   C45   S    
Ba3   O16   S    
C44   H12   S    
C79   C83   A    
C51   C52   S    
C102  H159  S    
C36   O28   S    
C58   H51   S    
O36   P16   S    
C103  O3    S    
C138  C141  A    
C76   C80   A    
C4    C154  A    
C28   H57   S    
O35   P15   D    
Ba3   P14   S    
C48   C49   S    
C38   O30   S    
C31   H84   S    
C26   H158  S    
C96   H112  S    
C82   C109  A    
C156  C160  A    
C123  H118  S    
C82   C87   A    
C65   H67   S    
C39   C110  A    
Ba3   O7    S    
O32   P13   D    
C63   H61   S    
C97   C105  A    
C33   H86   S    
O47   P15   S    
C7    C157  A    
O45   P13   S    
C20   C25   S    
C62   H56   S    
C52   H32   S    
O22   P1    S    
C105  C127  A    
C30   H87   S    
C93   H110  S    
C21   C43   S    
C93   C98   A    
C22   C44   S    
C120  C124  A    
C125  C128  A    
O43   P4    D    
C55   H41   S    
C34   H91   S    
C128  H138  S    
C92   C97   A    
C101  H157  S    
O11   P10   S    
C24   C68   A    
Ba2   O32   S    
C3    H130  S    
C100  P14   S    
C16   P11   S    
C17   O45   S    
C80   C107  A    
C153  H165  S    
C32   H80   S    
C69   H76   S    
C140  C142  A    
C47   H20   S    
C134  C138  A    
C91   C96   A    
Ba2   O5    S    
O37   P2    S    
O4    P4    S    
C54   C55   S    
C49   C50   S    
C29   C33   S    
C33   H82   S    
O23   P10   D    
C125  H120  S    
C16   C122  A    
C58   C59   S    
C46   C85   A    
C51   H36   S    
C106  H135  S    
C32   H85   S    
Ba4   O11   S    
C15   P10   S    
C18   O44   S    
C86   C138  A    
C37   O29   S    
Ba1   O36   S    
C27   C31   S    
C60   H45   S    
O1    P1    D    
C52   H33   S    
C37   C84   S    
C133  C137  A    
C28   O25   S    
C23   H136  S    
C23   C54   S    
C127  H122  S    
C36   H93   S    
C132  H140  S    
C145  H149  S    
O41   P2    D    
C12   P1    S    
C148  H152  S    
C104  O4    S    
C78   C82   A    
C75   C79   A    
C27   H46   S    
C73   H101  S    
C114  C119  A    
C63   H60   S    
O27   P6    S    
C65   C149  S    
C18   H5    S    
C94   H111  S    
O39   P4    S    
C56   H37   S    
C69   H77   S    
C50   H22   S    
C104  H161  S    
C27   O24   S    
C25   H147  S    
C38   C95   S    
C141  C145  A    
O13   P11   S    
C30   H78   S    
C22   H125  S    
Ba4   O8    S    
C47   H18   S    
C22   C51   S    
O7    P15   S    
C43   H8    S    
C64   H63   S    
C115  C120  A    
O5    P13   S    
C60   H44   S    
O18   P6    D    
Ba1   O31   S    
Ba4   P11   S    
C67   H73   S    
C103  H160  S    
O16   P8    S    
C12   C119  A    
C66   H70   S    
C61   H54   S    
C51   H34   S    
C135  H143  S    
C5    C155  A    
C54   H42   S    
Ba1   Ba2   S    
C48   H28   S    
Ba1   O10   S    
O26   P11   S    
C149  H162  S    
C137  C144  A    
C40   C111  A    
C129  H123  S    
Ba3   O38   S    
C1    H100  S    
C79   C105  A    
C60   H47   S    
C19   C23   S    
C24   C74   A    
C71   C76   A    
C103  C152  S    
C139  H139  S    
C106  C123  A    
Ba3   P10   S    
C26   H35   S    
C57   C86   A    
C92   H109  S    
C38   H95   S    
C126  H121  S    
O29   P8    S    
Ba2   O15   S    
C6    P8    S    
Ba3   O23   S    
O46   P14   S    
C61   H52   S    
C107  C129  A    
C117  H137  S    
C59   C60   S    
C71   H115  S    
O33   P14   D    
C118  C122  A    
C61   C150  S    
C135  C140  A    
Ba4   O39   S    
C27   H2    S    
C19   H168  S    
C43   H9    S    
C67   H72   S    
C59   H49   S    
C126  C139  A    
C75   C88   A    
C110  C114  A    
C11   H134  S    
C155  C159  A    
O42   P3    D    
Ba1   O5    S    
C101  H153  S    
Ba2   O9    S    
C87   C140  A    
C103  H155  S    
C25   C58   S    
C104  H156  S    
C73   H145  S    
O48   P16   S    
C149  H105  S    
C72   C77   A    
C130  C134  A    
C42   C139  A    
C42   C46   A    
C84   H146  S    
C32   H89   S    
C50   H23   S    
C45   H16   S    
Ba1   O6    S    
C65   H66   S    
O38   P3    S    
C84   H102  S    
C19   H6    S    
C54   H43   S    
C85   C137  A    
C90   C94   A    
C37   H94   S    
C28   H13   S    
Ba2   P9    S    
C154  C158  A    
O14   P6    S    
C2    C62   S    
C151  H163  S    
C102  C151  S    
C19   O47   S    
C124  H119  S    
C14   C120  A    
