data_mof_unit_51497.cif
_audit_creation_date              2012-12-11T14:52:30-0500
_audit_creation_method            fapswitch 2.2
_symmetry_space_group_name_H-M    P1
_symmetry_Int_Tables_number       1
_space_group_crystal_system       triclinic
_cell_length_a                    18.707814
_cell_length_b                    10.999171
_cell_length_c                    18.714772
_cell_angle_alpha                 90.085037
_cell_angle_beta                  91.32924
_cell_angle_gamma                 90.003541
_cell_volume                      3849.90642266

loop_
_atom_site_label
_atom_site_type_symbol
_atom_type_description
_atom_site_fract_x
_atom_site_fract_y
_atom_site_fract_z
_atom_type_partial_charge
C1    C     C_R   0.271838 0.043741 0.853587 0.572252
C2    C     C_R   0.728464 0.044126 0.146632 0.568544
C3    C     C_R   0.771827 0.543747 0.853581 0.572288
C4    C     C_R   0.228496 0.544176 0.146665 0.568616
C5    C     C_3   0.557381 0.775223 0.966944 -0.134321
C6    C     C_3   0.507276 0.714819 0.020724 -0.088235
C7    C     C_3   0.057538 0.275765 0.966937 -0.134419
C8    C     C_3   0.007604 0.214868 0.020691 -0.088064
C9    C     C_R   0.305513 0.536170 0.963236 -0.126966
C10   C     C_R   0.691490 0.543814 0.035834 -0.108430
C11   C     C_R   0.805491 0.036088 0.963186 -0.126656
C12   C     C_R   0.191412 0.044079 0.035797 -0.108039
C13   C     C_R   0.303970 0.529752 0.037653 0.037728
C14   C     C_R   0.694756 0.534501 0.961681 0.025559
C15   C     C_R   0.803919 0.029746 0.037604 0.037692
C16   C     C_R   0.194712 0.034755 0.961647 0.025419
C17   C     C_R   0.246067 0.582745 0.074214 0.014908
C18   C     C_R   0.755357 0.580891 0.926495 0.016470
C19   C     C_R   0.745912 0.082505 0.074110 0.014822
C20   C     C_R   0.255409 0.080869 0.926512 0.016486
C21   C     C_R   0.194207 0.650413 0.034773 0.188510
C22   C     C_R   0.809623 0.641140 0.967311 0.197026
C23   C     C_R   0.693887 0.149711 0.034583 0.188538
C24   C     C_R   0.309758 0.140832 0.967378 0.197143
C25   C     C_R   0.194112 0.647454 0.961543 -0.110475
C26   C     C_R   0.808443 0.637273 0.040395 -0.113272
C27   C     C_R   0.693826 0.146591 0.961354 -0.110465
C28   C     C_R   0.308524 0.136941 0.040459 -0.113354
C29   C     C_R   0.250721 0.595438 0.924999 -0.055097
C30   C     C_R   0.748603 0.594248 0.075361 -0.047124
C31   C     C_R   0.750622 0.095044 0.924889 -0.054868
C32   C     C_R   0.248587 0.094210 0.075371 -0.046806
C33   C     C_R   0.497825 0.721491 0.536183 -0.112949
C34   C     C_R   0.501943 0.721575 0.463617 -0.113134
C35   C     C_R   0.997825 0.221491 0.536183 -0.112953
C36   C     C_R   0.001942 0.221576 0.463616 -0.113137
C37   C     C_R   0.506601 0.830942 0.426245 0.020500
C38   C     C_R   0.493467 0.830787 0.573815 0.020990
C39   C     C_R   0.006600 0.330942 0.426245 0.020497
C40   C     C_R   0.993466 0.330787 0.573815 0.020989
C41   C     C_R   0.503945 0.942045 0.463192 -0.121398
C42   C     C_R   0.496458 0.941972 0.537152 -0.121046
C43   C     C_R   0.003944 0.442046 0.463191 -0.121402
C44   C     C_R   0.996457 0.441972 0.537152 -0.121047
C45   C     C_R   0.470743 0.822198 0.855207 0.550475
C46   C     C_R   0.531157 0.821321 0.143643 0.552078
C47   C     C_R   0.970734 0.322198 0.855213 0.550555
C48   C     C_R   0.031140 0.321329 0.143652 0.552072
C49   C     C_R   0.222028 0.733676 0.518579 -0.126062
C50   C     C_R   0.778249 0.733225 0.481535 -0.125800
C51   C     C_R   0.722025 0.233671 0.518581 -0.126046
C52   C     C_R   0.278251 0.233223 0.481533 -0.125789
C53   C     C_R   0.213802 0.708242 0.446571 0.057087
C54   C     C_R   0.786442 0.707852 0.553512 0.057206
C55   C     C_R   0.713797 0.208235 0.446574 0.057083
C56   C     C_R   0.286447 0.207847 0.553509 0.057210
C57   C     C_R   0.257398 0.617492 0.415547 0.038714
C58   C     C_R   0.742709 0.617320 0.584453 0.038707
C59   C     C_R   0.757395 0.117490 0.415549 0.038711
C60   C     C_R   0.242711 0.117318 0.584452 0.038710
C61   C     C_R   0.319051 0.577776 0.453628 0.181103
C62   C     C_R   0.680976 0.577876 0.546342 0.181143
C63   C     C_R   0.819050 0.077779 0.453628 0.181102
C64   C     C_R   0.180976 0.077880 0.546342 0.181141
C65   C     C_R   0.327005 0.606924 0.525762 -0.101953
C66   C     C_R   0.672996 0.607116 0.474254 -0.101552
C67   C     C_R   0.827006 0.106930 0.525762 -0.101955
C68   C     C_R   0.172995 0.107121 0.474255 -0.101556
C69   C     C_R   0.274811 0.676128 0.559589 -0.049949
C70   C     C_R   0.725312 0.675997 0.440470 -0.049760
C71   C     C_R   0.774811 0.176130 0.559590 -0.049943
C72   C     C_R   0.225311 0.176000 0.440469 -0.049763
C73   C     C_R   0.260392 0.635699 0.851719 0.558038
C74   C     C_R   0.739442 0.635622 0.148349 0.560410
C75   C     C_R   0.760367 0.135603 0.851677 0.558059
C76   C     C_R   0.239438 0.135621 0.148351 0.560533
C77   C     C_R   0.269118 0.051925 0.648158 0.566993
C78   C     C_R   0.730899 0.052013 0.351824 0.567380
C79   C     C_R   0.769117 0.551926 0.648159 0.566986
C80   C     C_R   0.230900 0.552014 0.351824 0.567386
C81   C     C_R   0.469414 0.823548 0.646698 0.539629
C82   C     C_R   0.530608 0.823632 0.353326 0.540660
C83   C     C_R   0.969414 0.323548 0.646698 0.539649
C84   C     C_R   0.030607 0.323632 0.353326 0.540652
C85   C     C_R   0.275688 0.692755 0.636913 0.561512
C86   C     C_R   0.724356 0.692733 0.363155 0.561258
C87   C     C_R   0.775688 0.192755 0.636913 0.561494
C88   C     C_R   0.224355 0.192734 0.363154 0.561247
C89   C     C_3   0.447497 0.886674 0.031208 -0.120218
C90   C     C_3   0.497529 0.946791 0.976709 -0.086388
C91   C     C_3   0.947310 0.386187 0.031231 -0.120753
C92   C     C_3   0.997166 0.446796 0.976757 -0.086854
C93   C     C_3   0.441637 0.772666 0.983326 -0.102820
C94   C     C_3   0.563279 0.889074 0.015116 -0.116832
C95   C     C_3   0.941799 0.272192 0.983310 -0.102533
C96   C     C_3   0.063089 0.389613 0.015150 -0.116814
C97   C     C_3   0.492208 0.832093 0.930010 0.041872
C98   C     C_3   0.512540 0.828549 0.067988 0.045375
C99   C     C_3   0.992194 0.332106 0.930017 0.042002
C100  C     C_3   0.012524 0.328586 0.067997 0.045426
Cr1   Cr    Cr6+3 0.229630 0.835900 0.747350 1.114278
Cr2   Cr    Cr6+3 0.770370 0.835900 0.252650 1.115095
Cr3   Cr    Cr6+3 0.729630 0.335900 0.747350 1.114283
Cr4   Cr    Cr6+3 0.270370 0.335900 0.252650 1.115109
Cr5   Cr    Cr6+3 0.387410 0.989850 0.750850 1.098367
Cr6   Cr    Cr6+3 0.612590 0.989850 0.249150 1.102505
Cr7   Cr    Cr6+3 0.887410 0.489850 0.750850 1.098361
Cr8   Cr    Cr6+3 0.112590 0.489850 0.249150 1.102434
Cr9   Cr    Cr6+3 0.385800 0.677120 0.749340 1.093791
Cr10  Cr    Cr6+3 0.614200 0.677120 0.250660 1.091975
Cr11  Cr    Cr6+3 0.885800 0.177120 0.749340 1.093888
Cr12  Cr    Cr6+3 0.114200 0.177120 0.250660 1.092150
H1    H     H_    0.390839 0.727059 0.968281 0.133566
H2    H     H_    0.613788 0.935866 0.030471 0.140667
H3    H     H_    0.891152 0.226163 0.968231 0.133705
H4    H     H_    0.113433 0.436911 0.030515 0.141020
H5    H     H_    0.185241 0.795307 0.543179 0.216390
H6    H     H_    0.815144 0.794644 0.457014 0.216561
H7    H     H_    0.685236 0.295299 0.543182 0.216403
H8    H     H_    0.315147 0.294640 0.457011 0.216569
H9    H     H_    0.372312 0.571411 0.555812 0.187204
H10   H     H_    0.627550 0.571959 0.444200 0.187134
H11   H     H_    0.872315 0.071421 0.555811 0.187198
H12   H     H_    0.127547 0.071967 0.444201 0.187124
H13   H     H_    0.402588 0.930365 0.059164 0.131020
H14   H     H_    0.495010 0.041726 0.956898 0.202651
H15   H     H_    0.902256 0.429472 0.059173 0.130944
H16   H     H_    0.994347 0.541730 0.956977 0.202538
H17   H     H_    0.602918 0.734523 0.938698 0.145114
H18   H     H_    0.511897 0.619433 0.039196 0.184974
H19   H     H_    0.103201 0.235456 0.938697 0.144964
H20   H     H_    0.012466 0.119491 0.039133 0.184852
H21   H     H_    0.351558 0.501348 0.935784 0.209857
H22   H     H_    0.643242 0.515976 0.062160 0.203039
H23   H     H_    0.851640 0.001557 0.935785 0.209927
H24   H     H_    0.143091 0.016498 0.062081 0.203001
H25   H     H_    0.151560 0.695374 0.933364 0.210084
H26   H     H_    0.852721 0.678480 0.069803 0.207594
H27   H     H_    0.651164 0.194127 0.933106 0.209889
H28   H     H_    0.352854 0.177897 0.069913 0.207504
H29   H     H_    0.494108 0.634126 0.562141 0.213356
H30   H     H_    0.505450 0.634234 0.437453 0.213561
H31   H     H_    0.994108 0.134127 0.562140 0.213355
H32   H     H_    0.005449 0.134235 0.437452 0.213559
H33   H     H_    0.509006 0.027813 0.435398 0.169712
H34   H     H_    0.491657 0.027715 0.565171 0.169806
H35   H     H_    0.009006 0.527814 0.435398 0.169704
H36   H     H_    0.991656 0.527716 0.565171 0.169803
O1    O     O_R   0.214270 0.709000 0.827470 -0.500659
O2    O     O_R   0.785730 0.709000 0.172530 -0.500180
O3    O     O_R   0.714270 0.209000 0.827470 -0.500575
O4    O     O_R   0.285730 0.209000 0.172530 -0.500126
O5    O     O_R   0.445950 0.919440 0.676520 -0.502973
O6    O     O_R   0.554050 0.919440 0.323480 -0.502376
O7    O     O_R   0.945950 0.419440 0.676520 -0.502965
O8    O     O_R   0.054050 0.419440 0.323480 -0.502381
O9    O     O_R   0.456730 0.717630 0.669840 -0.510357
O10   O     O_R   0.543270 0.717630 0.330160 -0.509806
O11   O     O_R   0.956730 0.217630 0.669840 -0.510328
O12   O     O_R   0.043270 0.217630 0.330160 -0.509791
O13   O     O_R   0.320620 0.625640 0.672920 -0.483113
O14   O     O_R   0.679380 0.625640 0.327080 -0.482671
O15   O     O_R   0.820620 0.125640 0.672920 -0.483116
O16   O     O_R   0.179380 0.125640 0.327080 -0.482635
O17   O     O_3   0.334280 0.834290 0.749180 -0.314578
O18   O     O_3   0.665720 0.834290 0.250820 -0.316099
O19   O     O_3   0.834280 0.334290 0.749180 -0.314570
O20   O     O_3   0.165720 0.334290 0.250820 -0.316107
O21   O     O_R   0.236160 0.958490 0.823130 -0.482565
O22   O     O_R   0.763840 0.958490 0.176870 -0.482210
O23   O     O_R   0.736160 0.458490 0.823130 -0.482534
O24   O     O_R   0.263840 0.458490 0.176870 -0.482250
O25   O     O_R   0.332080 0.075470 0.831280 -0.442982
O26   O     O_R   0.667920 0.075470 0.168720 -0.443907
O27   O     O_R   0.832080 0.575470 0.831280 -0.443002
O28   O     O_R   0.167920 0.575470 0.168720 -0.443952
O29   O     O_R   0.446300 0.918110 0.826620 -0.493153
O30   O     O_R   0.553700 0.918110 0.173380 -0.486122
O31   O     O_R   0.946300 0.418110 0.826620 -0.493283
O32   O     O_R   0.053700 0.418110 0.173380 -0.486330
O33   O     O_R   0.457110 0.716200 0.831760 -0.488900
O34   O     O_R   0.542890 0.716200 0.168240 -0.502206
O35   O     O_R   0.957110 0.216200 0.831760 -0.488838
O36   O     O_R   0.042890 0.216200 0.168240 -0.502132
O37   O     O_R   0.320980 0.624310 0.823030 -0.487998
O38   O     O_R   0.679020 0.624310 0.176970 -0.486646
O39   O     O_R   0.820980 0.124310 0.823030 -0.488028
O40   O     O_R   0.179020 0.124310 0.176970 -0.486555
O41   O     O_R   0.213890 0.710430 0.665540 -0.476296
O42   O     O_R   0.786110 0.710430 0.334460 -0.476021
O43   O     O_R   0.713890 0.210430 0.665540 -0.476341
O44   O     O_R   0.286110 0.210430 0.334460 -0.476022
O45   O     O_R   0.235810 0.959820 0.673020 -0.469274
O46   O     O_R   0.764190 0.959820 0.326980 -0.469013
O47   O     O_R   0.735810 0.459820 0.673020 -0.469300
O48   O     O_R   0.264190 0.459820 0.326980 -0.469041
O49   O     O_R   0.331700 0.076900 0.669350 -0.491926
O50   O     O_R   0.668300 0.076900 0.330650 -0.491478
O51   O     O_R   0.831700 0.576900 0.669350 -0.491905
O52   O     O_R   0.168300 0.576900 0.330650 -0.491443
I1    I     I_    0.131806 0.811037 0.392784 -0.236581
I2    I     I_    0.868548 0.810619 0.607364 -0.239080
I3    I     I_    0.631790 0.311016 0.392795 -0.236740
I4    I     I_    0.368565 0.310598 0.607354 -0.239160
Cl1   Cl    Cl    0.387060 0.491399 0.414121 -0.602135
Cl2   Cl    Cl    0.612848 0.491926 0.585813 -0.602064
Cl3   Cl    Cl    0.887060 0.991403 0.414121 -0.602124
Cl4   Cl    Cl    0.112848 0.991929 0.585814 -0.602035
I5    I     I_    0.395451 0.450747 0.089141 -0.244517
I6    I     I_    0.602183 0.460669 0.908728 -0.251425
I7    I     I_    0.895532 0.951339 0.089178 -0.244903
I8    I     I_    0.102070 0.961351 0.908605 -0.251943
Cl5   Cl    Cl    0.127313 0.743352 0.072269 -0.552323
Cl6   Cl    Cl    0.880351 0.728310 0.932127 -0.565319
Cl7   Cl    Cl    0.626746 0.242313 0.071935 -0.551886
Cl8   Cl    Cl    0.380667 0.227679 0.932279 -0.564928

loop_
_geom_bond_atom_site_label_1
_geom_bond_atom_site_label_2
_ccdc_geom_bond_type
C76   O40   A    
Cr2   O22   S    
C87   O15   A    
C49   C53   A    
C58   C62   A    
C46   O34   A    
Cr10  O18   S    
C55   C59   A    
Cr6   O26   S    
C34   C37   A    
C85   O13   A    
C41   C42   A    
C14   C18   A    
Cr5   O5    S    
C35   C36   A    
C28   H28   S    
C6    H18   S    
Cr9   O9    S    
C68   H12   S    
C5    C94   S    
C84   O12   A    
C81   O5    A    
C7    C8    S    
Cr12  O36   S    
C23   Cl7   S    
C35   H31   S    
Cr3   O19   S    
C7    C96   S    
C64   Cl4   S    
C1    O25   A    
C50   C54   A    
C91   H15   S    
C46   O30   A    
C37   C41   A    
C64   C68   A    
C51   H7    S    
C39   C84   S    
C38   C42   A    
Cr1   O41   S    
C5    C6    S    
C30   C74   S    
C95   C99   S    
C83   O7    A    
C94   C98   S    
C85   O41   A    
Cr8   O28   S    
Cr12  O20   S    
Cr2   O46   S    
C92   C96   S    
C47   C99   S    
Cr8   O32   S    
C3    C18   S    
C78   O46   A    
Cr1   O1    S    
C9    C13   A    
Cr9   O17   S    
C47   O31   A    
Cr5   O25   S    
C3    O23   A    
C11   C15   A    
C49   H5    S    
C12   C16   A    
C95   H3    S    
Cr6   O6    S    
C8    H20   S    
C15   I7    S    
C66   H10   S    
Cr1   O21   S    
C86   O14   A    
C23   C27   A    
C91   C100  S    
C63   Cl3   S    
Cr12  O12   S    
C90   C97   S    
C7    H19   S    
Cr10  O10   S    
C9    C29   A    
Cr6   O50   S    
Cr7   O31   S    
C5    H17   S    
C62   Cl2   S    
Cr8   O20   S    
C11   C31   A    
Cr2   O18   S    
C49   C69   A    
C12   C32   A    
Cr3   O23   S    
C41   H33   S    
C40   C83   S    
C8    C95   S    
Cr3   O47   S    
C48   C100  S    
C92   H16   S    
C59   C78   S    
C73   O37   A    
C72   C88   S    
Cr1   O45   S    
C90   C94   S    
Cr7   O19   S    
Cr10  O14   S    
Cr12  O16   S    
C63   C67   A    
C60   C77   S    
C86   O42   A    
C81   O9    A    
C14   I6    S    
C45   O33   A    
C94   H2    S    
C13   I5    S    
C16   I8    S    
C79   O51   A    
C9    H21   S    
C47   O35   A    
C10   C14   A    
C75   O3    A    
C91   C92   S    
C48   O36   A    
C62   C66   A    
C19   C23   A    
C24   Cl8   S    
C89   H13   S    
C51   C55   A    
Cr9   O37   S    
C88   O16   A    
C27   C31   A    
C89   C93   S    
C17   C21   A    
C25   H25   S    
C56   C60   A    
C68   C72   A    
Cr5   O49   S    
Cr8   O52   S    
C15   C19   A    
C43   C44   A    
Cr12  O40   S    
C52   C72   A    
C11   H23   S    
Cr4   O48   S    
C10   C30   A    
C93   C97   S    
C31   C75   S    
Cr8   O8    S    
C28   C32   A    
C16   C20   A    
C6    C93   S    
C55   I3    S    
Cr11  O35   S    
C33   C34   A    
C90   H14   S    
C83   O11   A    
C82   O10   A    
C93   H1    S    
Cr1   O17   S    
Cr10  O38   S    
C7    C99   S    
C58   C79   S    
Cr2   O2    S    
C70   C86   S    
C71   C87   S    
C4    C17   S    
C52   H8    S    
C3    O27   A    
C57   C80   S    
C26   C30   A    
C79   O47   A    
C65   H9    S    
C22   Cl6   S    
C38   C81   S    
C22   C26   A    
C21   Cl5   S    
C37   C82   S    
C36   H32   S    
Cr3   O43   S    
C42   H34   S    
C6    C98   S    
C48   O32   A    
C69   C85   S    
C87   O43   A    
C12   H24   S    
C54   C58   A    
Cr9   O33   S    
C2    C19   S    
C88   O44   A    
C21   C25   A    
C34   H30   S    
C1    C20   S    
C53   C57   A    
C4    O24   A    
C80   O52   A    
C73   O1    A    
C77   O45   A    
C50   H6    S    
C59   C63   A    
C53   I1    S    
C36   C39   A    
C75   O39   A    
C24   C28   A    
Cr5   O29   S    
C26   H26   S    
C67   H11   S    
C32   C76   S    
C39   C43   A    
Cr4   O20   S    
C51   C71   A    
C57   C61   A    
C56   I4    S    
Cr3   O3    S    
C66   C70   A    
Cr11  O39   S    
C33   C38   A    
Cr4   O24   S    
C89   C98   S    
C60   C64   A    
C80   O48   A    
C33   H29   S    
Cr4   O4    S    
C18   C22   A    
C35   C40   A    
C8    C100  S    
C74   O2    A    
C2    O22   A    
Cr11  O15   S    
C45   C97   S    
C2    O26   A    
Cr7   O51   S    
C45   O29   A    
C84   O8    A    
C25   C29   A    
C50   C70   A    
Cr7   O27   S    
Cr6   O18   S    
C65   C69   A    
C96   C100  S    
C1    O21   A    
Cr2   O42   S    
Cr5   O17   S    
C5    C97   S    
C67   C71   A    
C46   C98   S    
C20   C24   A    
C27   H27   S    
C43   H35   S    
Cr11  O19   S    
C91   C95   S    
C13   C17   A    
C82   O6    A    
C61   C65   A    
C40   C44   A    
C10   H22   S    
C29   C73   S    
Cr10  O34   S    
C4    O28   A    
C61   Cl1   S    
C76   O4    A    
C96   H4    S    
Cr9   O13   S    
C78   O50   A    
C44   H36   S    
C89   C90   S    
C77   O49   A    
Cr6   O30   S    
Cr7   O7    S    
C52   C56   A    
C92   C99   S    
C54   I2    S    
C74   O38   A    
Cr11  O11   S    
Cr4   O44   S    
