data_mof_unit_8545.cif
_audit_creation_date              2013-03-05T15:54:49-0500
_audit_creation_method            fapswitch 2.2
_symmetry_space_group_name_H-M    P1
_symmetry_Int_Tables_number       1
_space_group_crystal_system       triclinic
_cell_length_a                    19.273551
_cell_length_b                    10.633905
_cell_length_c                    9.956468
_cell_angle_alpha                 89.940506
_cell_angle_beta                  90.300951
_cell_angle_gamma                 93.619557
_cell_volume                      2036.50995037

loop_
_atom_site_label
_atom_site_type_symbol
_atom_site_description
_atom_site_fract_x
_atom_site_fract_y
_atom_site_fract_z
_atom_type_partial_charge
O1    O     O_R   0.500000 0.316780 0.614690 -0.646450
O2    O     O_R   0.499990 0.316750 0.385360 -0.566402
C1    C     C_R   0.500596 0.260960 0.500488 0.882864
O3    O     O_R   0.398140 0.500000 0.614700 -0.633146
O4    O     O_R   0.398130 0.499970 0.385370 -0.476704
C2    C     C_R   0.365508 0.503132 0.500068 1.004779
Zn1   Zn    Zn3+2 0.500000 0.500020 0.653130 1.026157
Zn2   Zn    Zn3+2 0.500000 0.499980 0.346870 1.058954
O5    O     O_R   0.500010 0.683250 0.614640 -0.601397
O6    O     O_R   0.500000 0.683220 0.385310 -0.601209
O7    O     O_R   0.601870 0.500030 0.614630 -0.575307
O8    O     O_R   0.601860 0.500000 0.385300 -0.604865
C3    C     C_R   0.499200 0.739121 0.499485 0.920103
C4    C     C_R   0.634344 0.498187 0.500237 0.857594
C5    C     C_R   0.255044 0.548513 0.619931 0.177344
C6    C     C_R   0.182333 0.550081 0.621234 0.258547
C7    C     C_R   0.144525 0.518611 0.503817 -0.124880
C8    C     C_R   0.178311 0.487444 0.386435 -0.268331
H1    H     H_    0.148165 0.466315 0.296057 0.191024
C9    C     C_R   0.250428 0.485878 0.382601 0.482218
C10   C     C_R   0.289503 0.513131 0.500823 -0.224025
N1    N     N_R   0.031353 0.427940 0.435448 -0.125614
N2    N     N_R   0.962846 0.431072 0.427270 -0.119637
C11   C     C_R   0.930543 0.529089 0.479788 0.314170
N3    N     N_R   0.968711 0.623035 0.542868 -0.096393
N4    N     N_R   0.037325 0.619792 0.551329 -0.082480
C12   C     C_R   0.069485 0.521752 0.498360 0.388894
C13   C     C_R   0.822119 0.564565 0.594843 -0.153715
H2    H     H_    0.852381 0.602517 0.679292 0.216666
C14   C     C_R   0.750403 0.549561 0.606614 0.317134
C15   C     C_R   0.710380 0.495993 0.499174 -0.378124
C16   C     C_R   0.744383 0.452679 0.383174 0.412225
C17   C     C_R   0.815875 0.475255 0.369670 0.496475
C18   C     C_R   0.855126 0.527406 0.478338 -0.181871
H3    H     H_    0.391594 0.107464 0.490598 0.200990
C19   C     C_R   0.630978 0.143571 0.518260 -0.225360
H4    H     H_    0.633061 0.244525 0.529805 0.133748
C20   C     C_R   0.693618 0.085353 0.513313 -0.170663
H5    H     H_    0.741888 0.143102 0.518276 0.191780
C21   C     C_R   0.693906 0.954636 0.497783 0.394631
C22   C     C_R   0.630276 0.882614 0.494282 -0.214221
H6    H     H_    0.631218 0.781336 0.485395 0.158175
C23   C     C_R   0.566309 0.941049 0.500231 -0.006705
C24   C     C_R   0.566955 0.072427 0.507393 0.106242
C25   C     C_R   0.503082 0.129019 0.502402 -0.126037
C26   C     C_R   0.439718 0.060004 0.495881 -0.234715
C27   C     C_R   0.437937 0.930598 0.492573 0.309153
C28   C     C_R   0.501294 0.872011 0.496954 -0.185576
H7    H     H_    0.578136 0.645794 0.125480 0.164571
C29   C     C_R   0.404558 0.322212 0.128611 0.488739
C30   C     C_R   0.361056 0.241543 0.048289 -0.330609
H8    H     H_    0.324216 0.174064 0.094945 0.207567
C31   C     C_R   0.362737 0.247206 0.910354 0.273060
C32   C     C_R   0.409495 0.333825 0.851076 -0.187899
H9    H     H_    0.408685 0.333799 0.745496 0.236198
C33   C     C_R   0.454899 0.416534 0.925017 0.061173
C34   C     C_R   0.453924 0.414319 0.069543 0.125891
N5    N     N_R   0.499340 0.498800 0.142780 -0.105413
C35   C     C_R   0.542922 0.580127 0.071861 -0.046706
H10   H     H_    0.577878 0.646131 0.876282 0.180367
C36   C     C_R   0.542816 0.580147 0.929234 0.013069
N6    N     N_R   0.499320 0.498720 0.857170 -0.107528
N7    N     N_R   0.293063 0.583119 0.740098 0.254101
O9    O     O_R   0.333240 0.686112 0.743109 -0.285598
O10   O     O_R   0.281382 0.520027 0.850592 -0.335453
N8    N     N_R   0.758422 0.895449 0.482911 0.229878
O11   O     O_R   0.817028 0.954693 0.516898 -0.322740
O12   O     O_R   0.759576 0.786119 0.424806 -0.398915
N9    N     N_R   0.371928 0.860465 0.480678 0.205837
O13   O     O_R   0.362678 0.774024 0.388918 -0.378205
O14   O     O_R   0.317832 0.899337 0.542123 -0.278334
O15   O     O_3   0.396289 0.309610 0.263733 -0.690955
H11   H     H_    0.361014 0.241202 0.287237 0.329617
N10   N     N_R   0.316465 0.165697 0.830080 0.251276
O16   O     O_R   0.311048 0.182986 0.701098 -0.383702
O17   O     O_R   0.278249 0.074864 0.885600 -0.279366
N11   N     N_R   0.147197 0.582057 0.742312 0.241167
O18   O     O_R   0.098249 0.505731 0.791229 -0.328494
O19   O     O_R   0.165083 0.686151 0.805679 -0.248315
O20   O     O_3   0.283183 0.458154 0.264148 -0.692926
H12   H     H_    0.248154 0.441219 0.192017 0.361720
N12   N     N_R   0.719504 0.590057 0.728331 0.220763
O21   O     O_R   0.728193 0.707603 0.764445 -0.355359
O22   O     O_R   0.697967 0.506253 0.816552 -0.346706
O23   O     O_3   0.709502 0.389733 0.279357 -0.651672
H13   H     H_    0.671257 0.334998 0.318117 0.331554
O24   O     O_3   0.845433 0.443283 0.249304 -0.649583
H14   H     H_    0.888539 0.497440 0.235778 0.351888

loop_
_geom_bond_atom_site_label_1
_geom_bond_atom_site_label_2
_geom_bond_distance
_ccdc_geom_bond_type
N8    O12   1.300625 A    
O24   H14   0.990260 S    
N7    O10   1.301192 A    
C22   H6    1.082010 S    
C31   N10   1.442825 S    
C4    C15   1.467222 S    
C31   C32   1.381515 A    
Zn1   O7    2.002432 S    
N4    C12   1.354775 A    
N10   O17   1.301700 A    
C13   H2    1.084376 S    
C8    H1    1.084532 S    
O4    C2    1.307999 A    
O7    C4    1.303238 A    
C5    C6    1.402662 A    
C33   C34   1.439340 A    
C6    N11   1.437353 S    
N9    O14   1.301467 A    
C29   O15   1.361054 S    
C27   N9    1.437932 S    
O5    C3    1.291256 A    
Zn2   N5    2.032035 S    
C26   C27   1.374774 A    
C27   C28   1.405905 A    
C6    C7    1.403847 A    
N2    C11   1.354232 A    
C23   C28   1.411983 A    
N11   O18   1.301268 A    
N8    O11   1.301485 A    
C13   C18   1.395296 A    
C21   N8    1.437069 S    
C22   C23   1.416748 A    
N9    O13   1.300283 A    
O3    Zn1   1.998159 S    
C29   C30   1.407816 A    
N11   O19   1.301211 A    
C20   H5    1.082829 S    
C32   C33   1.406669 A    
C35   C36   1.420050 A    
N10   O16   1.301699 A    
C9    O20   1.381463 S    
C30   H8    1.083189 S    
C7    C12   1.449494 S    
C11   N3    1.355459 A    
O3    C2    1.301658 A    
O15   H11   0.992490 S    
N3    N4    1.327293 A    
O23   H13   0.989652 S    
C2    C10   1.475488 S    
C1    C25   1.406995 S    
C11   C18   1.452537 S    
H10   C36   1.081695 S    
C30   C31   1.375061 A    
C14   N12   1.431705 S    
C23   C24   1.398221 A    
Zn1   N6    2.031655 S    
C3    C28   1.411374 S    
C15   C16   1.422230 A    
Zn2   O8    1.998156 S    
C7    C8    1.391337 A    
C21   C22   1.404564 A    
O8    C4    1.302259 A    
N12   O22   1.301345 A    
N1    C12   1.353357 A    
C33   N6    1.365093 A    
C19   C24   1.409822 A    
C24   C25   1.404625 A    
Zn1   O5    1.985378 S    
C32   H9    1.051233 S    
C19   H4    1.077995 S    
O1    Zn1   1.986178 S    
C29   C34   1.448282 A    
O2    Zn2   1.985376 S    
O20   H12   0.991873 S    
O6    C3    1.283986 A    
O4    Zn2   2.002436 S    
H7    C35   1.081839 S    
C16   C17   1.390846 A    
C19   C20   1.392236 A    
O2    C1    1.290484 A    
C17   O24   1.381602 S    
C20   C21   1.399119 A    
C34   N5    1.414327 A    
C14   C15   1.414545 A    
C16   O23   1.380487 S    
C13   C14   1.386921 A    
C17   C18   1.410712 A    
C8    C9    1.391823 A    
C36   N6    1.367730 A    
N5    C35   1.365769 A    
N7    O9    1.301066 A    
C25   C26   1.385772 A    
C5    C10   1.424694 A    
C9    C10   1.414396 A    
Zn2   O6    1.986178 S    
N12   O21   1.301396 A    
C5    N7    1.435789 S    
N1    N2    1.324968 A    
O1    C1    1.283649 A    
H3    C26   1.084569 S    
