data_mof_unit_53016.cif
_audit_creation_date              2012-10-26T18:47:58-0400
_audit_creation_method            fapswitch 2.2
_symmetry_space_group_name_H-M    P1
_symmetry_Int_Tables_number       1
_space_group_crystal_system       triclinic
_cell_length_a                    15.856242
_cell_length_b                    8.686831
_cell_length_c                    7.475719
_cell_angle_alpha                 103.19307
_cell_angle_beta                  94.362323
_cell_angle_gamma                 92.585021
_cell_volume                      997.55596873

loop_
_atom_site_label
_atom_site_type_symbol
_atom_type_description
_atom_site_fract_x
_atom_site_fract_y
_atom_site_fract_z
_atom_type_partial_charge
C1    C     C_R   0.497395 0.199710 0.453115 0.544789
C2    C     C_2   0.503931 0.968421 0.573007 -0.143955
C3    C     C_R   0.340400 0.499826 0.502109 0.551281
C4    C     C_R   0.502599 0.800291 0.546897 0.551501
C5    C     C_R   0.659599 0.500478 0.497948 0.543743
C6    C     C_3   0.053375 0.488370 0.696846 0.456979
C7    C     C_3   0.041246 0.365952 0.354204 -0.287198
C8    C     C_3   0.943713 0.359481 0.358710 -0.272259
C9    C     C_1   0.749074 0.501953 0.494059 -0.008495
C10   C     C_3   0.083342 0.506590 0.507262 0.098377
C11   C     C_3   0.955097 0.495414 0.692237 -0.193718
C12   C     C_3   0.917145 0.507577 0.497944 0.043997
C13   C     C_3   0.953987 0.663934 0.449881 0.234979
C14   C     C_3   0.053577 0.662029 0.458975 0.223228
C15   C     C_1   0.824668 0.504119 0.494142 0.004952
C16   C     C_1   0.175565 0.503618 0.508117 0.074296
C17   C     C_1   0.251011 0.501620 0.506669 0.034869
C18   C     C_2   0.496011 0.031584 0.427041 -0.142283
Cu1   Cu    Cu3+1 0.509300 0.517380 0.684380 0.986455
Cu2   Cu    Cu3+1 0.490700 0.482620 0.315620 1.019122
F1    F     F_    0.074125 0.340479 0.722121 -0.627531
F2    F     F_    0.093244 0.794526 0.581395 -0.641251
H1    H     H_    0.927431 0.386049 0.725115 0.153259
H2    H     H_    0.075384 0.667091 0.322251 0.117955
H3    H     H_    0.070200 0.717601 0.861780 0.245129
H4    H     H_    0.085806 0.574434 0.974208 0.221961
H5    H     H_    0.939086 0.779247 0.236322 0.228332
H6    H     H_    0.945074 0.584794 0.162761 0.191661
H7    H     H_    0.642293 0.620111 0.031431 0.233036
H8    H     H_    0.572322 0.761095 0.056012 0.219457
H9    H     H_    0.956580 0.815175 0.712400 0.247809
H10   H     H_    0.946560 0.906969 0.539788 0.272985
H11   H     H_    0.936048 0.593638 0.801829 0.076724
H12   H     H_    0.488382 0.959495 0.286638 0.135549
H13   H     H_    0.511451 0.040540 0.713447 0.133740
H14   H     H_    0.433499 0.378146 0.949066 0.222415
H15   H     H_    0.057731 0.379219 0.216128 0.119756
H16   H     H_    0.065301 0.251642 0.372609 0.202237
H17   H     H_    0.922617 0.249885 0.400693 0.146578
H18   H     H_    0.912334 0.349008 0.218009 0.141392
N1    N     N_2   0.476670 0.456430 0.038530 -0.188061
N2    N     N_2   0.523330 0.543570 0.961470 -0.080072
N3    N     N_3   0.096496 0.608328 0.851867 -0.524118
N4    N     N_3   0.919705 0.670411 0.262603 -0.609777
N5    N     N_3   0.583108 0.648644 0.077302 -0.423179
N6    N     N_3   0.927191 0.804172 0.580098 -0.564967
O1    O     O_R   0.506050 0.286130 0.619770 -0.515247
O2    O     O_R   0.490330 0.256780 0.308370 -0.502780
O3    O     O_R   0.387300 0.514690 0.655770 -0.495857
O4    O     O_R   0.371580 0.485340 0.344370 -0.496015
O5    O     O_R   0.509670 0.743220 0.691630 -0.507863
O6    O     O_R   0.493950 0.713870 0.380230 -0.472341
O7    O     O_R   0.628420 0.514660 0.655630 -0.511147
O8    O     O_R   0.612700 0.485310 0.344230 -0.470425

loop_
_geom_bond_atom_site_label_1
_geom_bond_atom_site_label_2
_ccdc_geom_bond_type
C2    H13   S    
C6    C10   S    
C7    C10   S    
C2    C4    S    
C11   C12   S    
Cu1   N2    S    
C1    O2    A    
C5    C9    S    
C8    H17   S    
C2    C18   D    
N1    N2    D    
Cu1   O3    S    
H8    N5    S    
Cu1   Cu2   S    
C12   C15   S    
C8    C12   S    
Cu1   O7    S    
Cu2   N1    S    
C3    O3    A    
C7    C8    S    
Cu2   O6    S    
C10   C16   S    
C13   C14   S    
C18   H12   S    
H3    N3    S    
H14   N1    S    
Cu2   O2    S    
C4    O6    A    
Cu2   O4    S    
C11   H1    S    
C7    H16   S    
H6    N4    S    
H4    N3    S    
C3    C17   S    
C6    N3    S    
C7    H15   S    
C14   F2    S    
Cu1   O1    S    
C4    O5    A    
Cu1   O5    S    
C5    O8    A    
C11   H11   S    
C12   C13   S    
H9    N6    S    
Cu2   O8    S    
C10   C14   S    
C14   H2    S    
C6    C11   S    
C1    C18   S    
C13   N6    S    
C1    O1    A    
C5    O7    A    
C8    H18   S    
C9    C15   T    
C6    F1    S    
H10   N6    S    
H5    N4    S    
C3    O4    A    
C13   N4    S    
H7    N5    S    
C16   C17   T    
N2    N5    S    
