data_mof_unit_58620.cif
_audit_creation_date              2013-03-05T16:44:41-0500
_audit_creation_method            fapswitch 2.2
_symmetry_space_group_name_H-M    P1
_symmetry_Int_Tables_number       1
_space_group_crystal_system       triclinic
_cell_length_a                    27.711802
_cell_length_b                    10.74629
_cell_length_c                    9.847918
_cell_angle_alpha                 89.23158
_cell_angle_beta                  89.89396
_cell_angle_gamma                 88.736136
_cell_volume                      2931.72003379

loop_
_atom_site_label
_atom_site_type_symbol
_atom_site_description
_atom_site_fract_x
_atom_site_fract_y
_atom_site_fract_z
_atom_type_partial_charge
O1    O     O_R   0.500010 0.316790 0.614690 -0.630694
O2    O     O_R   0.500000 0.316760 0.385350 -0.582629
C1    C     C_R   0.504185 0.260679 0.500968 0.958761
O3    O     O_R   0.428760 0.500040 0.614660 -0.637369
O4    O     O_R   0.428750 0.500000 0.385310 -0.612911
C2    C     C_R   0.406052 0.498024 0.499962 0.924560
Zn1   Zn    Zn3+2 0.500000 0.500020 0.653130 1.005673
Zn2   Zn    Zn3+2 0.500000 0.499980 0.346870 1.080548
O5    O     O_R   0.500000 0.683240 0.614650 -0.599264
O6    O     O_R   0.499990 0.683210 0.385310 -0.530470
O7    O     O_R   0.571250 0.500000 0.614690 -0.615372
O8    O     O_R   0.571240 0.499960 0.385340 -0.602267
C3    C     C_R   0.502019 0.740164 0.497970 0.957685
C4    C     C_R   0.593975 0.501377 0.499799 0.922463
C5    C     C_R   0.178107 0.377298 0.515902 0.592040
O9    O     O_2   0.203497 0.272234 0.547374 -0.512447
N1    N     N_R   0.201654 0.485035 0.488405 -0.343213
C6    C     C_R   0.177363 0.594626 0.462012 0.580448
C7    C     C_R   0.276221 0.531198 0.604307 -0.138308
C8    C     C_R   0.326180 0.535467 0.607966 -0.178911
C9    C     C_R   0.330295 0.441898 0.385619 -0.219732
C10   C     C_R   0.280101 0.439646 0.379416 0.505093
C11   C     C_R   0.253061 0.484187 0.490544 0.148871
C12   C     C_R   0.101767 0.487661 0.484405 -0.053926
C13   C     C_R   0.127697 0.375918 0.511566 -0.029568
C14   C     C_R   0.102880 0.265993 0.534928 -0.108818
C15   C     C_R   0.126916 0.598327 0.460810 -0.028924
C16   C     C_R   0.353491 0.491494 0.498464 -0.104202
H1    H     H_    0.351323 0.404639 0.302600 0.195375
H2    H     H_    0.122006 0.179440 0.558760 0.197720
C17   C     C_R   0.646644 0.502396 0.498459 -0.042248
C18   C     C_R   0.975158 0.375977 0.481930 -0.011539
C19   C     C_R   0.973998 0.604947 0.472756 0.036847
C20   C     C_R   0.949211 0.490578 0.477278 0.084636
C21   C     C_R   0.949718 0.265087 0.467377 -0.304766
C22   C     C_R   0.899493 0.264096 0.459437 0.433158
C23   C     C_R   0.872817 0.377543 0.475174 -0.159126
C24   C     C_R   0.898108 0.490998 0.478542 -0.092781
C25   C     C_R   0.872336 0.605632 0.483704 -0.035582
C26   C     C_R   0.822097 0.606207 0.488320 0.525887
N2    N     N_R   0.798399 0.496748 0.491067 -0.370878
C27   C     C_R   0.822029 0.384060 0.487982 0.563662
C28   C     C_R   0.722726 0.504126 0.618435 -0.075315
C29   C     C_R   0.672551 0.505266 0.620798 -0.182279
C30   C     C_R   0.671496 0.499564 0.374033 -0.135381
C31   C     C_R   0.721554 0.498222 0.372125 -0.078383
C32   C     C_R   0.747064 0.500118 0.494118 0.288965
O10   O     O_2   0.796059 0.280205 0.501544 -0.426167
C33   C     C_R   0.025963 0.375506 0.496315 0.073845
C34   C     C_R   0.050742 0.488841 0.481433 0.084579
C35   C     C_R   0.024987 0.603317 0.463695 0.047448
C36   C     C_R   0.052899 0.265474 0.527142 -0.206630
H3    H     H_    0.654152 0.507853 0.717890 0.182755
H4    H     H_    0.742737 0.505639 0.712731 0.152263
H5    H     H_    0.968783 0.177599 0.455135 0.186858
H6    H     H_    0.036155 0.178034 0.550379 0.152833
O11   O     O_2   0.202090 0.699295 0.436676 -0.522159
C37   C     C_R   0.101329 0.709551 0.435370 -0.112291
H7    H     H_    0.255273 0.566086 0.689177 0.181586
H8    H     H_    0.119914 0.795396 0.414493 0.197909
C38   C     C_R   0.946910 0.717376 0.479620 -0.186896
C39   C     C_R   0.897019 0.717424 0.485164 -0.055908
O12   O     O_2   0.796884 0.715159 0.490770 -0.494423
C40   C     C_R   0.051255 0.712341 0.437135 -0.206217
H9    H     H_    0.963332 0.807089 0.485734 0.181617
H10   H     H_    0.652363 0.497558 0.278296 0.176026
H11   H     H_    0.877795 0.806008 0.491442 0.254023
H12   H     H_    0.740638 0.495234 0.276107 0.150893
H13   H     H_    0.034090 0.800948 0.413423 0.152897
C41   C     C_R   0.493232 0.063297 0.613374 -0.024551
C42   C     C_R   0.511251 0.128967 0.503071 -0.230297
C43   C     C_R   0.531894 0.066678 0.391289 0.371781
C44   C     C_R   0.522439 0.939934 0.375417 0.249711
C45   C     C_R   0.506228 0.872785 0.492826 -0.205207
C46   C     C_R   0.494558 0.936190 0.611268 -0.057966
C47   C     C_3   0.514979 0.924668 0.752412 0.355931
C48   C     C_3   0.511849 0.065547 0.756075 -0.410462
H14   H     H_    0.490161 0.878942 0.825518 0.134520
H15   H     H_    0.483973 0.101063 0.827989 0.195173
H16   H     H_    0.547068 0.112738 0.763571 0.239571
C49   C     C_R   0.464364 0.561198 0.070199 0.232114
N3    N     N_R   0.499670 0.499140 0.142800 -0.136243
C50   C     C_R   0.539289 0.457492 0.072461 -0.001014
H17   H     H_    0.570920 0.424601 0.127120 0.177867
C51   C     C_R   0.538969 0.455223 0.928356 -0.067646
H18   H     H_    0.569859 0.417184 0.874562 0.147490
N4    N     N_R   0.499670 0.499180 0.857150 -0.106587
C52   C     C_R   0.464118 0.558630 0.927840 0.162352
C53   C     C_3   0.411723 0.533582 0.921681 -0.556060
C54   C     C_3   0.411075 0.541589 0.075791 0.246539
H19   H     H_    0.391904 0.610260 0.868285 0.242363
H20   H     H_    0.404298 0.438807 0.884024 0.199139
H21   H     H_    0.401372 0.453085 0.126979 0.105664
S1    S     S_3+6 0.579044 0.137675 0.297077 0.091402
O13   O     O_2   0.601290 0.239390 0.377301 -0.316616
O14   O     O_2   0.617775 0.042127 0.265425 -0.229360
O15   O     O_3   0.556396 0.197611 0.151719 -0.550034
H22   H     H_    0.583827 0.197158 0.087022 0.379712
S2    S     S_3+6 0.528933 0.871136 0.210688 0.116704
O16   O     O_2   0.481418 0.818146 0.171319 -0.225143
O17   O     O_2   0.542129 0.962212 0.101028 -0.199797
O18   O     O_3   0.571094 0.756034 0.215475 -0.506250
H23   H     H_    0.598135 0.789634 0.268287 0.364646
S3    S     S_3+6 0.252281 0.383435 0.231441 0.064481
O19   O     O_2   0.232543 0.256790 0.260923 -0.248347
O20   O     O_2   0.211676 0.470372 0.188938 -0.284550
O21   O     O_3   0.292709 0.372522 0.104263 -0.536821
H24   H     H_    0.274097 0.343600 0.025323 0.394260
S4    S     S_3+6 0.576411 0.866032 0.760734 0.069098
O22   O     O_2   0.603074 0.931153 0.870840 -0.197006
O23   O     O_2   0.576351 0.729004 0.793085 -0.291019
O24   O     O_3   0.604946 0.890325 0.612058 -0.557095
H25   H     H_    0.632900 0.831273 0.613087 0.389071
S5    S     S_3+6 0.377330 0.676697 0.131838 0.078609
O25   O     O_2   0.391043 0.709194 0.274254 -0.271514
O26   O     O_2   0.386860 0.786311 0.039874 -0.257024
O27   O     O_3   0.318202 0.645452 0.126932 -0.492390
H26   H     H_    0.302021 0.714755 0.175763 0.401112
S6    S     S_3+6 0.873444 0.119186 0.419111 0.074968
O28   O     O_2   0.850096 0.065343 0.543918 -0.192086
O29   O     O_2   0.836055 0.137191 0.309697 -0.219954
O30   O     O_3   0.915793 0.017036 0.364222 -0.600022
H27   H     H_    0.924963 0.047814 0.272692 0.362326
H28   H     H_    0.343235 0.575355 0.694856 0.174530

loop_
_geom_bond_atom_site_label_1
_geom_bond_atom_site_label_2
_geom_bond_distance
_ccdc_geom_bond_type
N4    C52   1.358332 A    
N2    C27   1.364592 A    
C1    C42   1.424491 S    
C21   C22   1.394444 A    
C12   C15   1.408022 A    
C4    C17   1.459861 S    
C28   C29   1.390358 A    
S3    O20   1.503018 D    
S5    O25   1.501448 D    
C51   H18   1.081307 S    
Zn1   O7    2.009735 S    
N1    C11   1.424593 S    
C26   O12   1.350628 S    
C39   H11   1.083012 S    
Zn2   N3    2.009845 S    
C22   C23   1.421847 A    
C47   H14   1.111917 S    
S4    O23   1.502464 D    
O4    C2    1.291603 A    
O7    C4    1.293940 A    
C48   H16   1.112759 S    
C37   H8    1.083521 S    
C5    O9    1.349913 S    
O15   H22   0.990924 S    
C10   S3    1.769501 S    
N1    C6    1.365686 A    
C44   C45   1.431578 A    
C23   C27   1.413129 A    
C22   S6    1.780736 S    
O5    C3    1.296177 A    
S3    O19   1.502440 D    
C6    O11   1.350119 S    
C29   H3    1.083175 S    
Zn1   N4    2.009076 S    
C50   H17   1.079817 S    
C47   S4    1.803818 S    
O21   H24   0.990961 S    
C41   C42   1.385746 A    
C53   H19   1.107529 S    
C38   C39   1.383529 A    
C43   S1    1.780638 S    
C51   N4    1.368250 A    
O1    Zn1   2.010076 S    
C9    C10   1.393169 A    
C41   C48   1.498598 S    
C37   C40   1.387396 A    
O18   H23   0.990378 S    
O3    Zn1   2.010894 S    
O24   H25   0.990489 S    
C34   C35   1.417486 A    
C48   H15   1.111835 S    
C12   C34   1.414128 A    
C2    C16   1.459903 S    
C17   C29   1.404662 A    
C6    C15   1.397753 A    
C21   H5    1.076331 S    
C49   C52   1.402608 A    
C18   C21   1.406990 A    
C12   C13   1.408510 A    
O3    C2    1.294689 A    
C45   C46   1.392679 A    
S4    O24   1.682777 S    
C25   C26   1.392773 A    
C8    C16   1.397794 A    
S1    O15   1.678882 S    
C7    H7    1.083106 S    
C13   C14   1.396181 A    
C30   C31   1.387027 A    
C9    H1    1.079364 S    
O6    C3    1.276187 A    
C49   N3    1.369013 A    
O1    C1    1.282874 A    
C18   C20   1.412565 A    
C7    C11   1.398008 A    
C46   C47   1.504256 S    
C31   H12   1.083080 S    
C23   C24   1.420447 A    
C14   C36   1.387467 A    
C28   H4    1.082969 S    
S2    O16   1.499725 D    
Zn2   O8    2.010894 S    
C33   C36   1.414128 A    
C19   C20   1.421269 A    
N2    C32   1.422522 S    
C27   O10   1.346256 S    
C40   H13   1.077925 S    
C47   C48   1.515412 S    
C53   H20   1.112115 S    
S1    O14   1.504039 D    
S6    O29   1.503897 D    
C49   C54   1.497096 S    
Zn2   O6    2.010075 S    
C26   N2    1.359702 A    
S2    O17   1.497957 D    
C9    C16   1.402094 A    
O8    C4    1.292764 A    
C14   H2    1.083499 S    
C41   C46   1.366047 A    
C54   H21   1.108567 S    
S6    O30   1.682614 S    
Zn1   O5    2.000073 S    
C25   C39   1.395718 A    
C31   C32   1.395679 A    
C50   C51   1.419721 A    
C20   C24   1.416107 A    
O2    Zn2   2.000074 S    
C35   C40   1.414100 A    
C43   C44   1.403497 A    
C15   C37   1.396196 A    
O4    Zn2   2.009738 S    
S5    O26   1.503898 D    
S6    O28   1.502862 D    
C5    N1    1.365224 A    
C19   C35   1.415368 A    
C7    C8    1.386790 A    
O2    C1    1.285320 A    
C53   C54   1.521303 S    
C42   C43   1.409843 A    
O27   H26   0.990478 S    
C24   C25   1.411704 A    
C36   H6    1.078745 S    
C54   S5    1.801908 S    
S1    O13   1.501207 D    
C18   C33   1.415162 A    
C8    H28   1.076832 S    
S5    O27   1.680755 S    
C5    C13   1.398084 A    
C38   H9    1.077606 S    
S2    O18   1.682900 S    
C52   C53   1.484021 S    
C19   C38   1.410605 A    
C33   C34   1.417065 A    
C17   C30   1.404859 A    
C30   H10   1.083225 S    
C10   C11   1.408350 A    
N3    C50   1.367248 A    
O30   H27   0.990623 S    
S4    O22   1.502517 D    
C28   C32   1.397371 A    
S3    O21   1.682399 S    
C44   S2    1.798847 S    
C3    C45   1.432715 S    
