data_mof_unit_19395.cif
_audit_creation_date              2012-12-10T19:01:22-0500
_audit_creation_method            fapswitch 2.2
_symmetry_space_group_name_H-M    P1
_symmetry_Int_Tables_number       1
_space_group_crystal_system       triclinic
_cell_length_a                    9.548524
_cell_length_b                    10.834382
_cell_length_c                    15.472842
_cell_angle_alpha                 90.486946
_cell_angle_beta                  74.268232
_cell_angle_gamma                 90.884859
_cell_volume                      1540.54297757

loop_
_atom_site_label
_atom_site_type_symbol
_atom_type_description
_atom_site_fract_x
_atom_site_fract_y
_atom_site_fract_z
_atom_type_partial_charge
C1    C     C_R   0.998433 0.262406 0.500997 0.806337
C2    C     C_R   0.669921 0.457251 0.904698 0.036231
C3    C     C_R   0.766583 0.407431 0.950184 0.066296
C4    C     C_R   0.519573 0.468682 0.949928 0.096595
C5    C     C_R   0.471587 0.448713 0.044158 0.074675
C6    C     C_R   0.572040 0.403090 0.088135 -0.246382
C7    C     C_R   0.715568 0.380669 0.041569 -0.227409
C8    C     C_R   0.414974 0.494830 0.903261 -0.249691
C9    C     C_R   0.269485 0.509014 0.948375 -0.199477
C10   C     C_R   0.223090 0.500798 0.041402 0.181235
C11   C     C_R   0.323768 0.472359 0.090650 0.074301
C12   C     C_R   0.918051 0.496253 0.672054 0.825921
C13   C     C_R   0.076407 0.521007 0.085754 -0.145297
C14   C     C_R   0.028674 0.516669 0.178939 -0.214827
C15   C     C_R   0.273552 0.472400 0.184895 -0.259224
C16   C     C_R   0.100441 0.067690 0.535081 0.062365
C17   C     C_R   0.990897 0.129723 0.510644 -0.095626
C18   C     C_R   0.868831 0.062030 0.502473 -0.205572
C19   C     C_R   0.870137 0.933490 0.504612 -0.180821
C20   C     C_R   0.992223 0.871328 0.516930 -0.155867
C21   C     C_R   0.098812 0.941332 0.543928 0.042186
C22   C     C_3   0.263353 0.940052 0.517771 0.276058
C23   C     C_R   0.998900 0.737839 0.504653 0.793344
C24   C     C_3   0.260995 0.077918 0.500621 -0.437742
C25   C     C_R   0.607868 0.525057 0.423317 0.259652
C26   C     C_R   0.541376 0.461368 0.572827 -0.084583
C27   C     C_R   0.392766 0.461196 0.572746 -0.115978
C28   C     C_R   0.460779 0.523384 0.422940 0.259185
C29   C     C_3   0.480209 0.636846 0.367188 -0.511576
C30   C     C_3   0.637902 0.640894 0.369764 -0.504022
C31   C     C_R   0.082015 0.498715 0.327749 0.806030
C32   C     C_R   0.871910 0.474856 0.769198 -0.098271
C33   C     C_R   0.127645 0.495387 0.229117 -0.053675
C34   C     C_R   0.912376 0.383371 0.903057 0.430564
C35   C     C_R   0.964808 0.420197 0.813274 -0.311068
C36   C     C_R   0.726953 0.495074 0.815358 -0.265249
Cu1   Cu    Cu3+1 0.140670 0.499980 0.500000 0.921720
Cu2   Cu    Cu3+1 0.859330 0.500020 0.500000 0.937868
H1    H     H_    0.787129 0.343093 0.078095 0.184774
H2    H     H_    0.998785 0.541703 0.048349 0.152090
H3    H     H_    0.776902 0.107255 0.488636 0.168316
H4    H     H_    0.779281 0.883530 0.491013 0.163909
H5    H     H_    0.315550 0.886999 0.456413 0.075286
H6    H     H_    0.309427 0.136903 0.544551 0.220145
H7    H     H_    0.296447 0.101758 0.428075 0.150470
H8    H     H_    0.569170 0.431079 0.632346 0.146616
H9    H     H_    0.310942 0.430454 0.631820 0.136895
H10   H     H_    0.467507 0.618015 0.298998 0.196900
H11   H     H_    0.346972 0.458250 0.225630 0.146118
H12   H     H_    0.415759 0.714478 0.402857 0.200839
H13   H     H_    0.714961 0.627201 0.302661 0.189277
H14   H     H_    0.664087 0.720576 0.408633 0.209366
H15   H     H_    0.915236 0.532662 0.211546 0.144474
H16   H     H_    0.192672 0.527638 0.910166 0.172131
H17   H     H_    0.077025 0.402644 0.777570 0.150810
H18   H     H_    0.660827 0.542621 0.780162 0.154359
H19   H     H_    0.541733 0.378297 0.158102 0.141547
H20   H     H_    0.441161 0.499958 0.831067 0.139904
N1    N     N_R   0.648210 0.500930 0.499430 -0.185432
N2    N     N_R   0.352300 0.500890 0.499430 -0.193164
O1    O     O_R   0.118810 0.319640 0.500000 -0.577225
O2    O     O_R   0.881230 0.319680 0.499990 -0.582580
O3    O     O_R   0.055580 0.499970 0.629840 -0.592069
O4    O     O_R   0.818000 0.500010 0.629830 -0.592368
O5    O     O_R   0.118770 0.680320 0.500010 -0.602163
O6    O     O_R   0.881190 0.680360 0.500000 -0.575703
O7    O     O_R   0.182000 0.499990 0.370170 -0.582950
O8    O     O_R   0.944420 0.500030 0.370160 -0.580492
O9    O     O_3   0.324396 0.924474 0.590809 -0.605674
C37   C     C_3   0.311494 0.802351 0.622887 0.080535
H21   H     H_    0.411111 0.784042 0.644479 0.167084
H22   H     H_    0.309919 0.732205 0.570661 0.157923
C38   C     C_3   0.177640 0.789986 0.704057 -0.309998
H23   H     H_    0.159868 0.878595 0.741903 0.231302
H24   H     H_    0.079565 0.769027 0.680820 0.201195
C39   C     C_3   0.195646 0.688994 0.767892 -0.935601
H25   H     H_    0.219533 0.599779 0.731858 0.260788
H26   H     H_    0.093545 0.679073 0.822807 0.258701
H27   H     H_    0.285864 0.713405 0.797832 0.253979
O10   O     O_3   0.005051 0.328976 0.946298 -0.637284
C40   C     C_3   0.040470 0.208058 0.912711 0.057005
H28   H     H_    0.148759 0.186310 0.922026 0.174769
H29   H     H_    0.051317 0.198189 0.839387 0.132680
C41   C     C_3   0.928914 0.114159 0.965712 -0.357346
H30   H     H_    0.925359 0.120303 0.038022 0.224051
H31   H     H_    0.819174 0.135488 0.958557 0.219293
C42   C     C_3   0.967195 0.982773 0.932221 -0.912002
H32   H     H_    0.964120 0.973537 0.861225 0.253312
H33   H     H_    0.886774 0.916830 0.973504 0.258410
H34   H     H_    0.077289 0.958911 0.937526 0.258592

loop_
_geom_bond_atom_site_label_1
_geom_bond_atom_site_label_2
_ccdc_geom_bond_type
C8    C9    A    
C42   H32   S    
C16   C21   A    
O10   C40   S    
C38   H23   S    
C19   C20   A    
C41   C42   S    
C4    C8    A    
C1    O2    A    
C14   C33   A    
C40   H28   S    
C25   C28   A    
C31   O7    A    
C26   C27   A    
Cu1   Cu2   S    
C24   H7    S    
C32   C36   A    
C23   O6    A    
C28   C29   S    
C30   H13   S    
C41   H31   S    
C5    C11   A    
C3    C7    A    
C27   N2    A    
C5    C6    A    
C12   O4    A    
C2    C36   A    
C34   C35   A    
C13   H2    S    
C8    H20   S    
Cu1   O3    S    
C11   C15   A    
Cu2   O6    S    
C16   C17   A    
Cu1   O5    S    
C31   C33   S    
C37   H21   S    
C26   N1    A    
C22   O9    S    
C19   H4    S    
C34   O10   S    
C16   C24   S    
C21   C22   S    
C12   C32   S    
C38   H24   S    
C6    H19   S    
C40   H29   S    
Cu2   O4    S    
C29   H12   S    
C28   N2    A    
C31   O8    A    
C29   H10   S    
C35   H17   S    
C32   C35   A    
C39   H25   S    
C18   H3    S    
C12   O3    A    
C18   C19   A    
C3    C34   A    
C2    C4    A    
C29   C30   S    
C36   H18   S    
C22   H5    S    
C20   C23   S    
C14   H15   S    
C37   C38   S    
C17   C18   A    
C41   H30   S    
Cu2   O8    S    
C42   H33   S    
C24   H6    S    
C38   C39   S    
C22   C24   S    
C40   C41   S    
C9    C10   A    
C27   H9    S    
C25   C30   S    
C30   H14   S    
C39   H26   S    
C4    C5    A    
C10   C13   A    
C1    O1    A    
Cu1   O1    S    
C6    C7    A    
C1    C17   S    
C23   O5    A    
C2    C3    A    
Cu1   O7    S    
C15   H11   S    
O9    C37   S    
Cu1   N2    S    
C10   C11   A    
C26   H8    S    
Cu2   N1    S    
C39   H27   S    
C20   C21   A    
C42   H34   S    
C7    H1    S    
C37   H22   S    
C9    H16   S    
C25   N1    A    
C13   C14   A    
C15   C33   A    
Cu2   O2    S    
