data_mof_unit_26107.cif
_audit_creation_date              2013-03-05T15:57:39-0500
_audit_creation_method            fapswitch 2.2
_symmetry_space_group_name_H-M    P1
_symmetry_Int_Tables_number       1
_space_group_crystal_system       triclinic
_cell_length_a                    19.244697
_cell_length_b                    17.749294
_cell_length_c                    12.611603
_cell_angle_alpha                 90.555466
_cell_angle_beta                  98.312661
_cell_angle_gamma                 89.183291
_cell_volume                      4262.04968627

loop_
_atom_site_label
_atom_site_type_symbol
_atom_site_description
_atom_site_fract_x
_atom_site_fract_y
_atom_site_fract_z
_atom_type_partial_charge
O1    O     O_R   0.448200 0.076800 0.373930 -0.615135
O2    O     O_R   0.448200 0.923200 0.373930 -0.598853
O3    O     O_R   0.948200 0.576800 0.373930 -0.615130
O4    O     O_R   0.948200 0.423200 0.373930 -0.598861
O5    O     O_R   0.414750 0.076790 0.542400 -0.610855
O6    O     O_R   0.414750 0.923210 0.542400 -0.636564
O7    O     O_R   0.914750 0.576790 0.542400 -0.610801
O8    O     O_R   0.914750 0.423210 0.542400 -0.636684
C1    C     C_R   0.405390 0.096643 0.441048 0.867854
C2    C     C_R   0.411539 0.896951 0.444418 0.859313
C3    C     C_R   0.905379 0.596627 0.441042 0.867924
C4    C     C_R   0.911542 0.396947 0.444420 0.859256
Zn1   Zn    Zn3+2 0.522330 0.000000 0.387520 0.995971
Zn2   Zn    Zn3+2 0.022330 0.500000 0.387520 0.996001
Zn3   Zn    Zn3+2 0.477660 0.000000 0.612480 0.942465
Zn4   Zn    Zn3+2 0.977660 0.500000 0.612480 0.942441
O9    O     O_R   0.585240 0.923200 0.457600 -0.594312
O10   O     O_R   0.585240 0.076800 0.457600 -0.585175
O11   O     O_R   0.085240 0.423200 0.457600 -0.594254
O12   O     O_R   0.085240 0.576800 0.457600 -0.585178
O13   O     O_R   0.551780 0.923190 0.626070 -0.640192
O14   O     O_R   0.551780 0.076810 0.626070 -0.629526
O15   O     O_R   0.051780 0.423190 0.626070 -0.640178
O16   O     O_R   0.051780 0.576810 0.626070 -0.629509
C5    C     C_R   0.588802 0.896494 0.554866 0.857377
C6    C     C_R   0.591101 0.100472 0.557344 0.867443
C7    C     C_R   0.088791 0.396481 0.554858 0.857309
C8    C     C_R   0.091102 0.600472 0.557344 0.867469
C9    C     C_R   0.752964 0.172902 0.725871 -0.113201
C10   C     C_R   0.641048 0.704501 0.664142 -0.095600
C11   C     C_R   0.252976 0.672885 0.725856 -0.113184
C12   C     C_R   0.140832 0.204360 0.663852 -0.095654
H1    H     H_    0.665355 0.109085 0.759421 0.155010
H2    H     H_    0.577011 0.794469 0.712891 0.203465
H3    H     H_    0.165373 0.609063 0.759410 0.154972
H4    H     H_    0.076783 0.294318 0.712613 0.203479
H5    H     H_    0.779626 0.165700 0.806700 0.196212
H6    H     H_    0.627953 0.668638 0.726804 0.219343
H7    H     H_    0.279647 0.665670 0.806677 0.196185
H8    H     H_    0.127624 0.168450 0.726377 0.219430
C13   C     C_R   0.650898 0.147726 0.595474 -0.067302
C14   C     C_R   0.627182 0.825838 0.577003 -0.082266
C15   C     C_R   0.150898 0.647726 0.595475 -0.067315
C16   C     C_R   0.127130 0.325795 0.576958 -0.082210
C17   C     C_R   0.331590 0.833290 0.303748 -0.231698
C18   C     C_R   0.341452 0.179888 0.301708 -0.252966
C19   C     C_R   0.831616 0.333255 0.303750 -0.231710
C20   C     C_R   0.841358 0.679759 0.301623 -0.252978
C21   C     C_R   0.280894 0.780205 0.270819 -0.163835
C22   C     C_R   0.282801 0.222582 0.260146 -0.196273
C23   C     C_R   0.780932 0.280157 0.270822 -0.163874
C24   C     C_R   0.782686 0.722423 0.260067 -0.196212
C25   C     C_R   0.256901 0.733475 0.345828 0.315407
C26   C     C_R   0.228003 0.234786 0.320339 0.300905
C27   C     C_R   0.756934 0.233433 0.345835 0.315415
C28   C     C_R   0.727925 0.734672 0.320320 0.300907
C29   C     C_R   0.281938 0.743352 0.457141 -0.029290
C30   C     C_R   0.233662 0.202628 0.424194 -0.026001
C31   C     C_R   0.781956 0.243330 0.457150 -0.029322
C32   C     C_R   0.733639 0.702581 0.424224 -0.026017
C33   C     C_R   0.342337 0.786403 0.486639 0.000607
C34   C     C_R   0.282904 0.144760 0.451780 0.003844
C35   C     C_R   0.842348 0.286393 0.486653 0.000566
C36   C     C_R   0.782895 0.644726 0.451826 0.003937
C37   C     C_R   0.749164 0.212465 0.540074 0.070901
C38   C     C_R   0.694130 0.727248 0.503620 0.071080
C39   C     C_R   0.249156 0.712477 0.540068 0.070950
C40   C     C_R   0.194102 0.227235 0.503552 0.071197
C41   C     C_R   0.784936 0.209322 0.646969 0.033721
C42   C     C_R   0.684824 0.679595 0.590003 0.023294
C43   C     C_R   0.284940 0.709316 0.646954 0.033744
C44   C     C_R   0.184695 0.179503 0.589803 0.023183
C45   C     C_R   0.352148 0.740925 0.670886 0.280423
C46   C     C_R   0.219450 0.108798 0.597931 0.294382
C47   C     C_R   0.852140 0.240938 0.670910 0.280360
C48   C     C_R   0.719586 0.608908 0.598189 0.294572
C49   C     C_R   0.380227 0.778478 0.590556 -0.229763
C50   C     C_R   0.269842 0.093081 0.530548 -0.250821
C51   C     C_R   0.880227 0.278484 0.590580 -0.229949
C52   C     C_R   0.769890 0.593104 0.530703 -0.250850
C53   C     C_R   0.679824 0.188337 0.519789 -0.133026
C54   C     C_R   0.669860 0.801302 0.503612 -0.140907
C55   C     C_R   0.179814 0.688351 0.519793 -0.132966
C56   C     C_R   0.169868 0.301301 0.503629 -0.140905
C57   C     C_R   0.686846 0.141157 0.699632 -0.205886
C58   C     C_R   0.612223 0.777153 0.657275 -0.196686
C59   C     C_R   0.186857 0.641144 0.699624 -0.205867
C60   C     C_R   0.112056 0.277037 0.657070 -0.196701
C61   C     C_R   0.362934 0.836423 0.411072 -0.068397
C62   C     C_R   0.342412 0.140605 0.398228 -0.090374
C63   C     C_R   0.862946 0.336408 0.411080 -0.068432
C64   C     C_R   0.842374 0.640543 0.398210 -0.090432
H9    H     H_    0.647840 0.198575 0.443432 0.169221
H10   H     H_    0.683819 0.840509 0.445108 0.153977
H11   H     H_    0.147821 0.698599 0.443447 0.169219
H12   H     H_    0.183895 0.340550 0.445231 0.153896
H13   H     H_    0.347214 0.871080 0.244733 0.179683
H14   H     H_    0.384902 0.175379 0.256073 0.186230
H15   H     H_    0.847241 0.371039 0.244729 0.179684
H16   H     H_    0.884781 0.675222 0.255938 0.186252
H17   H     H_    0.261571 0.774155 0.186200 0.200080
H18   H     H_    0.279894 0.245559 0.180523 0.187181
H19   H     H_    0.761620 0.274094 0.186201 0.200081
H20   H     H_    0.779735 0.745348 0.180406 0.187188
H21   H     H_    0.432152 0.801679 0.610861 0.194265
H22   H     H_    0.297405 0.039656 0.538306 0.180575
H23   H     H_    0.932147 0.301692 0.610894 0.194229
H24   H     H_    0.797438 0.539673 0.538497 0.180367
C65   C     C_R   0.645217 0.005695 0.132241 0.465299
C66   C     C_R   0.145217 0.505751 0.132245 0.465335
H25   H     H_    0.658745 0.999191 0.304111 0.175959
H26   H     H_    0.158744 0.499227 0.304113 0.175976
H27   H     H_    0.671298 0.011919 0.929908 0.171186
H28   H     H_    0.171294 0.512006 0.929908 0.171116
N1    N     N_R   0.552340 0.000000 0.237260 -0.140257
N2    N     N_R   0.052340 0.500000 0.237260 -0.140269
C67   C     C_R   0.378964 0.987613 0.764032 0.050747
C68   C     C_R   0.878979 0.487508 0.764034 0.050810
C69   C     C_R   0.353657 0.979211 0.860659 -0.108489
C70   C     C_R   0.853689 0.479024 0.860660 -0.107791
C71   C     C_R   0.399675 0.984547 0.955748 -0.186944
C72   C     C_R   0.899700 0.484406 0.955748 -0.186805
C73   C     C_R   0.472036 0.996175 0.954130 0.054918
C74   C     C_R   0.972045 0.496137 0.954129 0.054794
C75   C     C_R   0.495448 0.001674 0.853301 0.242439
C76   C     C_R   0.995449 0.501685 0.853301 0.242370
C77   C     C_R   0.522116 0.999417 0.047972 -0.045037
C78   C     C_R   0.022121 0.499409 0.047972 -0.044993
C79   C     C_R   0.594906 0.004846 0.039547 0.059092
C80   C     C_R   0.094907 0.504884 0.039549 0.059065
C81   C     C_R   0.616300 0.008521 0.938843 -0.233556
C82   C     C_R   0.116299 0.508581 0.938844 -0.233542
C83   C     C_R   0.567264 0.005905 0.847412 -0.203214
C84   C     C_R   0.067263 0.505949 0.847413 -0.203086
C85   C     C_R   0.502646 0.999067 0.150659 -0.048705
C86   C     C_R   0.002648 0.499050 0.150657 -0.048716
C87   C     C_R   0.621908 0.000536 0.231129 0.065458
C88   C     C_R   0.121908 0.500566 0.231131 0.065614
N3    N     N_R   0.448170 0.000000 0.762060 -0.147394
N4    N     N_R   0.948170 0.500000 0.762060 -0.147393
H29   H     H_    0.448879 0.999069 0.165101 0.134980
H30   H     H_    0.948880 0.499040 0.165092 0.134973
H31   H     H_    0.343916 0.981096 0.690032 0.165844
H32   H     H_    0.843932 0.480947 0.690039 0.165496
H33   H     H_    0.377462 0.976504 0.028414 0.145189
H34   H     H_    0.877503 0.476295 0.028414 0.145178
H35   H     H_    0.298883 0.967058 0.862025 0.219690
H36   H     H_    0.798934 0.466769 0.862024 0.219551
H37   H     H_    0.587233 0.004868 0.772868 0.203765
H38   H     H_    0.087233 0.504907 0.772870 0.203752
O17   O     O_3   0.714036 0.025659 0.127941 -0.595502
C89   C     C_3   0.756703 0.961282 0.117977 0.062343
H39   H     H_    0.793266 0.975823 0.060903 0.180063
H40   H     H_    0.727273 0.911038 0.083050 0.155763
C90   C     C_3   0.799683 0.942206 0.226656 -0.301592
H41   H     H_    0.816912 0.994961 0.270216 0.280397
H42   H     H_    0.766444 0.910921 0.275842 0.214930
C91   C     C_3   0.864957 0.895121 0.213519 -0.910054
H43   H     H_    0.851183 0.846304 0.159457 0.257836
H44   H     H_    0.889877 0.874216 0.292895 0.272507
H45   H     H_    0.903429 0.930083 0.179029 0.279361
O18   O     O_3   0.214023 0.525769 0.127955 -0.595458
C92   C     C_3   0.256725 0.461431 0.117907 0.062376
H46   H     H_    0.293253 0.476028 0.060807 0.180021
H47   H     H_    0.227319 0.411175 0.082971 0.155763
C93   C     C_3   0.299755 0.442348 0.226545 -0.301457
H48   H     H_    0.316979 0.495102 0.270114 0.280364
H49   H     H_    0.266554 0.411034 0.275756 0.215014
C94   C     C_3   0.365035 0.395300 0.213320 -0.910156
H50   H     H_    0.351263 0.346500 0.159220 0.257813
H51   H     H_    0.389985 0.374369 0.292666 0.272510
H52   H     H_    0.403481 0.430299 0.178832 0.279388
N5    N     N_R   0.390986 0.739694 0.777070 0.202083
O19   O     O_R   0.458174 0.725417 0.790258 -0.387875
O20   O     O_R   0.362997 0.767730 0.856991 -0.387304
N6    N     N_R   0.207802 0.054550 0.676948 0.185370
O21   O     O_R   0.214682 0.073532 0.777775 -0.427602
O22   O     O_R   0.201666 0.983655 0.650490 -0.404734
N7    N     N_R   0.890965 0.239723 0.777103 0.202081
O23   O     O_R   0.958151 0.225435 0.790318 -0.387940
O24   O     O_R   0.862966 0.267775 0.857004 -0.387462
N8    N     N_R   0.708047 0.554782 0.677411 0.185079
O25   O     O_R   0.715281 0.573829 0.778240 -0.427707
O26   O     O_R   0.701313 0.483912 0.650965 -0.404349
N9    N     N_R   0.717862 0.168460 0.306938 0.196033
O27   O     O_R   0.736321 0.103164 0.348416 -0.434477
O28   O     O_R   0.671534 0.172316 0.221053 -0.393727
N10   N     N_R   0.663829 0.770404 0.270513 0.194453
O29   O     O_R   0.603580 0.749526 0.294961 -0.353304
O30   O     O_R   0.664186 0.814426 0.188774 -0.451250
N11   N     N_R   0.217825 0.668507 0.306924 0.196033
O31   O     O_R   0.236295 0.603205 0.348373 -0.434491
O32   O     O_R   0.171480 0.672376 0.221060 -0.393696
N12   N     N_R   0.163924 0.270540 0.270507 0.194462
O33   O     O_R   0.103658 0.249655 0.294882 -0.353302
O34   O     O_R   0.164315 0.314582 0.188796 -0.451368

loop_
_geom_bond_atom_site_label_1
_geom_bond_atom_site_label_2
_geom_bond_distance
_ccdc_geom_bond_type
C30   C34   1.399240 A    
C52   H24   1.078210 S    
N12   O34   1.300424 A    
C21   C25   1.395875 A    
C39   C55   1.394642 A    
C54   H10   1.083245 S    
C27   C31   1.426784 A    
C90   H42   1.110788 S    
C15   C55   1.385274 A    
C94   H50   1.108511 S    
Zn4   O16   1.975576 S    
C4    C63   1.453341 S    
C92   H46   1.111329 S    
C14   C54   1.386643 A    
O3    C3    1.306498 A    
C67   C69   1.386241 A    
N11   O32   1.301253 A    
C46   N6    1.435198 S    
C66   O18   1.384585 S    
C12   C44   1.410197 A    
C67   N3    1.356764 A    
N5    O19   1.301164 A    
H4    C60   1.083027 S    
O7    C3    1.315587 A    
C92   H47   1.115679 S    
C76   N4    1.360234 A    
C22   C26   1.398969 A    
Zn1   O10   1.954316 S    
C26   N12   1.442142 S    
C65   C87   1.389278 A    
C65   O17   1.384582 S    
C77   C85   1.399331 A    
C68   H32   1.075860 S    
C78   C86   1.399330 A    
C21   H17   1.082983 S    
Zn2   N2    2.059394 S    
N9    O28   1.301253 A    
C39   C43   1.423540 A    
C9    H5    1.080826 S    
C23   H19   1.082984 S    
C84   H38   1.065721 S    
C19   H15   1.083700 S    
C10   H6    1.079411 S    
Zn2   O12   1.954316 S    
N10   O30   1.300412 A    
H2    C58   1.083038 S    
O2    Zn1   1.975593 S    
H1    C57   1.081142 S    
N8    O25   1.300960 A    
C86   H30   1.076257 S    
C91   H45   1.110809 S    
O6    Zn3   1.954193 S    
C36   C52   1.409926 A    
H3    C59   1.081134 S    
C3    C64   1.470180 S    
Zn3   O14   1.975576 S    
N1    C87   1.352333 A    
C2    C61   1.453312 S    
C33   C49   1.411870 A    
O10   C6    1.312147 A    
C20   C64   1.406364 A    
O17   C89   1.412781 S    
N6    O21   1.300871 A    
C14   C58   1.400992 A    
O15   C7    1.306029 A    
C10   C58   1.394975 A    
C47   N7    1.436361 S    
C9    C57   1.393237 A    
C40   C44   1.418786 A    
C74   C78   1.415364 A    
C69   C71   1.387254 A    
N12   O33   1.301773 A    
C18   H14   1.083133 S    
C32   C38   1.405198 A    
O8    Zn4   1.954193 S    
C90   C91   1.526899 S    
C91   H44   1.110453 S    
C94   H51   1.110466 S    
Zn4   N4    2.047028 S    
C19   C63   1.400859 A    
C29   C39   1.415578 A    
C68   N4    1.356809 A    
C7    C16   1.455026 S    
C10   C42   1.410150 A    
C33   C61   1.410408 A    
C32   C36   1.399285 A    
Zn3   N3    2.047028 S    
N5    O20   1.301269 A    
C20   H16   1.083133 S    
C11   C59   1.393232 A    
N11   O31   1.299727 A    
C40   C56   1.388655 A    
C28   N10   1.442130 S    
C66   C88   1.389288 A    
C93   H49   1.110782 S    
O1    C1    1.306486 A    
C44   C46   1.411208 A    
C43   C45   1.408275 A    
C83   H37   1.065732 S    
C25   C29   1.426780 A    
C72   H34   1.077284 S    
C35   C51   1.411877 A    
O12   C8    1.312150 A    
C16   C56   1.386599 A    
C75   N3    1.360217 A    
C28   C32   1.422913 A    
N10   O29   1.301768 A    
C1    C62   1.470155 S    
C80   C82   1.392970 A    
C77   C79   1.424765 A    
O5    C1    1.315594 A    
H26   C88   1.077755 S    
C38   C54   1.388631 A    
C53   H9    1.080759 S    
C73   C77   1.415380 A    
C89   C90   1.533165 S    
C85   H29   1.076250 S    
O8    C4    1.309810 A    
O5    Zn3   1.942034 S    
C13   C53   1.385279 A    
C92   C93   1.533160 S    
C17   C21   1.383319 A    
C51   H23   1.081384 S    
C55   H11   1.080757 S    
C89   H39   1.111338 S    
C29   C33   1.402910 A    
C25   N11   1.429342 S    
Zn1   N1    2.059394 S    
O3    Zn2   1.949655 S    
C18   C62   1.406360 A    
C68   C70   1.386250 A    
C30   C40   1.405143 A    
O7    Zn4   1.942034 S    
C89   H40   1.115678 S    
C70   H36   1.081597 S    
Zn4   O15   1.949639 S    
C42   C48   1.411023 A    
C93   H48   1.111186 S    
C94   H52   1.110810 S    
C71   H33   1.077275 S    
O4    C4    1.305332 A    
C36   C64   1.411863 A    
C41   C47   1.408268 A    
C72   C74   1.413762 A    
O2    C2    1.305323 A    
N2    C88   1.352337 A    
C56   H12   1.083251 S    
C12   H8    1.079341 S    
O11   C7    1.311560 A    
C70   C72   1.387235 A    
C74   C76   1.413810 A    
O18   C92   1.412788 S    
C26   C30   1.422898 A    
C75   C83   1.397868 A    
O13   C5    1.306014 A    
C24   H20   1.081149 S    
C17   C61   1.400856 A    
C48   N8    1.435035 S    
C67   H31   1.075828 S    
H28   C82   1.083051 S    
Zn2   O11   1.942157 S    
C34   C50   1.409899 A    
O16   C8    1.306153 A    
C81   C83   1.381263 A    
C78   C80   1.424754 A    
C5    C14   1.454975 S    
O6    C2    1.309808 A    
C19   C23   1.383325 A    
C48   C52   1.402181 A    
C22   H18   1.081132 S    
N2    C86   1.343802 A    
C13   C57   1.398444 A    
C18   C22   1.391133 A    
C8    C15   1.455558 S    
C31   C35   1.402921 A    
Zn1   O9    1.942157 S    
C50   H22   1.078225 S    
O9    C5    1.311558 A    
C49   H21   1.081388 S    
C69   H35   1.081581 S    
C15   C59   1.398442 A    
O4    Zn2   1.975593 S    
C17   H13   1.083701 S    
C31   C37   1.415579 A    
C65   C79   1.406083 A    
N9    O27   1.299730 A    
C91   H43   1.108486 S    
Zn3   O13   1.949639 S    
N1    C85   1.343802 A    
H25   C87   1.077759 S    
C37   C41   1.423537 A    
C34   C62   1.411866 A    
C11   C43   1.409785 A    
C11   H7    1.080825 S    
C66   C80   1.406087 A    
C23   C27   1.395878 A    
C27   N9    1.429361 S    
C45   N5    1.436363 S    
N8    O26   1.301658 A    
C71   C73   1.413781 A    
C73   C75   1.413805 A    
O14   C6    1.306156 A    
N7    O23   1.301162 A    
C20   C24   1.391140 A    
O1    Zn1   1.949655 S    
C38   C42   1.418763 A    
C76   C84   1.397865 A    
C93   C94   1.526905 S    
C82   C84   1.381269 A    
C46   C50   1.402311 A    
H27   C81   1.083056 S    
C35   C63   1.410419 A    
C90   H41   1.111174 S    
C45   C49   1.394387 A    
C37   C53   1.394636 A    
C9    C41   1.409786 A    
C79   C81   1.392965 A    
C16   C60   1.400972 A    
C47   C51   1.394392 A    
C24   C28   1.398972 A    
C6    C13   1.455555 S    
N6    O22   1.301300 A    
N7    O24   1.301270 A    
C12   C60   1.395033 A    
