data_mof_unit_7693.cif
_audit_creation_date              2012-10-26T21:06:36-0400
_audit_creation_method            fapswitch 2.2
_symmetry_space_group_name_H-M    P1
_symmetry_Int_Tables_number       1
_space_group_crystal_system       triclinic
_cell_length_a                    15.856023
_cell_length_b                    10.80319
_cell_length_c                    9.593669
_cell_angle_alpha                 90.339312
_cell_angle_beta                  91.397713
_cell_angle_gamma                 91.376453
_cell_volume                      1642.35573347

loop_
_atom_site_label
_atom_site_type_symbol
_atom_type_description
_atom_site_fract_x
_atom_site_fract_y
_atom_site_fract_z
_atom_type_partial_charge
C1    C     C_R   0.501772 0.262597 0.500047 0.544192
C2    C     C_R   0.560396 0.563852 0.079215 0.025152
C3    C     C_R   0.339945 0.499812 0.498529 0.543916
C4    C     C_R   0.660055 0.500188 0.501471 0.543916
C5    C     C_3   0.971637 0.396303 0.563261 -0.099951
C6    C     C_3   0.028363 0.603696 0.436739 -0.099951
C7    C     C_3   0.024779 0.399382 0.429149 -0.100683
C8    C     C_3   0.975220 0.600618 0.570851 -0.100683
C9    C     C_1   0.250213 0.499847 0.495631 -0.046546
C10   C     C_1   0.749787 0.500153 0.504369 -0.046546
C11   C     C_3   0.030896 0.496915 0.629550 0.029023
C12   C     C_R   0.498227 0.737403 0.499953 0.544192
C13   C     C_3   0.969104 0.503085 0.370450 0.029023
C14   C     C_3   0.082968 0.499952 0.497194 0.052098
C15   C     C_3   0.917032 0.500048 0.502806 0.052098
C16   C     C_1   0.174643 0.499892 0.495330 -0.067841
C17   C     C_1   0.825357 0.500108 0.504670 -0.067841
C18   C     C_R   0.449732 0.064666 0.405143 -0.126702
C19   C     C_R   0.550268 0.935334 0.594857 -0.126702
C20   C     C_3   0.933172 0.506608 0.222184 -0.408515
C21   C     C_3   0.066828 0.493392 0.777816 -0.408515
C22   C     C_3   0.385013 0.870463 0.302592 -0.378052
C23   C     C_R   0.445900 0.935924 0.403350 -0.017686
C24   C     C_3   0.614986 0.129537 0.697407 -0.378051
C25   C     C_3   0.365593 0.366801 0.132330 -0.350204
C26   C     C_3   0.634407 0.633199 0.867670 -0.350204
C27   C     C_R   0.554100 0.064076 0.596650 -0.017686
C28   C     C_R   0.497242 0.871359 0.499221 0.022956
C29   C     C_R   0.502758 0.128641 0.500779 0.022956
C30   C     C_R   0.438544 0.435629 0.068640 0.109581
C31   C     C_R   0.561455 0.564371 0.931360 0.109581
C32   C     C_R   0.439604 0.436148 0.920785 0.025152
Cu1   Cu    Cu3+1 0.500000 0.500020 0.640660 0.917964
Cu2   Cu    Cu3+1 0.500000 0.499980 0.359340 0.917964
H1    H     H_    0.045932 0.317638 0.369949 0.098870
H2    H     H_    0.892338 0.423269 0.201858 0.134141
H3    H     H_    0.895236 0.590823 0.208086 0.131279
H4    H     H_    0.014497 0.491684 0.852576 0.120902
H5    H     H_    0.104764 0.409177 0.791914 0.131279
H6    H     H_    0.107662 0.576731 0.798142 0.134141
H7    H     H_    0.344400 0.803581 0.359446 0.138149
H8    H     H_    0.343005 0.936480 0.248274 0.107159
H9    H     H_    0.420222 0.820933 0.221667 0.162915
H10   H     H_    0.655600 0.196419 0.640554 0.138149
H11   H     H_    0.579778 0.179067 0.778333 0.162915
H12   H     H_    0.954068 0.682362 0.630050 0.098870
H13   H     H_    0.656995 0.063520 0.751726 0.107158
H14   H     H_    0.335278 0.299962 0.057011 0.061134
H15   H     H_    0.385474 0.311490 0.222565 0.174700
H16   H     H_    0.316443 0.432992 0.161025 0.142842
H17   H     H_    0.664722 0.700038 0.942989 0.061134
H18   H     H_    0.683556 0.567008 0.838975 0.142842
H19   H     H_    0.614526 0.688510 0.777435 0.174700
H20   H     H_    0.947570 0.311981 0.616285 0.099696
H21   H     H_    0.052430 0.688019 0.383715 0.099696
H22   H     H_    0.409986 0.115597 0.333400 0.105530
H23   H     H_    0.590014 0.884403 0.666600 0.105530
H24   H     H_    0.391353 0.385858 0.860336 0.120798
H25   H     H_    0.608647 0.614142 0.139664 0.120798
H26   H     H_    0.985503 0.508316 0.147424 0.120902
N1    N     N_R   0.500020 0.500030 0.852070 -0.225678
N2    N     N_R   0.499980 0.499970 0.147930 -0.225679
O1    O     O_R   0.500000 0.319660 0.618740 -0.502911
O2    O     O_R   0.500000 0.680340 0.381260 -0.502911
O3    O     O_R   0.499990 0.319630 0.381170 -0.510439
O4    O     O_R   0.500010 0.680370 0.618830 -0.510439
O5    O     O_R   0.379080 0.500000 0.618760 -0.496205
O6    O     O_R   0.620920 0.500000 0.381240 -0.496205
O7    O     O_R   0.379080 0.499970 0.381190 -0.511582
O8    O     O_R   0.620920 0.500030 0.618810 -0.511583

loop_
_geom_bond_atom_site_label_1
_geom_bond_atom_site_label_2
_ccdc_geom_bond_type
C32   N1    A    
C1    O3    A    
C5    C7    S    
C3    C9    S    
C32   H24   S    
C27   C29   A    
C19   C27   A    
C31   N1    A    
C22   H9    S    
C21   H5    S    
C24   C27   S    
C18   H22   S    
C6    H21   S    
Cu1   O1    S    
Cu1   N1    S    
C4    O8    A    
Cu1   Cu2   S    
C13   C20   S    
C26   C31   S    
C18   C29   A    
C26   H17   S    
C19   H23   S    
C6    C13   S    
C30   C32   A    
C20   H3    S    
Cu2   O7    S    
C3    O5    A    
C22   H8    S    
C21   H6    S    
C7    H1    S    
Cu1   O8    S    
C12   C28   S    
C8    C11   S    
C24   H10   S    
C24   H11   S    
C1    O1    A    
Cu2   O3    S    
C1    C29   S    
C3    O7    A    
C9    C16   T    
C11   C21   S    
Cu1   O4    S    
C5    C11   S    
C8    C15   S    
C26   H18   S    
C25   H14   S    
C13   C15   S    
C30   N2    A    
C19   C28   A    
C12   O2    A    
C11   C14   S    
C14   C16   S    
C5    C15   S    
C22   H7    S    
C6    C14   S    
C23   C28   A    
C10   C17   T    
C4    C10   S    
C18   C23   A    
C20   H2    S    
C26   H19   S    
C5    H20   S    
C7    C13   S    
Cu1   O5    S    
C15   C17   S    
Cu2   O6    S    
C25   C30   S    
C4    O6    A    
C22   C23   S    
C6    C8    S    
C8    H12   S    
C20   H26   S    
C2    H25   S    
C24   H13   S    
C12   O4    A    
C25   H16   S    
Cu2   O2    S    
Cu2   N2    S    
C7    C14   S    
C21   H4    S    
C2    N2    A    
C2    C31   A    
C25   H15   S    
