data_mof_unit_29487.cif
_audit_creation_date              2013-03-05T16:15:21-0500
_audit_creation_method            fapswitch 2.2
_symmetry_space_group_name_H-M    P1
_symmetry_Int_Tables_number       1
_space_group_crystal_system       triclinic
_cell_length_a                    27.861542
_cell_length_b                    10.623129
_cell_length_c                    9.418331
_cell_angle_alpha                 90.463472
_cell_angle_beta                  90.354164
_cell_angle_gamma                 89.651249
_cell_volume                      2787.41179244

loop_
_atom_site_label
_atom_site_type_symbol
_atom_site_description
_atom_site_fract_x
_atom_site_fract_y
_atom_site_fract_z
_atom_type_partial_charge
O1    O     O_R   0.500020 0.316850 0.620870 -0.533747
O2    O     O_R   0.499980 0.683150 0.379130 -0.536557
O3    O     O_R   0.500000 0.316860 0.379090 -0.604236
O4    O     O_R   0.500000 0.683140 0.620910 -0.604759
C1    C     C_R   0.500185 0.259628 0.499385 0.790570
C2    C     C_R   0.499886 0.740359 0.500613 0.785571
O5    O     O_R   0.430270 0.500020 0.620880 -0.494619
O6    O     O_R   0.569730 0.499980 0.379120 -0.503116
O7    O     O_R   0.430250 0.500030 0.379090 -0.541406
O8    O     O_R   0.569750 0.499970 0.620910 -0.550217
C3    C     C_R   0.407395 0.499967 0.499720 0.875262
C4    C     C_R   0.592448 0.499838 0.500319 0.890663
Cu1   Cu    Cu3+1 0.500010 0.499990 0.643150 1.046943
Cu2   Cu    Cu3+1 0.499990 0.500010 0.356850 1.043569
C5    C     C_R   0.177818 0.397685 0.462159 0.642882
C6    C     C_R   0.821231 0.605604 0.522498 0.638525
O9    O     O_2   0.203269 0.294715 0.423160 -0.451628
O10   O     O_2   0.795577 0.712754 0.539769 -0.444179
N1    N     N_R   0.201472 0.504120 0.503549 -0.441530
N2    N     N_R   0.797774 0.494225 0.504021 -0.443371
C7    C     C_R   0.177337 0.609412 0.548369 0.552292
C8    C     C_R   0.822041 0.382761 0.489575 0.555423
C9    C     C_R   0.277682 0.500174 0.370610 0.201109
C10   C     C_R   0.721136 0.544082 0.383223 0.188197
C11   C     C_R   0.328041 0.496437 0.370648 0.454061
C12   C     C_R   0.670787 0.547055 0.384341 0.458063
C13   C     C_R   0.328720 0.506670 0.628666 0.546460
C14   C     C_R   0.671060 0.448540 0.616419 0.522113
C15   C     C_R   0.278762 0.508253 0.628352 -0.238917
C16   C     C_R   0.721027 0.446861 0.615957 -0.224134
C17   C     C_R   0.253039 0.505111 0.500537 0.147695
C18   C     C_R   0.746241 0.494323 0.500386 0.153275
C19   C     C_R   0.101480 0.502627 0.506146 -0.174253
C20   C     C_R   0.897735 0.495182 0.506589 -0.175058
C21   C     C_R   0.127424 0.394729 0.461647 -0.151706
C22   C     C_R   0.871630 0.608641 0.524674 -0.154285
C23   C     C_R   0.102439 0.287190 0.416507 0.639161
C24   C     C_R   0.896449 0.722191 0.543141 0.646836
C25   C     C_R   0.126593 0.612098 0.549371 -0.031893
C26   C     C_R   0.872774 0.380381 0.487840 -0.033564
C27   C     C_R   0.354162 0.500772 0.499596 -0.343064
C28   C     C_R   0.645381 0.498843 0.500668 -0.332003
H1    H     H_    0.259768 0.511502 0.728334 0.198884
H2    H     H_    0.740399 0.408550 0.705994 0.193583
C29   C     C_R   0.974910 0.384343 0.481806 0.066076
C30   C     C_R   0.024375 0.610764 0.544632 0.064955
C31   C     C_R   0.973436 0.611294 0.534292 -0.019456
C32   C     C_R   0.025727 0.388397 0.470782 -0.018863
C33   C     C_R   0.948813 0.496880 0.507584 0.070723
C34   C     C_R   0.050407 0.500661 0.507238 0.071515
C35   C     C_R   0.949353 0.270668 0.468994 -0.270449
C36   C     C_R   0.050148 0.716942 0.592341 -0.268406
C37   C     C_R   0.899297 0.267502 0.470056 0.247785
C38   C     C_R   0.100221 0.719438 0.593606 0.251931
O11   O     O_2   0.796810 0.275320 0.476123 -0.491808
O12   O     O_2   0.202695 0.710877 0.590754 -0.504252
C39   C     C_R   0.052724 0.284215 0.421473 -0.295076
C40   C     C_R   0.946214 0.723239 0.547613 -0.293551
H3    H     H_    0.967398 0.180905 0.460381 0.140160
H4    H     H_    0.032322 0.800179 0.632248 0.141861
H5    H     H_    0.036272 0.199595 0.380892 0.164150
H6    H     H_    0.962442 0.814745 0.557360 0.159805
C41   C     C_3   0.540217 0.042002 0.567201 -0.251077
C42   C     C_3   0.459972 0.957951 0.432765 -0.251734
C43   C     C_3   0.538267 0.957343 0.434197 0.285174
C44   C     C_3   0.461919 0.042566 0.565779 0.294175
H7    H     H_    0.573236 0.078555 0.619181 0.173462
H8    H     H_    0.426951 0.921421 0.380776 0.158841
C45   C     C_3   0.499686 0.876902 0.501927 -0.076534
C46   C     C_3   0.500486 0.123058 0.498053 -0.077333
C47   C     C_3   0.500690 0.960561 0.636761 -0.167203
C48   C     C_3   0.499501 0.039378 0.363202 -0.165446
H9    H     H_    0.500446 0.926593 0.747921 0.161124
H10   H     H_    0.499755 0.073335 0.252039 0.161166
C49   C     C_3   0.530246 0.579010 0.050847 0.796739
C50   C     C_3   0.469723 0.421049 0.949112 0.823629
C51   C     C_3   0.488718 0.610461 0.950014 -0.246900
C52   C     C_3   0.511283 0.389534 0.049945 -0.244046
H11   H     H_    0.479570 0.703399 0.903719 0.165276
H12   H     H_    0.520423 0.296580 0.096210 0.163266
N3    N     N_3   0.500040 0.499970 0.858290 -0.234727
N4    N     N_3   0.499960 0.500030 0.141710 -0.238645
C53   C     C_3   0.542067 0.469747 0.949986 -0.188745
C54   C     C_3   0.457945 0.530349 0.049984 -0.154928
H13   H     H_    0.577474 0.445264 0.904029 0.232570
H14   H     H_    0.422706 0.556468 0.095846 0.233992
F1    F     F_    0.351794 0.510838 0.755997 -0.597803
F2    F     F_    0.648012 0.398276 0.728878 -0.655730
F3    F     F_    0.562267 0.663823 0.109632 -0.584218
F4    F     F_    0.437490 0.336837 0.890117 -0.597341
F5    F     F_    0.125714 0.184003 0.365034 -0.646712
F6    F     F_    0.872931 0.833918 0.556940 -0.639409
F7    F     F_    0.646910 0.597589 0.272047 -0.601102
F8    F     F_    0.351039 0.489795 0.244166 -0.647735
N5    N     N_2   0.746647 0.593017 0.265607 -0.387820
H15   H     H_    0.730088 0.669142 0.218297 0.305792
C55   C     C_3   0.761443 0.498895 0.162792 -0.602770
H16   H     H_    0.782854 0.544085 0.078440 0.224957
H17   H     H_    0.729482 0.453974 0.113124 0.251756
H18   H     H_    0.784135 0.425672 0.213768 0.230350
N6    N     N_2   0.251689 0.497033 0.239994 -0.382951
H19   H     H_    0.268194 0.445428 0.160719 0.314596
C56   C     C_3   0.235626 0.619040 0.191198 -0.596427
H20   H     H_    0.213976 0.607297 0.092650 0.227907
H21   H     H_    0.266975 0.679535 0.167868 0.244422
H22   H     H_    0.212789 0.665998 0.272212 0.231542
N7    N     N_2   0.876303 0.148987 0.453278 -0.355380
H23   H     H_    0.892309 0.078292 0.511604 0.291507
C57   C     C_3   0.868815 0.111585 0.306801 -0.524710
H24   H     H_    0.848031 0.022755 0.302793 0.259866
H25   H     H_    0.903848 0.095625 0.253536 0.187152
H26   H     H_    0.848200 0.185133 0.248891 0.227174
N8    N     N_2   0.123407 0.831527 0.640291 -0.401853
H27   H     H_    0.108336 0.870600 0.730359 0.245847
C58   C     C_3   0.129391 0.923813 0.529804 -0.467026
H28   H     H_    0.150517 0.004277 0.572016 0.258006
H29   H     H_    0.093824 0.959267 0.493173 0.204002
H30   H     H_    0.149028 0.882101 0.438288 0.245124
N9    N     N_2   0.579799 0.904702 0.363266 -0.366706
H31   H     H_    0.598033 0.839636 0.424154 0.265111
C59   C     C_3   0.611010 0.996128 0.299396 -0.559220
H32   H     H_    0.640331 0.946541 0.241982 0.255057
H33   H     H_    0.627072 0.057925 0.382517 0.205382
H34   H     H_    0.590727 0.054409 0.221874 0.218528
N10   N     N_2   0.420358 0.094920 0.636795 -0.379439
H35   H     H_    0.402033 0.159796 0.575889 0.254584
C60   C     C_3   0.389278 0.003211 0.700742 -0.566639
H36   H     H_    0.359911 0.052518 0.758231 0.251143
H37   H     H_    0.409650 0.945103 0.778231 0.223644
H38   H     H_    0.373274 0.941262 0.617666 0.205451

loop_
_geom_bond_atom_site_label_1
_geom_bond_atom_site_label_2
_geom_bond_distance
_ccdc_geom_bond_type
C40   H6    1.077582 S    
C2    C45   1.450446 S    
C41   C43   1.537042 S    
N6    H19   1.031507 S    
Cu1   N3    2.026257 S    
C13   C15   1.391891 A    
N5    H15   1.031549 S    
C42   C48   1.555682 S    
N1    C17   1.437299 S    
C50   C54   1.529644 S    
C10   C18   1.407742 A    
C55   H16   1.110418 S    
C32   C39   1.411462 A    
C31   C33   1.419251 A    
C44   C46   1.523520 S    
O5    C3    1.303600 A    
C19   C25   1.416478 A    
C20   C26   1.416848 A    
C42   H8    1.110153 S    
C21   C23   1.403055 A    
C54   H14   1.107922 S    
C57   H25   1.111682 S    
C52   H12   1.110107 S    
C25   C38   1.414078 A    
C29   C35   1.409575 A    
C58   H28   1.110368 S    
C38   N8    1.423331 S    
C24   F6    1.357956 S    
C14   C28   1.407507 A    
O4    Cu1   1.958551 S    
C45   C47   1.544312 S    
C37   N7    1.423316 S    
C59   H34   1.110728 S    
C4    C28   1.474741 S    
C36   H4    1.077683 S    
N3    C53   1.485736 S    
C24   C40   1.387010 A    
C52   C53   1.542694 S    
C13   C27   1.411748 A    
C58   H29   1.111836 S    
C14   F2    1.356857 S    
C30   C36   1.409782 A    
N7    H23   1.031599 S    
C51   N3    1.485253 S    
C6    N2    1.364561 A    
C12   F7    1.358484 S    
C32   C34   1.418959 A    
C11   F8    1.357249 S    
N6    C56   1.446166 S    
Cu1   Cu2   2.696466 S    
C15   H1    1.083224 S    
N7    C57   1.446779 S    
C16   H2    1.083187 S    
O2    C2    1.291216 A    
C5    C21   1.404580 A    
C55   H17   1.111715 S    
C36   C38   1.395505 A    
C51   H11   1.110119 S    
C41   H7    1.110170 S    
C23   F5    1.357850 S    
O4    C2    1.290052 A    
C57   H26   1.111469 S    
C11   C27   1.412552 A    
C47   H9    1.110202 S    
C51   C54   1.541988 S    
C19   C34   1.423360 A    
C35   C37   1.395333 A    
C9    C17   1.407311 A    
C5    N1    1.365081 A    
O7    Cu2   1.955607 S    
C60   H37   1.110732 S    
C1    C46   1.450726 S    
O7    C3    1.305852 A    
C52   N4    1.485518 S    
C44   C47   1.536788 S    
C7    C25   1.413989 A    
C41   C46   1.542560 S    
C29   C33   1.415526 A    
O6    C4    1.301821 A    
C58   H30   1.111446 S    
C8    C26   1.413751 A    
C43   N9    1.446943 S    
C56   H21   1.111591 S    
C42   C45   1.542258 S    
C13   F1    1.357719 S    
C49   C51   1.529421 S    
C59   H32   1.110339 S    
C41   C47   1.555711 S    
N9    C59   1.444820 S    
O8    C4    1.303356 A    
C48   H10   1.110200 S    
C53   H13   1.108391 S    
N2    C8    1.366219 A    
N4    C54   1.485874 S    
N10   H35   1.031108 S    
O1    C1    1.291309 A    
C10   N5    1.423412 S    
O1    Cu1   1.955115 S    
Cu2   N4    2.026257 S    
C60   H36   1.110260 S    
C55   H18   1.109778 S    
C12   C28   1.409548 A    
N8    H27   1.031882 S    
N2    C18   1.435963 S    
C29   C32   1.421212 A    
C5    O9    1.349660 S    
C30   C31   1.421936 A    
C20   C33   1.423311 A    
O6    Cu2   1.953061 S    
N1    C7    1.366822 A    
C10   C12   1.403050 A    
C50   C52   1.530224 S    
O3    C1    1.290097 A    
O8    Cu1   1.955607 S    
C50   N3    1.475538 S    
C7    O12   1.348771 S    
N9    H31   1.031129 S    
N5    C55   1.446238 S    
C49   N4    1.475635 S    
C39   H5    1.077754 S    
C8    O11   1.348795 S    
O3    Cu2   1.958550 S    
C43   C48   1.536943 S    
C30   C34   1.415737 A    
C44   N10   1.446820 S    
C22   C24   1.403130 A    
C60   H38   1.111320 S    
C15   C17   1.397461 A    
C57   H24   1.110423 S    
C6    C22   1.404780 A    
C31   C40   1.411736 A    
C16   C18   1.398268 A    
C49   C53   1.529539 S    
C9    N6    1.423929 S    
C43   C45   1.523512 S    
C14   C16   1.392191 A    
C19   C21   1.413450 A    
C3    C27   1.483108 S    
C56   H22   1.109895 S    
C20   C22   1.413610 A    
C9    C11   1.403395 A    
O2    Cu2   1.955114 S    
C59   H33   1.111312 S    
C49   F3    1.381968 S    
O5    Cu1   1.953061 S    
C35   H3    1.077991 S    
C6    O10   1.349638 S    
C26   C37   1.414058 A    
C50   F4    1.382446 S    
C56   H20   1.110417 S    
N10   C60   1.444960 S    
C46   C48   1.544559 S    
C23   C39   1.386770 A    
C42   C44   1.536846 S    
N8    C58   1.446513 S    
