data_mof_unit_34496.cif
_audit_creation_date              2012-12-11T16:24:10-0500
_audit_creation_method            fapswitch 2.2
_symmetry_space_group_name_H-M    P1
_symmetry_Int_Tables_number       1
_space_group_crystal_system       triclinic
_cell_length_a                    14.724392
_cell_length_b                    14.744805
_cell_length_c                    33.255754
_cell_angle_alpha                 96.193503
_cell_angle_beta                  96.301684
_cell_angle_gamma                 61.155882
_cell_volume                      6273.60302789

loop_
_atom_site_label
_atom_site_type_symbol
_atom_type_description
_atom_site_fract_x
_atom_site_fract_y
_atom_site_fract_z
_atom_type_partial_charge
C1    C     C_R   0.390679 0.699948 0.446063 0.581147
C2    C     C_1   0.326873 0.352967 0.227502 0.078778
C3    C     C_1   0.332204 0.356851 0.263878 0.099338
C4    C     C_R   0.404776 0.385304 0.434090 0.547373
C5    C     C_R   0.293119 0.298525 0.100889 -0.026152
C6    C     C_R   0.753074 0.373208 0.409228 -0.003411
C7    C     C_R   0.776940 0.438337 0.389983 -0.128683
C8    C     C_R   0.800623 0.416584 0.349569 -0.124091
C9    C     C_R   0.801525 0.329223 0.327762 0.039011
C10   C     C_R   0.785926 0.258869 0.347831 0.098114
C11   C     C_R   0.762631 0.281044 0.388459 -0.099837
C12   C     C_R   0.339140 0.358590 0.307250 0.008785
C13   C     C_R   0.821597 0.309567 0.202747 0.419248
C14   C     C_R   0.807989 0.320468 0.283763 0.338314
C15   C     C_R   0.851267 0.385248 0.145591 0.193636
C16   C     C_R   0.700496 0.409873 0.447379 0.545398
C17   C     C_R   0.882947 0.373944 0.106466 -0.165672
C18   C     C_R   0.875084 0.212172 0.093279 0.219141
C19   C     C_R   0.846997 0.220825 0.133412 0.258160
C20   C     C_R   0.837973 0.306069 0.159655 0.069163
C21   C     C_R   0.901405 0.285338 0.080988 -0.051500
C22   C     C_R   0.370519 0.754737 0.408711 0.012854
C23   C     C_R   0.417384 0.272803 0.326334 -0.143778
C24   C     C_R   0.270753 0.800409 0.388277 0.247977
C25   C     C_R   0.260292 0.826197 0.347596 0.028932
C26   C     C_R   0.348677 0.810179 0.328906 0.048100
C27   C     C_R   0.445055 0.776232 0.350842 0.222853
C28   C     C_R   0.393080 0.702258 0.561179 0.576789
C29   C     C_R   0.455305 0.748593 0.390681 -0.174465
C30   C     C_R   0.333983 0.831217 0.204369 0.356987
C31   C     C_R   0.343718 0.818161 0.285291 0.415647
C32   C     C_R   0.258936 0.820336 0.132908 0.109283
C33   C     C_R   0.248836 0.843535 0.091990 0.088811
C34   C     C_R   0.432178 0.274125 0.368426 0.059193
C35   C     C_R   0.380435 0.900198 0.106657 0.057344
C36   C     C_R   0.391949 0.873961 0.146437 -0.113906
C37   C     C_R   0.328242 0.840172 0.160478 -0.010788
C38   C     C_R   0.300962 0.895080 0.079844 -0.001900
C39   C     C_R   0.371020 0.368744 0.585861 0.057145
C40   C     C_R   0.406743 0.388700 0.549148 0.574191
C41   C     C_R   0.281130 0.446405 0.604761 0.035054
C42   C     C_R   0.267049 0.438562 0.644821 -0.101144
C43   C     C_R   0.338624 0.353472 0.666447 -0.023611
C44   C     C_R   0.419340 0.270463 0.646225 -0.115485
C45   C     C_R   0.404518 0.269193 0.162988 0.081689
C46   C     C_R   0.436042 0.276590 0.606082 0.226673
C47   C     C_R   0.329333 0.354928 0.791932 0.325387
C48   C     C_R   0.332290 0.352907 0.710394 0.348603
C49   C     C_R   0.223186 0.403958 0.851086 -0.143688
C50   C     C_R   0.207981 0.381462 0.888590 -0.139657
C51   C     C_R   0.391497 0.260217 0.897398 -0.053129
C52   C     C_R   0.702630 0.412935 0.562463 0.553398
C53   C     C_R   0.408329 0.284396 0.860399 0.250804
C54   C     C_R   0.321836 0.351488 0.835521 0.020313
C55   C     C_R   0.291058 0.305339 0.910998 -0.028721
C56   C     C_R   0.391158 0.246911 0.121557 -0.093441
C57   C     C_R   0.755862 0.380949 0.602875 -0.002330
C58   C     C_R   0.756497 0.458471 0.631474 -0.113779
C59   C     C_R   0.783901 0.439228 0.672314 0.092958
C60   C     C_R   0.811738 0.341274 0.685152 0.018052
C61   C     C_R   0.819060 0.261287 0.656791 -0.100274
C62   C     C_R   0.792215 0.279781 0.615692 0.081183
C63   C     C_R   0.902107 0.204441 0.821891 0.093598
C64   C     C_R   0.368103 0.364542 0.392228 -0.026590
C65   C     C_R   0.928529 0.195485 0.863348 -0.149299
C66   C     C_R   0.856764 0.382846 0.874048 0.235916
C67   C     C_R   0.210434 0.378877 0.121549 -0.109035
C68   C     C_R   0.829669 0.391264 0.832184 -0.123258
C69   C     C_R   0.855236 0.302458 0.806175 0.010256
C70   C     C_1   0.839701 0.312951 0.763295 0.051674
C71   C     C_1   0.827905 0.323954 0.727509 0.048304
C72   C     C_R   0.910282 0.283443 0.889532 0.038196
C73   C     C_R   0.374184 0.757987 0.601777 0.004714
C74   C     C_R   0.283162 0.780205 0.619786 -0.155893
C75   C     C_R   0.271454 0.811280 0.660664 0.051607
C76   C     C_R   0.278368 0.444862 0.372712 0.206986
C77   C     C_R   0.351880 0.819618 0.684539 0.044093
C78   C     C_R   0.222822 0.401342 0.162959 0.092941
C79   C     C_R   0.440852 0.804925 0.666894 0.229613
C80   C     C_R   0.450300 0.777930 0.624573 0.221209
C81   C     C_R   0.393393 0.888284 0.832222 -0.153665
C82   C     C_R   0.374596 0.915278 0.873076 -0.134639
C83   C     C_R   0.230957 0.876488 0.863599 -0.114951
C84   C     C_R   0.249906 0.848622 0.822358 0.269641
C85   C     C_R   0.329481 0.858118 0.806695 0.072010
C86   C     C_1   0.340884 0.844330 0.763875 0.091273
C87   C     C_1   0.346978 0.834133 0.727787 0.114046
C88   C     C_R   0.267084 0.443814 0.329913 0.308835
C89   C     C_R   0.319120 0.343898 0.184073 0.037222
C90   C     C_R   0.290789 0.913351 0.888815 -0.012205
C91   C     C_R   0.961799 0.265003 0.045206 0.548634
C92   C     C_R   0.273043 0.260103 0.059888 0.553338
C93   C     C_R   0.260775 0.957169 0.043356 0.570609
C94   C     C_R   0.962092 0.267633 0.930782 0.571866
C95   C     C_R   0.270958 0.264224 0.945443 0.542016
C96   C     C_R   0.256302 0.964699 0.928999 0.546783
Cr1   Cr    Cr6+3 0.576280 0.580550 0.506370 1.082336
Cr2   Cr    Cr6+3 0.346780 0.572400 0.496520 1.113335
Cr3   Cr    Cr6+3 0.576960 0.347070 0.497150 1.117241
Cr4   Cr    Cr6+3 0.087320 0.083240 0.984860 1.076095
Cr5   Cr    Cr6+3 0.087720 0.316210 0.996740 1.069462
Cr6   Cr    Cr6+3 0.317350 0.090340 0.995890 1.072194
H1    H     H_    0.456327 0.185927 0.106030 0.182642
H2    H     H_    0.469077 0.205042 0.308271 0.181642
H3    H     H_    0.156020 0.456559 0.832945 0.160062
H4    H     H_    0.457082 0.203814 0.915034 0.165330
H5    H     H_    0.969570 0.118481 0.874559 0.159623
H6    H     H_    0.843286 0.184841 0.666772 0.167569
H7    H     H_    0.729921 0.536402 0.622662 0.185286
H8    H     H_    0.792165 0.466811 0.819647 0.134069
H9    H     H_    0.422016 0.943421 0.891715 0.156271
H10   H     H_    0.455132 0.895140 0.820173 0.152957
H11   H     H_    0.222323 0.768736 0.602566 0.196278
H12   H     H_    0.744520 0.229690 0.402810 0.171451
H13   H     H_    0.166473 0.874146 0.875413 0.132787
H14   H     H_    0.134237 0.420284 0.106194 0.157535
H15   H     H_    0.770569 0.509701 0.405228 0.150382
H16   H     H_    0.852806 0.517222 0.156983 0.349633
H17   H     H_    0.856239 0.156330 0.039640 0.340555
H18   H     H_    0.838187 0.091571 0.126894 0.395574
H19   H     H_    0.121365 0.861388 0.393660 0.359299
H20   H     H_    0.591439 0.738618 0.351254 0.335974
H21   H     H_    0.555085 0.137259 0.605182 0.337355
H22   H     H_    0.513859 0.282003 0.829577 0.345138
H23   H     H_    0.899595 0.432124 0.096990 0.155349
H24   H     H_    0.797345 0.532538 0.884082 0.329090
H25   H     H_    0.585569 0.771113 0.679468 0.357593
H26   H     H_    0.555285 0.818501 0.618985 0.339157
H27   H     H_    0.137200 0.814017 0.812404 0.343506
H28   H     H_    0.194631 0.497060 0.418924 0.342520
H29   H     H_    0.144537 0.581055 0.328849 0.392357
H30   H     H_    0.813502 0.470903 0.334700 0.160783
H31   H     H_    0.531496 0.715766 0.406589 0.138409
H32   H     H_    0.449630 0.883077 0.167142 0.180320
H33   H     H_    0.129716 0.418045 0.898522 0.163621
H34   H     H_    0.200955 0.500989 0.659412 0.185291
H35   H     H_    0.472602 0.202120 0.662164 0.145572
I1    I     I_    0.779293 0.126964 0.318091 -0.176001
I2    I     I_    0.552789 0.133464 0.391709 -0.231267
I3    I     I_    0.775723 0.562830 0.713616 -0.333450
I4    I     I_    0.133762 0.835393 0.685292 -0.200471
I5    I     I_    0.090854 0.516839 0.192538 -0.189995
I6    I     I_    0.162156 0.791479 0.048380 -0.217740
I7    I     I_    0.553487 0.182355 0.192638 -0.215543
I8    I     I_    0.114299 0.882046 0.312579 -0.177921
I9    I     I_    0.159934 0.768133 0.153520 -0.136257
I10   I     I_    0.490170 0.944853 0.092121 -0.266682
I11   I     I_    0.160043 0.579762 0.577021 -0.272118
I12   I     I_    0.942354 0.066667 0.784156 -0.281688
I13   I     I_    0.810114 0.149616 0.576161 -0.227444
N1    N     N_R   0.759562 0.400848 0.222620 -0.129828
N2    N     N_R   0.342802 0.900494 0.270378 -0.157238
N3    N     N_R   0.337954 0.906852 0.230532 -0.202319
N4    N     N_R   0.261170 0.439153 0.771457 -0.206043
N5    N     N_R   0.263127 0.438396 0.731490 -0.197157
N6    N     N_R   0.399653 0.268543 0.730896 -0.210641
N7    N     N_R   0.397642 0.269259 0.770780 -0.185095
N8    N     N_R   0.752863 0.406168 0.262388 -0.198468
N9    N     N_R   0.869626 0.228895 0.263935 -0.159959
N10   N     N_R   0.876381 0.223575 0.224087 -0.137899
N11   N     N_R   0.337616 0.747673 0.219489 -0.161094
N12   N     N_R   0.341987 0.741447 0.259314 -0.168458
O1    O     O_R   0.679450 0.499830 0.463150 -0.512963
O2    O     O_R   0.340240 0.172500 0.045430 -0.486607
O3    O     O_R   0.309670 0.000990 0.032050 -0.470248
O4    O     O_R   0.480650 0.664000 0.464630 -0.521684
O5    O     O_R   0.168330 0.982130 0.939200 -0.511405
O6    O     O_R   0.000140 0.178170 0.944610 -0.523683
O7    O     O_R   0.983010 0.336750 0.948660 -0.444726
O8    O     O_R   0.181800 0.312190 0.959860 -0.496313
O9    O     O_R   0.338500 0.175680 0.956950 -0.514923
O10   O     O_R   0.308050 0.003930 0.950020 -0.497998
O11   O     O_3   0.164130 0.163270 0.992500 -0.265668
O12   O     O_R   0.356040 0.477400 0.534170 -0.493792
O13   O     O_R   0.323930 0.675950 0.455370 -0.415171
O14   O     O_R   0.354700 0.475360 0.451930 -0.480407
O15   O     O_R   0.494470 0.320860 0.448390 -0.475245
O16   O     O_R   0.662580 0.357570 0.460050 -0.495417
O17   O     O_R   0.680900 0.502040 0.551870 -0.497363
O18   O     O_R   0.481990 0.666040 0.546870 -0.433696
O19   O     O_R   0.325370 0.678160 0.544080 -0.507925
O20   O     O_3   0.840513 0.469247 0.171522 -0.635643
O21   O     O_3   0.877691 0.131422 0.067358 -0.667775
O22   O     O_3   0.826267 0.148513 0.147830 -0.629461
O23   O     O_R   0.495910 0.323070 0.537100 -0.425876
O24   O     O_3   0.186974 0.814978 0.408424 -0.630391
O25   O     O_3   0.529449 0.764221 0.331830 -0.643615
O26   O     O_3   0.517576 0.194756 0.586796 -0.638883
O27   O     O_3   0.509377 0.238841 0.849325 -0.665360
O28   O     O_3   0.834485 0.469833 0.899875 -0.663173
O29   O     O_3   0.518419 0.812612 0.692030 -0.677242
O30   O     O_3   0.532727 0.769051 0.605181 -0.676615
O31   O     O_3   0.189553 0.816016 0.796652 -0.641605
O32   O     O_3   0.201916 0.525347 0.394462 -0.662934
O33   O     O_3   0.186656 0.524075 0.309343 -0.632157
O34   O     O_R   0.663920 0.359620 0.542290 -0.467225
O35   O     O_3   0.500010 0.500010 0.500010 -0.288153
O36   O     O_R   0.170070 0.978950 0.027680 -0.464355
O37   O     O_R   0.001760 0.175230 0.026640 -0.472815
O38   O     O_R   0.984760 0.333570 0.037150 -0.513792
O39   O     O_R   0.183410 0.309240 0.041890 -0.500788

loop_
_geom_bond_atom_site_label_1
_geom_bond_atom_site_label_2
_ccdc_geom_bond_type
C66   C68   A    
C63   C65   A    
C44   H35   S    
C31   N2    A    
C22   C29   A    
C27   C29   A    
C18   C21   A    
C41   C42   A    
C7    H15   S    
C5    C56   A    
C29   H31   S    
C35   C36   A    
C52   O34   A    
C4    O15   A    
C5    C67   A    
C81   C82   A    
H20   O25   S    
Cr5   O38   S    
C7    C8    A    
C39   C41   A    
C53   C54   A    
C33   I6    S    
Cr6   O11   S    
C12   C23   A    
C26   C27   A    
C14   N8    A    
Cr4   O5    S    
C59   I3    S    
C24   O24   S    
C36   C37   A    
Cr3   O15   S    
C50   H33   S    
C78   I5    S    
C94   O7    A    
C21   C91   S    
Cr2   O12   S    
Cr1   O17   S    
C32   I9    S    
C35   I10   S    
Cr1   O4    S    
C58   H7    S    
C15   O20   S    
C51   H4    S    
C34   I2    S    
C42   H34   S    
C18   C19   A    
C73   C74   A    
H21   O26   S    
H24   O28   S    
C61   H6    S    
C63   I12   S    
C3    C12   S    
C75   I4    S    
H19   O24   S    
Cr5   O11   S    
C30   N3    A    
C66   C72   A    
C63   C69   A    
C45   C56   A    
C16   O16   A    
C8    C9    A    
Cr1   O1    S    
C8    H30   S    
C45   I7    S    
Cr5   O7    S    
C70   C71   T    
C45   C89   A    
C43   C48   S    
C76   C88   A    
C13   N10   A    
C1    C22   S    
Cr2   O35   S    
C91   O37   A    
C92   O2    A    
H16   O20   S    
C48   N6    A    
C31   N12   A    
C93   O3    A    
C59   C60   A    
C78   C89   A    
C79   O29   S    
C80   O30   S    
C88   O33   S    
C61   C62   A    
C67   C78   A    
C28   C73   S    
H22   O27   S    
C44   C46   A    
N11   N12   A    
C77   C79   A    
C16   O1    A    
Cr6   O10   S    
C15   C20   A    
C74   C75   A    
C12   C88   A    
N1    N8    A    
Cr1   O35   S    
C57   C62   A    
C35   C38   A    
C84   C85   A    
C13   N1    A    
Cr3   O16   S    
C55   C95   S    
C68   H8    S    
C94   O6    A    
C6    C11   A    
C86   C87   T    
C68   C69   A    
Cr1   O18   S    
C27   O25   S    
C40   O23   A    
C60   C71   S    
C25   C26   A    
C85   C86   S    
C74   H11   S    
Cr3   O34   S    
C17   C21   A    
C30   C37   S    
C60   C61   A    
H26   O30   S    
N6    N7    A    
C2    C89   S    
C9    C14   S    
C83   H13   S    
Cr2   O14   S    
H27   O31   S    
N9    N10   A    
C81   H10   S    
C84   O31   S    
C23   C34   A    
Cr3   O35   S    
C34   C64   A    
C64   C76   A    
C96   O5    A    
Cr5   O8    S    
H17   O21   S    
C32   C37   A    
C24   C25   A    
C18   O21   S    
C28   O18   A    
N4    N5    A    
C76   O32   S    
C47   C54   S    
C91   O38   A    
C67   H14   S    
C48   N5    A    
C47   N7    A    
Cr6   O3    S    
C39   C46   A    
C43   C44   A    
C96   O10   A    
C22   C24   A    
C83   C84   A    
C42   C43   A    
C52   C57   S    
C11   H12   S    
Cr3   O23   S    
C9    C10   A    
Cr6   O9    S    
C15   C17   A    
C83   C90   A    
C1    O13   A    
C62   I13   S    
C13   C20   S    
H29   O33   S    
C50   C55   A    
C56   H1    S    
H28   O32   S    
C36   H32   S    
C19   O22   S    
C49   H3    S    
C90   C96   S    
C6    C7    A    
C47   N4    A    
C65   C72   A    
C4    C64   S    
C33   C38   A    
C82   C90   A    
C14   N9    A    
Cr4   O6    S    
C46   O26   S    
C32   C33   A    
C19   C20   A    
C2    C3    T    
C58   C59   A    
C52   O17   A    
C72   C94   S    
Cr5   O39   S    
C82   H9    S    
C40   O12   A    
Cr2   O13   S    
C17   H23   S    
C57   C58   A    
C41   I11   S    
C95   O9    A    
C1    O4    A    
Cr2   O19   S    
C28   O19   A    
C66   O28   S    
C38   C93   S    
C73   C80   A    
C93   O36   A    
C51   C55   A    
C23   H2    S    
C69   C70   S    
C95   O8    A    
H25   O29   S    
C5    C92   S    
C10   C11   A    
C6    C16   S    
C79   C80   A    
C39   C40   S    
Cr4   O37   S    
C26   C31   S    
N2    N3    A    
C77   C87   S    
Cr6   O2    S    
C49   C50   A    
C4    O14   A    
C75   C77   A    
Cr4   O11   S    
H18   O22   S    
C25   I8    S    
C10   I1    S    
C30   N11   A    
C51   C53   A    
C53   O27   S    
C65   H5    S    
C81   C85   A    
C92   O39   A    
C49   C54   A    
Cr4   O36   S    
