data_mof_unit_7925.cif
_audit_creation_date              2012-12-11T16:50:44-0500
_audit_creation_method            fapswitch 2.2
_symmetry_space_group_name_H-M    P1
_symmetry_Int_Tables_number       1
_space_group_crystal_system       triclinic
_cell_length_a                    6.928303
_cell_length_b                    28.81903
_cell_length_c                    32.161347
_cell_angle_alpha                 100.739812
_cell_angle_beta                  89.758562
_cell_angle_gamma                 90.382838
_cell_volume                      6308.90620947

loop_
_atom_site_label
_atom_site_type_symbol
_atom_type_description
_atom_site_fract_x
_atom_site_fract_y
_atom_site_fract_z
_atom_type_partial_charge
O1    O     O_R   0.494350 0.453170 0.452520 -0.542379
O2    O     O_R   0.820980 0.455850 0.538220 -0.505478
O3    O     O_R   0.994300 0.546830 0.547480 -0.536668
C1    C     C_R   0.651953 0.445964 0.551997 0.752684
O4    O     O_R   0.823860 0.447590 0.452270 -0.546460
O5    O     O_R   0.997200 0.538510 0.460920 -0.540071
C2    C     C_R   0.654665 0.434777 0.436597 0.681118
O6    O     O_R   0.491440 0.461490 0.539080 -0.542603
O7    O     O_3   0.661790 0.529840 0.502940 -0.373340
V1    V     V_3+5 0.935470 0.494460 0.499450 1.459679
O8    O     O_R   0.327090 0.544150 0.461780 -0.542852
C3    C     C_R   0.158779 0.554137 0.448199 0.718658
O9    O     O_R   0.324210 0.552410 0.547730 -0.544510
C4    C     C_R   0.155064 0.565175 0.563465 0.711021
V2    V     V_3+5 0.435840 0.505540 0.500550 1.422334
O10   O     O_3   0.159650 0.470160 0.497060 -0.362041
C5    C     C_R   0.217838 0.888853 0.873143 0.419417
C6    C     C_R   0.225110 0.851730 0.838035 -0.218689
H1    H     H_    0.358594 0.845856 0.820213 0.123366
C7    C     C_R   0.062304 0.823578 0.825136 0.032229
C8    C     C_R   0.890386 0.832993 0.848463 -0.140935
H2    H     H_    0.762272 0.811810 0.839517 0.122683
C9    C     C_R   0.882913 0.869075 0.884294 -0.210789
H3    H     H_    0.748698 0.874647 0.901832 0.187144
C10   C     C_R   0.046328 0.897229 0.897588 -0.157593
C11   C     C_R   0.920716 0.776581 0.758039 -0.146603
H4    H     H_    0.792209 0.798139 0.762733 0.111164
C12   C     C_R   0.934582 0.741303 0.721732 -0.145692
H5    H     H_    0.816024 0.736814 0.699501 0.109584
C13   C     C_R   0.100870 0.713079 0.713753 0.083792
C14   C     C_R   0.252403 0.721120 0.743282 -0.147820
H6    H     H_    0.380968 0.699598 0.738836 0.112480
C15   C     C_R   0.238906 0.756539 0.779427 -0.143903
H7    H     H_    0.357876 0.761402 0.801578 0.112439
C16   C     C_R   0.073226 0.784867 0.787236 0.107489
C17   C     C_R   0.293751 0.664895 0.654056 -0.129604
H8    H     H_    0.422772 0.684675 0.665182 0.100541
C18   C     C_R   0.307250 0.629241 0.617969 -0.155144
H9    H     H_    0.446416 0.622240 0.602711 0.121137
C19   C     C_R   0.142865 0.603303 0.601664 -0.056715
C20   C     C_R   0.965035 0.613860 0.622529 -0.141659
H10   H     H_    0.835371 0.594448 0.611193 0.123450
C21   C     C_R   0.951832 0.649191 0.658701 -0.135761
H11   H     H_    0.813051 0.655425 0.674261 0.103175
C22   C     C_R   0.115770 0.675341 0.675017 0.095128
C23   C     C_R   0.144064 0.656446 0.282207 0.552591
N1    N     N_R   0.112785 0.674775 0.324233 -0.547103
C24   C     C_R   0.071136 0.721793 0.337273 0.609132
C25   C     C_R   0.059529 0.752201 0.307689 -0.066775
C26   C     C_R   0.092218 0.733843 0.264528 -0.023801
C27   C     C_R   0.135019 0.685599 0.251585 -0.034577
C28   C     C_R   0.015200 0.800343 0.320176 -0.141519
C29   C     C_R   0.004114 0.829821 0.290277 -0.130609
C30   C     C_R   0.037913 0.811973 0.247120 -0.032293
C31   C     C_R   0.082487 0.763815 0.234243 -0.010170
C32   C     C_R   0.117606 0.745573 0.191148 -0.030441
C33   C     C_R   0.160895 0.697372 0.178635 -0.141103
C34   C     C_R   0.169105 0.667758 0.208449 -0.138857
C35   C     C_R   0.028995 0.841107 0.216446 0.575567
N2    N     N_R   0.064453 0.822931 0.174565 -0.560589
C36   C     C_R   0.108318 0.776071 0.161623 0.571950
O11   O     O_2   0.186683 0.610287 0.270092 -0.526437
O12   O     O_2   0.039329 0.739046 0.378659 -0.502909
H12   H     H_    0.988563 0.815420 0.353112 0.175425
H13   H     H_    0.969462 0.866687 0.301137 0.174358
O13   O     O_2   0.986854 0.887302 0.228482 -0.514280
O14   O     O_2   0.141568 0.758904 0.120277 -0.518812
H14   H     H_    0.188443 0.682321 0.145729 0.172290
H15   H     H_    0.202784 0.630840 0.197558 0.171308
C37   C     C_R   0.878567 0.870818 0.132501 -0.084491
H16   H     H_    0.746474 0.861199 0.146980 0.118271
C38   C     C_R   0.870372 0.900383 0.102507 -0.184556
H17   H     H_    0.731042 0.913150 0.094662 0.129198
C39   C     C_R   0.040075 0.913607 0.083244 -0.058978
C40   C     C_R   0.217904 0.896194 0.094719 -0.191380
H18   H     H_    0.351463 0.905492 0.080613 0.130421
C41   C     C_R   0.225576 0.866362 0.124488 -0.084779
H19   H     H_    0.363759 0.853382 0.132808 0.116501
C42   C     C_R   0.056127 0.853538 0.143700 0.381232
C43   C     C_R   0.276555 0.650807 0.385521 0.483471
C44   C     C_R   0.287065 0.621347 0.415746 -0.274714
H20   H     H_    0.401194 0.627121 0.439094 0.150192
C45   C     C_R   0.149612 0.585286 0.416268 -0.105161
C46   C     C_R   0.002536 0.578863 0.385710 -0.199350
H21   H     H_    0.895747 0.551120 0.385097 0.137636
C47   C     C_R   0.993484 0.607555 0.355137 -0.192151
H22   H     H_    0.880058 0.601617 0.331658 0.141202
C48   C     C_R   0.127352 0.644314 0.355180 0.287216
C49   C     C_R   0.627390 0.220691 0.835996 0.572353
N3    N     N_R   0.570637 0.174480 0.823926 -0.557440
C50   C     C_R   0.516294 0.156996 0.783011 0.592580
C51   C     C_R   0.516987 0.186335 0.752491 -0.108971
C52   C     C_R   0.574137 0.233837 0.764390 -0.018066
C53   C     C_R   0.630171 0.251257 0.806533 -0.010741
C54   C     C_R   0.458803 0.169381 0.710672 -0.130082
C55   C     C_R   0.454683 0.198939 0.680753 0.378683
C56   C     C_R   0.521350 0.246492 0.691772 -0.139118
C57   C     C_R   0.576311 0.263935 0.734139 -0.056485
C58   C     C_R   0.634547 0.311457 0.746433 -0.007025
C59   C     C_R   0.688054 0.328527 0.788669 -0.142389
C60   C     C_R   0.686402 0.298782 0.818305 -0.145055
C61   C     C_R   0.541723 0.276815 0.661919 0.587842
N4    N     N_R   0.595426 0.323240 0.674638 -0.548337
C62   C     C_R   0.638575 0.340908 0.716173 0.574671
O15   O     O_2   0.678972 0.237199 0.876483 -0.521665
O16   O     O_2   0.462398 0.111310 0.771814 -0.523454
H23   H     H_    0.410076 0.133164 0.701154 0.192385
O17   O     O_2   0.515730 0.259798 0.620338 -0.501617
O18   O     O_2   0.685523 0.386960 0.728240 -0.523154
H24   H     H_    0.732970 0.364915 0.798943 0.172009
H25   H     H_    0.729564 0.313186 0.850474 0.172008
C63   C     C_R   0.786659 0.376135 0.637720 -0.173474
H26   H     H_    0.910595 0.369889 0.656311 0.123710
C64   C     C_R   0.803252 0.406711 0.608309 0.324124
C65   C     C_R   0.641373 0.414085 0.583588 -0.090777
C66   C     C_R   0.466212 0.391143 0.589639 -0.274389
H27   H     H_    0.340228 0.395922 0.571121 0.179312
C67   C     C_R   0.450960 0.361587 0.619424 -0.101006
H28   H     H_    0.313827 0.344815 0.623709 0.134981
C68   C     C_R   0.611013 0.353740 0.643682 0.346070
C69   C     C_R   0.385656 0.128049 0.867780 -0.088667
H29   H     H_    0.252979 0.138202 0.854314 0.119078
C70   C     C_R   0.377729 0.099104 0.898160 -0.208343
H30   H     H_    0.237880 0.087221 0.907253 0.123728
C71   C     C_R   0.548076 0.085500 0.916309 -0.058015
C72   C     C_R   0.726575 0.101516 0.903102 -0.208771
H31   H     H_    0.860506 0.091632 0.916231 0.127326
C73   C     C_R   0.734082 0.130681 0.872803 -0.086272
H32   H     H_    0.872585 0.142729 0.863101 0.118630
C74   C     C_R   0.563650 0.144137 0.854935 0.378753
C75   C     C_R   0.723923 0.114927 0.124700 0.343677
C76   C     C_R   0.727237 0.149893 0.161283 -0.145095
H33   H     H_    0.860735 0.156237 0.178917 0.127744
C77   C     C_R   0.562916 0.176684 0.175005 0.020018
C78   C     C_R   0.391351 0.166838 0.151803 -0.129435
H34   H     H_    0.262314 0.187148 0.161275 0.115588
C79   C     C_R   0.385126 0.131261 0.115574 -0.180162
H35   H     H_    0.251022 0.125105 0.098353 0.152555
C80   C     C_R   0.549876 0.104474 0.101348 -0.143104
C81   C     C_R   0.421126 0.222345 0.242678 -0.137327
H36   H     H_    0.293461 0.200115 0.238156 0.117500
C82   C     C_R   0.434471 0.257551 0.279057 -0.147137
H37   H     H_    0.316424 0.261362 0.301572 0.112116
C83   C     C_R   0.599731 0.286626 0.286718 0.082761
C84   C     C_R   0.750595 0.279609 0.256835 -0.145817
H38   H     H_    0.878175 0.301862 0.261054 0.110876
C85   C     C_R   0.737572 0.244324 0.220622 -0.147598
H39   H     H_    0.855872 0.240326 0.198148 0.107471
C86   C     C_R   0.573142 0.215066 0.213134 0.102356
C87   C     C_R   0.792475 0.335227 0.346110 -0.131332
H40   H     H_    0.921411 0.315800 0.334786 0.101706
C88   C     C_R   0.806199 0.370981 0.382088 -0.156950
H41   H     H_    0.945477 0.378414 0.397103 0.121716
C89   C     C_R   0.641944 0.396511 0.398555 -0.052010
C90   C     C_R   0.463895 0.385381 0.378036 -0.150603
H42   H     H_    0.334312 0.404444 0.389550 0.120846
C91   C     C_R   0.450449 0.349909 0.341977 -0.137317
H43   H     H_    0.311620 0.343186 0.326633 0.101651
C92   C     C_R   0.614396 0.324269 0.325457 0.096173
O19   O     O_R   0.699170 0.038480 0.960880 -0.546291
O20   O     O_R   0.366800 0.052460 0.047690 -0.540492
O21   O     O_R   0.193520 0.961530 0.039110 -0.538253
C93   C     C_R   0.536589 0.065583 0.063338 0.715602
O22   O     O_R   0.369630 0.044100 0.961740 -0.544914
O23   O     O_R   0.196370 0.953120 0.952550 -0.509844
C94   C     C_R   0.538758 0.054204 0.948204 0.698682
O24   O     O_R   0.696320 0.046890 0.047450 -0.531196
O25   O     O_3   0.528890 0.970170 0.997080 -0.357087
V3    V     V_3+5 0.255190 0.005530 0.000540 1.445727
O26   O     O_R   0.866460 0.947530 0.952310 -0.543522
C95   C     C_R   0.035563 0.935130 0.936212 0.709533
O27   O     O_R   0.863630 0.955880 0.038270 -0.539752
C96   C     C_R   0.031932 0.945696 0.051816 0.728739
V4    V     V_3+5 0.754830 0.994440 0.999470 1.441009
O28   O     O_3   0.031000 0.029830 0.002920 -0.378039
O29   O     O_3   0.382794 0.915590 0.883825 -0.552817
C97   C     C_3   0.393000 0.951478 0.859259 0.094613
H44   H     H_    0.311292 0.982812 0.875464 0.121075
H45   H     H_    0.334284 0.940404 0.826596 0.113402
C98   C     C_3   0.603012 0.965605 0.854873 -0.702801
H46   H     H_    0.683752 0.935668 0.836026 0.217431
H47   H     H_    0.611796 0.996324 0.838591 0.194281
H48   H     H_    0.670702 0.975317 0.886486 0.224010
O30   O     O_3   0.407860 0.687362 0.386927 -0.533803
C99   C     C_3   0.555283 0.673835 0.356591 0.089200
H49   H     H_    0.524580 0.640814 0.333142 0.105808
H50   H     H_    0.689078 0.668158 0.373700 0.158122
C100  C     C_3   0.592174 0.713446 0.332125 -0.615610
H51   H     H_    0.645709 0.745486 0.353762 0.241878
H52   H     H_    0.700392 0.701872 0.306887 0.161677
H53   H     H_    0.458458 0.722368 0.316761 0.207232
O31   O     O_3   0.379959 0.180170 0.641597 -0.601321
H54   H     H_    0.288281 0.203570 0.634192 0.328966
O32   O     O_3   0.974315 0.430330 0.604114 -0.641614
H55   H     H_    0.069173 0.422641 0.624776 0.284466
O33   O     O_3   0.892685 0.091144 0.113262 -0.640807
H56   H     H_    0.927544 0.097879 0.085062 0.285384

loop_
_geom_bond_atom_site_label_1
_geom_bond_atom_site_label_2
_ccdc_geom_bond_type
O23   C95   A    
C31   C32   A    
N2    C42   S    
C59   H24   S    
C52   C53   A    
C90   C91   A    
C54   C55   A    
C20   H10   S    
C13   C22   S    
O2    C1    A    
C75   O33   S    
C69   C74   A    
C1    O6    A    
C73   H32   S    
C63   C64   A    
C84   H38   S    
C33   C34   A    
C70   H30   S    
O21   C96   A    
C41   H19   S    
C32   C33   A    
O25   V4    S    
C79   C80   A    
C11   H4    S    
C72   H31   S    
C23   O11   S    
C100  H53   S    
C12   H5    S    
C85   C86   A    
C46   C47   A    
C35   O13   S    
O5    C3    A    
C62   O18   S    
C47   C48   A    
C99   H50   S    
O26   C95   A    
V2    O10   S    
C57   C58   A    
O30   C99   S    
C100  H52   S    
C6    H1    S    
C23   N1    A    
C49   C53   A    
V4    O28   S    
C59   C60   A    
C1    C65   S    
C44   C45   A    
C67   H28   S    
C7    C16   S    
O8    V2    S    
C91   H43   S    
C85   H39   S    
C53   C60   A    
C98   H47   S    
C76   H33   S    
C97   H45   S    
C9    H3    S    
C14   C15   A    
C61   O17   S    
C37   H16   S    
O1    V2    S    
O19   C94   A    
C29   H13   S    
O7    V1    S    
C6    C7    A    
C56   C61   A    
C5    O29   S    
C38   H17   S    
O20   V3    S    
C10   C95   S    
C43   O30   S    
O32   H55   S    
C35   N2    A    
C91   C92   A    
O9    C4    A    
C20   C21   A    
C50   O16   S    
O22   V3    S    
C63   H26   S    
O20   C93   A    
O27   V4    S    
C56   C57   A    
C30   C35   A    
C41   C42   A    
C8    C9    A    
O23   V3    S    
C18   H9    S    
C87   C92   A    
C84   C85   A    
C78   H34   S    
O21   V3    S    
C46   H21   S    
C39   C96   S    
C38   C39   A    
C28   H12   S    
C50   C51   A    
O4    C2    A    
C75   C80   A    
C47   H22   S    
C43   C44   A    
C24   O12   S    
C26   C27   A    
C29   C30   A    
C77   C86   S    
C4    C19   S    
C23   C27   A    
C51   C54   A    
C44   H20   S    
C3    C45   S    
C100  H51   S    
C93   O24   A    
C40   H18   S    
C40   C41   A    
C36   O14   S    
N1    C24   A    
C97   C98   S    
C55   C56   A    
C7    C8    A    
C5    C6    A    
V3    O28   S    
C17   C22   A    
C27   C34   A    
C81   H36   S    
C83   C92   S    
C21   C22   A    
C89   C90   A    
C69   H29   S    
O3    C4    A    
C54   H23   S    
C66   C67   A    
O24   V4    S    
O25   V3    S    
C88   C89   A    
C97   H44   S    
O6    V2    S    
O9    V2    S    
C21   H11   S    
C71   C72   A    
C87   C88   A    
C45   C46   A    
C33   H14   S    
N3    C50   A    
C75   C76   A    
O2    V1    S    
C39   C40   A    
C90   H42   S    
C28   C29   A    
C63   C68   A    
O26   V4    S    
C78   C79   A    
C30   C31   A    
C17   H8    S    
C72   C73   A    
C64   O32   S    
C37   C42   A    
O1    C2    A    
O19   V4    S    
C14   H6    S    
C25   C28   A    
C81   C82   A    
O33   H56   S    
C99   C100  S    
C73   C74   A    
O5    V1    S    
C37   C38   A    
O8    C3    A    
C98   H48   S    
C34   H15   S    
C64   C65   A    
C77   C78   A    
C60   H25   S    
C79   H35   S    
C11   C12   A    
C26   C31   A    
C87   H40   S    
C58   C59   A    
C83   C84   A    
C5    C10   A    
O31   H54   S    
C55   O31   S    
O22   C94   A    
C71   C94   S    
O7    V2    S    
C12   C13   A    
C43   C48   A    
O3    V1    S    
V1    O10   S    
N1    C48   S    
C17   C18   A    
C18   C19   A    
C99   H49   S    
C13   C14   A    
C2    C89   S    
C24   C25   A    
C81   C86   A    
C80   C93   S    
C51   C52   A    
C15   C16   A    
N4    C68   S    
C15   H7    S    
C66   H27   S    
C58   C62   A    
C82   C83   A    
C9    C10   A    
C61   N4    A    
C67   C68   A    
C69   C70   A    
C70   C71   A    
O29   C97   S    
O27   C96   A    
N3    C74   S    
C11   C16   A    
O4    V1    S    
C88   H41   S    
C76   C77   A    
C25   C26   A    
C49   O15   S    
N4    C62   A    
C82   H37   S    
C32   C36   A    
N2    C36   A    
C19   C20   A    
C49   N3    A    
C8    H2    S    
C52   C57   A    
C98   H46   S    
C65   C66   A    
