data_mof_unit_64363.cif
_audit_creation_date              2012-12-10T21:01:40-0500
_audit_creation_method            fapswitch 2.2
_symmetry_space_group_name_H-M    P1
_symmetry_Int_Tables_number       1
_space_group_crystal_system       triclinic
_cell_length_a                    15.737868
_cell_length_b                    15.852641
_cell_length_c                    15.092623
_cell_angle_alpha                 89.89278
_cell_angle_beta                  90.021952
_cell_angle_gamma                 89.997187
_cell_volume                      3765.40291176

loop_
_atom_site_label
_atom_site_type_symbol
_atom_type_description
_atom_site_fract_x
_atom_site_fract_y
_atom_site_fract_z
_atom_type_partial_charge
C1    C     C_R   0.500032 0.338921 0.500056 0.901932
C2    C     C_R   0.499968 0.661079 0.499944 0.901931
C3    C     C_R   0.499967 0.913052 0.500963 0.057379
C4    C     C_R   0.500033 0.086948 0.499037 0.057379
C5    C     C_R   0.499674 0.955667 0.419948 -0.238788
C6    C     C_R   0.500326 0.044332 0.580052 -0.238788
C7    C     C_1   0.499953 0.824228 0.500263 0.004668
C8    C     C_1   0.500047 0.175772 0.499737 0.004667
C9    C     C_1   0.500045 0.250582 0.500133 -0.145917
C10   C     C_1   0.499955 0.749418 0.499867 -0.145917
C11   C     C_R   0.498547 0.425073 0.951727 -0.198203
C12   C     C_R   0.501453 0.574927 0.048273 -0.198203
C13   C     C_R   0.500053 0.501902 0.904955 -0.148258
C14   C     C_R   0.499947 0.498098 0.095045 -0.148258
C15   C     C_R   0.501531 0.578095 0.954694 0.481619
C16   C     C_R   0.498469 0.421904 0.045306 0.481619
C17   C     C_1   0.500035 0.500682 0.807035 0.091238
C18   C     C_1   0.499965 0.499317 0.192965 0.091238
C19   C     C_R   0.337438 0.499982 0.499958 0.907671
C20   C     C_R   0.662562 0.500018 0.500041 0.907671
C21   C     C_3   0.971945 0.433220 0.546538 -0.158451
C22   C     C_3   0.028055 0.566780 0.453462 -0.158451
C23   C     C_3   0.028038 0.428353 0.462565 -0.157098
C24   C     C_3   0.971962 0.571647 0.537435 -0.157098
C25   C     C_1   0.248534 0.499972 0.499906 -0.166190
C26   C     C_1   0.751466 0.500028 0.500094 -0.166190
C27   C     C_3   0.028173 0.504848 0.583914 -0.155230
C28   C     C_3   0.971827 0.495152 0.416086 -0.155231
C29   C     C_3   0.082470 0.499980 0.499941 0.192457
C30   C     C_3   0.917530 0.500020 0.500059 0.192457
C31   C     C_1   0.173273 0.499970 0.499901 -0.062691
C32   C     C_1   0.826727 0.500030 0.500099 -0.062691
C33   C     C_R   0.500295 0.956843 0.581495 0.183072
C34   C     C_R   0.499705 0.043157 0.418505 0.183072
H1    H     H_    0.053142 0.369803 0.431970 0.148382
H2    H     H_    0.946858 0.630197 0.568030 0.148382
H3    H     H_    0.946820 0.378652 0.584571 0.147401
H4    H     H_    0.053180 0.621348 0.415429 0.147401
H5    H     H_    0.946606 0.491192 0.347515 0.148516
H6    H     H_    0.053394 0.508808 0.652485 0.148516
H7    H     H_    0.500576 0.079015 0.641884 0.179854
H8    H     H_    0.499424 0.920985 0.358116 0.179854
H9    H     H_    0.497407 0.366339 0.915094 0.187537
H10   H     H_    0.502593 0.633660 0.084906 0.187537
N1    N     N_1   0.499980 0.500020 0.270550 -0.083432
N2    N     N_1   0.500020 0.499980 0.729450 -0.083431
O1    O     O_R   0.500000 0.378020 0.573650 -0.613689
O2    O     O_R   0.500000 0.621980 0.426350 -0.613689
O3    O     O_R   0.500040 0.378020 0.426320 -0.599105
O4    O     O_R   0.499960 0.621980 0.573680 -0.599105
O5    O     O_R   0.376760 0.499990 0.573650 -0.608495
O6    O     O_R   0.623240 0.500010 0.426350 -0.608495
O7    O     O_R   0.376800 0.499990 0.426320 -0.608440
O8    O     O_R   0.623200 0.500010 0.573680 -0.608440
Zn1   Zn    Zn3+2 0.499970 0.500000 0.598370 1.000077
Zn2   Zn    Zn3+2 0.500030 0.500000 0.401630 1.000077
I1    I     I_    0.500747 0.894529 0.706148 -0.302226
I2    I     I_    0.499252 0.105471 0.293851 -0.302226
O9    O     O_3   0.496924 0.342984 0.084322 -0.733854
H11   H     H_    0.497022 0.348533 0.149578 0.348265
O10   O     O_3   0.503076 0.657016 0.915678 -0.733854
H12   H     H_    0.502977 0.651466 0.850422 0.348265

loop_
_geom_bond_atom_site_label_1
_geom_bond_atom_site_label_2
_ccdc_geom_bond_type
N2    Zn1   S    
C25   C31   T    
C7    C10   T    
C5    H8    S    
C6    C33   A    
C11   H9    S    
C26   C32   T    
C22   C29   S    
C27   C29   S    
O3    Zn2   S    
C11   C16   A    
C14   C18   S    
C23   H1    S    
O4    Zn1   S    
O2    Zn2   S    
C12   C15   A    
C13   C17   S    
C27   H6    S    
C4    C8    S    
C24   C27   S    
C5    C34   A    
C19   O7    A    
C28   C30   S    
C15   O10   S    
O1    Zn1   S    
C21   H3    S    
O9    H11   S    
C20   O6    A    
C22   C28   S    
C23   C28   S    
C30   C32   S    
C11   C13   A    
C24   H2    S    
C20   C26   S    
C23   C29   S    
C20   O8    A    
C12   C14   A    
C3    C7    S    
O5    Zn1   S    
C13   C15   A    
C4    C34   A    
C21   C27   S    
O10   H12   S    
C19   C25   S    
C22   C24   S    
C4    C6    A    
C3    C33   A    
C24   C30   S    
C2    C10   S    
C18   N1    T    
C19   O5    A    
C1    C9    S    
C17   N2    T    
C12   H10   S    
C21   C30   S    
O7    Zn2   S    
C34   I2    S    
O8    Zn1   S    
C1    O1    A    
C33   I1    S    
C2    O4    A    
C28   H5    S    
C2    O2    A    
C14   C16   A    
C29   C31   S    
C1    O3    A    
C21   C23   S    
C6    H7    S    
O6    Zn2   S    
N1    Zn2   S    
C8    C9    T    
C3    C5    A    
C16   O9    S    
C22   H4    S    
