data_mof_unit_39894.cif
_audit_creation_date              2012-12-11T21:09:50-0500
_audit_creation_method            fapswitch 2.2
_symmetry_space_group_name_H-M    P1
_symmetry_Int_Tables_number       1
_space_group_crystal_system       triclinic
_cell_length_a                    8.308303
_cell_length_b                    19.066932
_cell_length_c                    26.860259
_cell_angle_alpha                 99.406569
_cell_angle_beta                  92.5822
_cell_angle_gamma                 88.043746
_cell_volume                      4192.01129147

loop_
_atom_site_label
_atom_site_type_symbol
_atom_type_description
_atom_site_fract_x
_atom_site_fract_y
_atom_site_fract_z
_atom_type_partial_charge
Ba1   Ba    Ba6+2 0.160260 0.465850 0.521400 1.669374
Ba2   Ba    Ba6+2 0.649930 0.534160 0.478640 1.707637
C1    C     C_3   0.388170 0.292123 0.704803 -0.348823
C2    C     C_R   0.981700 0.725054 0.512604 0.077273
C3    C     C_R   0.117221 0.809272 0.451044 -0.155277
C4    C     C_3   0.946551 0.286181 0.629366 0.337898
C5    C     C_R   0.184760 0.742002 0.455369 -0.023065
C6    C     C_R   0.678328 0.186982 0.541853 -0.155469
C7    C     C_R   0.609576 0.253882 0.537385 0.005665
C8    C     C_R   0.846044 0.197794 0.472800 -0.154720
C9    C     C_R   0.814371 0.272184 0.481256 0.029892
C10   C     C_R   0.006650 0.843354 0.486624 -0.002613
C11   C     C_R   0.104153 0.697623 0.481095 -0.244082
C12   C     C_3   0.441636 0.304553 0.653674 0.293601
C13   C     C_R   0.788412 0.153272 0.506020 0.011842
C14   C     C_R   0.688747 0.298644 0.511577 -0.232973
C15   C     C_R   0.214126 0.962464 0.462904 -0.080278
C16   C     C_3   0.945059 0.215285 0.648271 -0.361853
C17   C     C_R   0.306076 0.014256 0.447875 -0.078463
C18   C     C_R   0.262264 0.084880 0.461678 -0.068697
C19   C     C_R   0.121026 0.102240 0.486954 -0.080147
C20   C     C_R   0.004348 0.051263 0.489362 0.016185
C21   C     C_R   0.055610 0.977514 0.480119 0.040056
C22   C     C_R   0.844219 0.073910 0.503219 -0.017324
C23   C     C_3   0.481716 0.315177 0.403376 0.304998
C24   C     C_R   0.739809 0.019220 0.512145 0.038297
C25   C     C_R   0.790877 0.945445 0.502955 0.012518
C26   C     C_R   0.951094 0.922741 0.489095 -0.014212
C27   C     C_R   0.581545 0.034571 0.529408 -0.078359
C28   C     C_3   0.870194 0.649532 0.645677 0.447184
C29   C     C_R   0.489702 0.983186 0.544777 -0.077577
C30   C     C_R   0.533147 0.912576 0.531216 -0.058901
C31   C     C_R   0.673920 0.894624 0.505618 -0.075911
C32   C     C_R   0.280405 0.454155 0.171055 0.613192
C33   C     C_R   0.240961 0.580715 0.180107 0.579196
C34   C     C_3   0.519818 0.236170 0.387939 -0.385773
C35   C     C_2   0.078532 0.557923 0.274549 -0.053845
C36   C     C_3   0.062910 0.568737 0.331232 -0.112027
C37   C     C_1   0.279294 0.480335 0.333945 0.005808
C38   C     C_2   0.319877 0.483879 0.287311 -0.047473
C39   C     C_2   0.208797 0.521209 0.253795 0.223621
C40   C     C_3   0.017393 0.645964 0.681373 -0.303621
C41   C     C_R   0.322535 0.514353 0.099351 -0.080623
C42   C     C_R   0.324041 0.451438 0.120529 -0.044665
C43   C     C_R   0.368484 0.386997 0.090734 -0.046125
C44   C     C_R   0.278524 0.579224 0.129284 -0.021581
C45   C     C_3   0.857291 0.722402 0.364974 0.387097
C46   C     C_2   0.143454 0.508151 0.353161 -0.172301
C47   C     C_2   0.659593 0.482318 0.639652 -0.265762
C48   C     C_R   0.471102 0.446554 0.969432 0.020499
C49   C     C_R   0.390312 0.573146 0.974928 0.020136
C50   C     C_R   0.452649 0.509026 0.946984 0.051200
C51   C     C_R   0.543901 0.385485 0.941185 -0.098437
C52   C     C_3   0.043640 0.304352 0.360632 0.681880
C53   C     C_R   0.591112 0.385065 0.892084 -0.059840
C54   C     C_R   0.567000 0.445288 0.868748 -0.029270
C55   C     C_R   0.497118 0.507399 0.896065 -0.078698
C56   C     C_3   0.822821 0.791067 0.343973 -0.367162
C57   C     C_R   0.472067 0.567966 0.872544 -0.041122
C58   C     C_R   0.514702 0.565331 0.822025 0.601142
C59   C     C_R   0.611456 0.444674 0.818587 0.576849
C60   C     C_2   0.773049 0.488160 0.727670 -0.058387
C61   C     C_3   0.811060 0.489900 0.673216 -0.043481
C62   C     C_1   0.525891 0.514013 0.657408 0.058453
C63   C     C_2   0.490106 0.515405 0.705083 -0.093926
C64   C     C_3   0.067122 0.223784 0.356419 -0.343082
C65   C     C_2   0.620252 0.501648 0.743082 0.220066
C66   C     C_R   0.418230 0.447319 0.019309 0.019589
C67   C     C_3   0.368229 0.718280 0.346916 0.339478
C68   C     C_R   0.365404 0.512471 0.048245 0.051340
C69   C     C_R   0.355484 0.575837 0.026680 0.020620
C70   C     C_R   0.415106 0.384894 0.041369 -0.095868
C71   C     C_R   0.275567 0.641713 0.108162 -0.059683
C72   C     C_R   0.363998 0.632492 0.949828 -0.098484
C73   C     C_R   0.403828 0.629808 0.899817 -0.055074
C74   C     C_R   0.312628 0.640160 0.058047 -0.100745
C75   C     C_3   0.331469 0.679017 0.584423 0.328787
C76   C     C_3   0.313972 0.759466 0.598063 -0.361230
C77   C     C_3   0.418024 0.747253 0.300573 -0.345442
C78   C     C_R   0.949547 0.799426 0.520340 -0.151962
Cl1   Cl    Cl    0.024403 0.326792 0.298748 -0.639242
H1    H     H_    0.421853 0.361993 0.651556 0.051114
H2    H     H_    0.416949 0.666305 0.553552 0.101795
H3    H     H_    0.258416 0.306767 0.708862 0.148202
H4    H     H_    0.223508 0.773691 0.627505 0.131114
H5    H     H_    0.274241 0.782958 0.564328 0.053623
H6    H     H_    0.431637 0.782178 0.612511 0.152258
H7    H     H_    0.572194 0.290266 0.650760 -0.011161
H8    H     H_    0.458400 0.325445 0.735273 0.131895
H9    H     H_    0.592840 0.341642 0.419794 0.033176
H10   H     H_    0.388994 0.321729 0.432360 0.048402
H11   H     H_    0.628198 0.228496 0.364735 0.139967
H12   H     H_    0.020759 0.692690 0.712056 0.134535
H13   H     H_    0.542287 0.210694 0.421931 0.053079
H14   H     H_    0.417087 0.209648 0.365718 0.124400
H15   H     H_    0.407831 0.235318 0.708623 0.118597
H16   H     H_    0.833441 0.211625 0.668846 0.122598
H17   H     H_    0.821950 0.730450 0.405002 0.058584
H18   H     H_    0.988970 0.711409 0.363234 -0.096365
H19   H     H_    0.697831 0.810627 0.351472 0.139672
H20   H     H_    0.905793 0.832707 0.362607 0.068543
H21   H     H_    0.840821 0.782255 0.302658 0.123762
H22   H     H_    0.244734 0.739587 0.354844 -0.045777
H23   H     H_    0.019578 0.596909 0.698565 0.069855
H24   H     H_    0.367736 0.659177 0.338296 0.019625
H25   H     H_    0.323176 0.736952 0.270186 0.139898
H26   H     H_    0.532486 0.721313 0.286587 0.153125
H27   H     H_    0.055431 0.286890 0.607026 0.108061
H28   H     H_    0.432622 0.805668 0.309842 0.099244
H29   H     H_    0.874826 0.821664 0.551270 0.089382
H30   H     H_    0.153855 0.833854 0.420121 0.061274
H31   H     H_    0.643395 0.162538 0.573106 0.067408
H32   H     H_    0.921556 0.175900 0.442177 0.056580
H33   H     H_    0.147206 0.643278 0.480307 0.060947
H34   H     H_    0.127441 0.648475 0.660989 0.151530
H35   H     H_    0.647141 0.353308 0.513100 0.061107
H36   H     H_    0.277987 0.913237 0.463782 0.075316
H37   H     H_    0.422392 0.000161 0.431854 0.078442
H38   H     H_    0.343569 0.125850 0.456192 0.091116
H39   H     H_    0.837748 0.291224 0.605047 -0.033941
H40   H     H_    0.102364 0.155984 0.504720 0.129985
H41   H     H_    0.517815 0.083795 0.528427 0.076761
H42   H     H_    0.373616 0.997526 0.560899 0.082513
H43   H     H_    0.451190 0.872348 0.537305 0.102560
H44   H     H_    0.691923 0.840682 0.487804 0.128030
H45   H     H_    0.149107 0.332441 0.379162 0.002946
H46   H     H_    0.432072 0.459202 0.273130 0.114870
H47   H     H_    0.368565 0.337519 0.105657 0.133350
H48   H     H_    0.870411 0.480605 0.754792 0.096882
H49   H     H_    0.646406 0.336800 0.872271 0.123248
H50   H     H_    0.570037 0.337286 0.956402 0.073889
H51   H     H_    0.949486 0.171068 0.615807 0.075165
H52   H     H_    0.444597 0.332891 0.021030 0.074433
H53   H     H_    0.993611 0.584918 0.251716 0.108052
H54   H     H_    0.244336 0.692609 0.130453 0.120455
H55   H     H_    0.308846 0.681725 0.967419 0.073627
H56   H     H_    0.116433 0.209970 0.392738 0.044847
H57   H     H_    0.380812 0.676872 0.882519 0.129991
H58   H     H_    0.367435 0.526691 0.716879 0.110908
H59   H     H_    0.310726 0.690987 0.045449 0.072320
H60   H     H_    0.082977 0.483872 0.380875 0.070116
H61   H     H_    0.660494 0.451651 0.601833 0.060347
H62   H     H_    0.051575 0.209917 0.673990 0.136944
H63   H     H_    0.840035 0.596238 0.624889 -0.027163
H64   H     H_    0.154112 0.203466 0.326935 0.126378
H65   H     H_    0.950708 0.197102 0.346197 0.112524
H66   H     H_    0.213106 0.656884 0.571503 -0.030162
I1    I     I_    0.682973 0.694595 0.694169 -0.403327
N1    N     N_R   0.242049 0.518575 0.200679 -0.429350
N2    N     N_R   0.582611 0.503964 0.795549 -0.429578
O1    O     O_2   0.103290 0.325410 0.465600 -0.500058
O2    O     O_2   0.736796 0.528829 0.325739 -0.443647
O3    O     O_3   0.770106 0.666548 0.336464 -0.587900
O4    O     O_3   0.857760 0.414170 0.470020 -0.452529
O5    O     O_3   0.459840 0.537690 0.560170 -0.488290
O6    O     O_2   0.582520 0.462630 0.379680 -0.416933
O7    O     O_3   0.425004 0.343618 0.360722 -0.605372
O8    O     O_2   0.503488 0.754430 0.486618 -0.510261
O9    O     O_3   0.476125 0.740709 0.387823 -0.582317
O10   O     O_2   0.275386 0.399011 0.188545 -0.545452
O11   O     O_2   0.674596 0.391150 0.795245 -0.600842
O12   O     O_3   0.388154 0.651572 0.627354 -0.604698
O13   O     O_2   0.209179 0.637683 0.206258 -0.629455
O14   O     O_2   0.492932 0.617952 0.801708 -0.564474
O15   O     O_3   0.374170 0.371120 0.556000 -0.471456
O16   O     O_2   0.282388 0.245530 0.518044 -0.505524
O17   O     O_3   0.902533 0.328324 0.385571 -0.618654
O18   O     O_3   0.350911 0.262061 0.615585 -0.603946
O19   O     O_2   0.227790 0.537410 0.620340 -0.485602
O20   O     O_3   0.969630 0.407570 0.582610 -0.489516
O21   O     O_2   0.138685 0.444218 0.668790 -0.493147
O22   O     O_3   0.945369 0.341676 0.670571 -0.596034
O23   O     O_2   0.707020 0.674640 0.534420 -0.456866
O24   O     O_3   0.952550 0.585840 0.530020 -0.494668
O25   O     O_3   0.436140 0.628890 0.444040 -0.465791
O26   O     O_3   0.899566 0.698034 0.613483 -0.631548
O27   O     O_3   0.350480 0.462320 0.439870 -0.495619
O28   O     O_3   0.840680 0.592440 0.417430 -0.474867
P1    P     P_3+3 0.926760 0.336170 0.451740 0.972411
P2    P     P_3+3 0.399470 0.558680 0.614150 1.010156
P3    P     P_3+3 0.967193 0.422415 0.648705 0.964403
P4    P     P_3+3 0.883550 0.663840 0.548300 0.995565
P5    P     P_3+3 0.851789 0.586805 0.352025 1.008670
P6    P     P_3+3 0.406399 0.281389 0.557519 0.920572
P7    P     P_3+3 0.404995 0.436081 0.377150 0.999249
P8    P     P_3+3 0.397046 0.718079 0.442085 0.924201

loop_
_geom_bond_atom_site_label_1
_geom_bond_atom_site_label_2
_ccdc_geom_bond_type
C76   H6    S    
O17   P1    S    
C53   C54   A    
Ba2   O5    S    
C61   P3    S    
C40   H12   S    
C30   H43   S    
C5    P8    S    
C16   H51   S    
C17   C18   A    
C49   C72   A    
C52   O17   S    
O24   P4    S    
C45   H18   S    
C4    O22   S    
C75   C76   S    
C25   C31   A    
O26   P4    S    
C52   H45   S    
C23   H9    S    
C35   C36   S    
C45   H17   S    
C60   C65   D    
C10   C26   S    
C59   O11   D    
O9    P8    S    
C16   H62   S    
C7    C14   A    
O7    P7    S    
C2    C78   A    
C8    C13   A    
C6    H31   S    
Ba2   O23   S    
C69   C74   A    
C62   P2    S    
Ba1   P2    S    
C55   C57   A    
C39   N1    S    
C75   H2    S    
C43   H47   S    
C14   H35   S    
Ba1   O20   S    
O27   P7    S    
C54   C55   A    
Ba1   Ba2   S    
Ba2   P4    S    
C4    H39   S    
C2    C11   A    
Ba1   O5    S    
C64   H64   S    
C58   O14   D    
Ba1   O27   S    
O22   P3    S    
O3    P5    S    
C17   H37   S    
C6    C7    A    
C63   C65   S    
C72   H55   S    
C48   C50   A    
C1    H15   S    
C56   H21   S    
Ba2   O27   S    
C59   N2    Am   
C75   H66   S    
O19   P2    D    
C36   C46   S    
O28   P5    S    
C15   H36   S    
C76   H5    S    
C74   H59   S    
C57   C58   A    
Ba2   O4    S    
C47   C62   D    
O4    P1    S    
C27   H41   S    
C65   N2    S    
C35   C39   D    
C60   H48   S    
C49   C69   A    
O8    P8    D    
C28   O26   S    
C32   N1    Am   
C47   C61   S    
C67   H22   S    
C4    C16   S    
Ba1   O24   S    
C23   H10   S    
C48   C51   A    
C72   C73   A    
C77   H28   S    
C49   C50   A    
C71   H54   S    
C56   H19   S    
C3    C10   A    
C8    C9    A    
C37   C38   D    
C3    C5    A    
C67   H24   S    
C15   C17   A    
C45   O3    S    
O18   P6    S    
O6    P7    D    
C38   H46   S    
C33   O13   D    
C36   P5    S    
C77   H25   S    
C63   H58   S    
C41   C42   A    
C60   C61   S    
C18   H38   S    
Ba2   O25   S    
C9    C14   A    
O1    P1    D    
C29   C30   A    
C15   C21   A    
Ba1   O15   S    
C66   C70   A    
C53   H49   S    
C47   H61   S    
C31   H44   S    
C24   C25   A    
C77   H26   S    
C54   C59   A    
C56   H20   S    
C58   N2    Am   
C21   C26   A    
O2    P5    D    
C8    H32   S    
C28   H63   S    
C68   C69   A    
C1    C12   S    
C51   H50   S    
C76   H4    S    
C13   C22   S    
C16   H16   S    
O25   P8    S    
O23   P4    D    
C41   C68   A    
O20   P3    S    
C23   O7    S    
C71   C74   A    
C20   C22   A    
C67   C77   S    
C9    P1    S    
C12   H1    S    
C51   C53   A    
C12   O18   S    
C57   C73   A    
C25   C26   A    
O5    P2    S    
C75   O12   S    
C32   C42   A    
C38   C39   S    
Ba2   O6    S    
Ba2   O28   S    
C20   C21   A    
O15   P6    S    
O12   P2    S    
O21   P3    D    
O16   P6    D    
C42   C43   A    
C11   H33   S    
C22   C24   A    
C73   H57   S    
C40   H23   S    
C28   I1    S    
C52   C64   S    
C6    C13   A    
C3    H30   S    
C1    H8    S    
C30   C31   A    
C29   H42   S    
C27   C29   A    
C7    P6    S    
C62   C63   D    
C45   C56   S    
Ba1   P1    S    
C34   H14   S    
C34   H11   S    
C70   H52   S    
C64   H56   S    
C10   C78   A    
Ba1   O19   S    
C67   O9    S    
C46   H60   S    
Ba1   O1    S    
C44   C71   A    
C19   H40   S    
Ba1   O4    S    
C41   C44   A    
C64   H65   S    
C50   C55   A    
C23   C34   S    
C12   H7    S    
C37   P7    S    
C34   H13   S    
C40   H34   S    
C5    C11   A    
C18   C19   A    
C24   C27   A    
C66   C68   A    
C78   H29   S    
C1    H3    S    
C4    H27   S    
C35   H53   S    
C28   C40   S    
C33   N1    Am   
C2    P4    S    
C19   C20   A    
C33   C44   A    
C48   C66   A    
C52   Cl1   S    
Ba2   O24   S    
C37   C46   D    
C43   C70   A    
C32   O10   D    
