data_mof_unit_59523.cif
_audit_creation_date              2012-12-11T16:58:18-0500
_audit_creation_method            fapswitch 2.2
_symmetry_space_group_name_H-M    P1
_symmetry_Int_Tables_number       1
_space_group_crystal_system       triclinic
_cell_length_a                    16.755606
_cell_length_b                    7.268653
_cell_length_c                    16.953223
_cell_angle_alpha                 89.999981
_cell_angle_beta                  100.308401
_cell_angle_gamma                 89.99997
_cell_volume                      2031.41722117

loop_
_atom_site_label
_atom_site_type_symbol
_atom_type_description
_atom_site_fract_x
_atom_site_fract_y
_atom_site_fract_z
_atom_type_partial_charge
O1    O     O_R   0.413450 0.494370 0.415710 -0.536576
O2    O     O_R   0.586550 0.994370 0.584290 -0.536576
O3    O     O_R   0.578420 0.819350 0.429360 -0.542020
O4    O     O_R   0.421580 0.319350 0.570640 -0.542020
C1    C     C_R   0.605866 0.655284 0.415142 0.751931
C2    C     C_R   0.394134 0.155284 0.584858 0.751931
O5    O     O_R   0.413570 0.823780 0.406240 -0.539599
O6    O     O_R   0.586430 0.323780 0.593760 -0.539599
O7    O     O_R   0.420530 0.998740 0.561000 -0.529028
O8    O     O_R   0.579470 0.498740 0.439000 -0.529028
C3    C     C_R   0.386781 0.655301 0.383084 0.686979
C4    C     C_R   0.613219 0.155301 0.616916 0.686979
O9    O     O_3   0.502480 0.662320 0.550800 -0.380905
O10   O     O_3   0.497520 0.162320 0.449200 -0.380905
V1    V     V_3+5 0.499540 0.935370 0.490580 1.442475
V2    V     V_3+5 0.500460 0.435370 0.509420 1.442476
C5    C     C_R   0.692298 0.992292 0.738024 0.104910
C6    C     C_R   0.307702 0.492292 0.261976 0.104913
C7    C     C_R   0.678945 0.147647 0.688430 -0.101633
C8    C     C_R   0.321055 0.647648 0.311570 -0.101634
C9    C     C_R   0.729365 0.301012 0.711358 -0.179392
C10   C     C_R   0.270635 0.801013 0.288641 -0.179395
H1    H     H_    0.719944 0.426984 0.677233 0.153973
H2    H     H_    0.280057 0.926985 0.322765 0.153973
C11   C     C_R   0.795902 0.289503 0.775303 -0.183828
C12   C     C_R   0.204099 0.789504 0.224695 -0.183828
H3    H     H_    0.835217 0.407786 0.788344 0.140667
H4    H     H_    0.164783 0.907787 0.211654 0.140668
C13   C     C_R   0.814512 0.123552 0.818058 -0.095323
C14   C     C_R   0.185488 0.623552 0.181941 -0.095325
C15   C     C_R   0.758489 0.980080 0.800068 0.081664
C16   C     C_R   0.241511 0.480080 0.199932 0.081665
C17   C     C_3   0.768713 0.779443 0.786973 -0.440217
C18   C     C_3   0.231287 0.279443 0.213027 -0.440221
C19   C     C_3   0.694996 0.792142 0.719816 -0.402928
C20   C     C_3   0.305005 0.292143 0.280184 -0.402930
H5    H     H_    0.757446 0.695255 0.838579 0.187943
H6    H     H_    0.242555 0.195255 0.161421 0.187944
H7    H     H_    0.826134 0.748328 0.765557 0.184423
H8    H     H_    0.173866 0.248327 0.234443 0.184424
H9    H     H_    0.641190 0.718038 0.733814 0.176803
H10   H     H_    0.358811 0.218039 0.266186 0.176803
H11   H     H_    0.708438 0.764857 0.659171 0.191868
H12   H     H_    0.291562 0.264857 0.340829 0.191869
C21   C     C_R   0.329150 0.144136 0.633945 -0.126432
C22   C     C_R   0.670850 0.644137 0.366055 -0.126429
C23   C     C_R   0.169010 0.125939 0.864347 -0.290231
C24   C     C_R   0.830990 0.625939 0.135653 -0.290236
C25   C     C_R   0.310486 0.174946 0.849949 0.341680
C26   C     C_R   0.689514 0.674948 0.150051 0.341682
C27   C     C_R   0.249968 0.172775 0.898087 0.254308
C28   C     C_R   0.750032 0.672775 0.101913 0.254313
C29   C     C_R   0.148747 0.093832 0.780894 0.318789
C30   C     C_R   0.851253 0.593832 0.219106 0.318790
C31   C     C_R   0.209110 0.107177 0.731913 -0.043593
C32   C     C_R   0.790890 0.607176 0.268087 -0.043592
C33   C     C_R   0.289788 0.151484 0.766452 -0.049753
C34   C     C_R   0.710212 0.651485 0.233548 -0.049760
C35   C     C_R   0.349105 0.167930 0.717241 -0.230965
C36   C     C_R   0.650895 0.667932 0.282759 -0.230970
C37   C     C_R   0.248201 0.104372 0.598224 0.405795
C38   C     C_R   0.751799 0.604371 0.401776 0.405795
C39   C     C_R   0.189867 0.077936 0.648675 -0.228634
C40   C     C_R   0.810133 0.577934 0.351325 -0.228634
H13   H     H_    0.411516 0.198824 0.743437 0.158842
H14   H     H_    0.588484 0.698827 0.256563 0.158841
H15   H     H_    0.128830 0.036096 0.623165 0.144297
H16   H     H_    0.871170 0.536092 0.376835 0.144297
O11   O     O_R   0.920630 0.775410 0.061150 -0.553440
O12   O     O_R   0.079370 0.275410 0.938850 -0.553440
O13   O     O_R   0.086500 0.441450 0.093690 -0.538874
O14   O     O_R   0.913500 0.941450 0.906310 -0.538874
C41   C     C_R   0.114035 0.610309 0.116128 0.671625
C42   C     C_R   0.885965 0.110309 0.883872 0.671623
O15   O     O_R   0.921670 0.445960 0.070740 -0.524589
O16   O     O_R   0.078330 0.945960 0.929260 -0.524590
O17   O     O_R   0.913380 0.271130 0.915780 -0.543671
O18   O     O_R   0.086620 0.771130 0.084220 -0.543671
C43   C     C_R   0.894722 0.614453 0.084786 0.802488
C44   C     C_R   0.105278 0.114453 0.915214 0.802488
O19   O     O_3   0.997500 0.603030 0.949220 -0.381261
O20   O     O_3   0.002500 0.103030 0.050780 -0.381260
V3    V     V_3+5 0.000470 0.329940 0.009420 1.403369
V4    V     V_3+5 0.999530 0.829940 0.990580 1.403369
O21   O     O_3   0.274265 0.195403 0.979922 -0.575443
C45   C     C_3   0.262824 0.378275 0.005250 0.096097
H17   H     H_    0.304311 0.396690 0.063496 0.141980
H18   H     H_    0.200966 0.393813 0.017820 0.147333
C46   C     C_3   0.280750 0.534274 0.949174 -0.377165
H19   H     H_    0.343125 0.520285 0.936486 0.233977
H20   H     H_    0.237056 0.529539 0.891544 0.189528
C47   C     C_3   0.272598 0.721332 0.987190 -0.802644
H21   H     H_    0.209685 0.742226 0.997334 0.247514
H22   H     H_    0.286670 0.828578 0.945674 0.232672
H23   H     H_    0.315276 0.734355 0.045095 0.231959
O22   O     O_3   0.725734 0.695402 0.020078 -0.575440
C48   C     C_3   0.737176 0.878273 0.994749 0.096103
H24   H     H_    0.695688 0.896687 0.936503 0.141982
H25   H     H_    0.799033 0.893807 0.982178 0.147332
C49   C     C_3   0.719252 0.034275 0.050825 -0.377169
H26   H     H_    0.656877 0.020290 0.063514 0.233974
H27   H     H_    0.762948 0.029539 0.108454 0.189528
C50   C     C_3   0.727405 0.221330 0.012808 -0.802641
H28   H     H_    0.790318 0.242220 0.002662 0.247514
H29   H     H_    0.713335 0.328578 0.054323 0.232675
H30   H     H_    0.684726 0.234354 0.954903 0.231959
O23   O     O_3   0.070499 0.041591 0.747579 -0.549258
C51   C     C_3   0.024266 0.200465 0.722432 0.079494
H31   H     H_    0.056963 0.297698 0.688425 0.112697
H32   H     H_    0.008169 0.273277 0.775115 0.127611
C52   C     C_3   0.946402 0.142745 0.667458 -0.728023
H33   H     H_    0.912161 0.045176 0.699153 0.232745
H34   H     H_    0.908085 0.265224 0.649011 0.190660
H35   H     H_    0.960824 0.074781 0.613027 0.212065
O24   O     O_3   0.929501 0.541590 0.252421 -0.549257
C53   C     C_3   0.975734 0.700463 0.277568 0.079490
H36   H     H_    0.943038 0.797693 0.311577 0.112699
H37   H     H_    0.991830 0.773278 0.224885 0.127613
C54   C     C_3   0.053599 0.642743 0.332540 -0.728029
H38   H     H_    0.087839 0.545177 0.300844 0.232746
H39   H     H_    0.091916 0.765221 0.350988 0.190660
H40   H     H_    0.039178 0.574776 0.386970 0.212067
O25   O     O_3   0.230037 0.088293 0.514718 -0.561585
C55   C     C_3   0.147698 0.127410 0.482846 0.084776
H41   H     H_    0.124327 0.246254 0.513611 0.114619
H42   H     H_    0.109986 0.003190 0.487286 0.125462
C56   C     C_3   0.138984 0.178308 0.394908 -0.755646
H43   H     H_    0.164139 0.067720 0.361624 0.219243
H44   H     H_    0.073869 0.197128 0.368640 0.195998
H45   H     H_    0.171390 0.309272 0.388989 0.224818
O26   O     O_3   0.769964 0.588292 0.485282 -0.561585
C57   C     C_3   0.852302 0.627410 0.517154 0.084776
H46   H     H_    0.875673 0.746253 0.486388 0.114619
H47   H     H_    0.890014 0.503191 0.512715 0.125462
C58   C     C_3   0.861016 0.678311 0.605092 -0.755646
H48   H     H_    0.835861 0.567723 0.638376 0.219242
H49   H     H_    0.926131 0.697131 0.631360 0.195998
H50   H     H_    0.828609 0.809275 0.611009 0.224818
O27   O     O_3   0.390237 0.209701 0.884703 -0.550216
C59   C     C_3   0.427086 0.042613 0.914115 0.110742
H51   H     H_    0.411692 0.926806 0.870760 0.107922
H52   H     H_    0.408536 0.006311 0.971919 0.164789
C60   C     C_3   0.518547 0.065963 0.929280 -0.734201
H53   H     H_    0.536589 0.175954 0.974391 0.224428
H54   H     H_    0.547748 0.934705 0.952164 0.208597
H55   H     H_    0.539355 0.103167 0.872713 0.214535
O28   O     O_3   0.609763 0.709703 0.115297 -0.550215
C61   C     C_3   0.572912 0.542611 0.085894 0.110730
H56   H     H_    0.588300 0.426820 0.129256 0.107929
H57   H     H_    0.591465 0.506283 0.028095 0.164783
C62   C     C_3   0.481453 0.565970 0.070719 -0.734221
H58   H     H_    0.463417 0.675936 0.025597 0.224432
H59   H     H_    0.452250 0.434705 0.047848 0.208592
H60   H     H_    0.460642 0.603211 0.127280 0.214543

loop_
_geom_bond_atom_site_label_1
_geom_bond_atom_site_label_2
_ccdc_geom_bond_type
C26   O28   S    
C60   H55   S    
C2    C21   S    
C58   H50   S    
C20   H10   S    
C52   H33   S    
O1    C3    A    
C61   C62   S    
O2    C4    A    
C27   O21   S    
C2    O7    A    
C48   H24   S    
C58   H48   S    
C52   H34   S    
O21   C45   S    
C51   H31   S    
C24   C30   A    
C17   H7    S    
C22   C38   A    
C18   H8    S    
C40   H16   S    
C24   C43   S    
C7    C9    A    
C59   H52   S    
C45   H18   S    
C33   C35   A    
O17   V3    S    
C34   C36   A    
C60   H53   S    
C25   C33   A    
C53   H36   S    
C60   H54   S    
C62   H60   S    
C37   C39   A    
C49   H26   S    
C38   C40   A    
C17   C19   S    
C59   C60   S    
O28   C61   S    
C51   H32   S    
C57   H46   S    
C25   C27   A    
C42   O17   A    
C31   C39   A    
C26   C28   A    
O23   C51   S    
C15   C17   S    
C46   H20   S    
C19   H11   S    
C18   C20   S    
C23   C29   A    
O5    V1    S    
C62   H58   S    
C36   H14   S    
O6    V2    S    
C30   O24   S    
O16   V4    S    
C52   H35   S    
C23   C44   S    
C47   H22   S    
C48   H25   S    
O13   V3    S    
C29   C31   A    
C11   C13   A    
O27   C59   S    
C39   H15   S    
C3    C8    S    
O12   C44   A    
C26   C34   A    
O25   C55   S    
C59   H51   S    
O14   C42   A    
O13   C41   A    
C14   C41   S    
C45   H17   S    
C23   C27   A    
C13   C42   S    
C41   O18   A    
C49   C50   S    
C17   H5    S    
C16   C18   S    
O4    V2    S    
O5    C3    A    
C56   H44   S    
C31   C33   A    
O12   V3    S    
C29   O23   S    
O6    C4    A    
O22   C48   S    
C49   H27   S    
C50   H29   S    
O1    V2    S    
C61   H56   S    
C46   C47   S    
O2    V1    S    
O14   V4    S    
C54   H39   S    
C53   H37   S    
C55   C56   S    
O4    C2    A    
C8    C10   A    
C12   C14   A    
C9    H1    S    
C5    C15   A    
C10   H2    S    
O11   C43   A    
C6    C16   A    
C47   H23   S    
O26   C57   S    
O19   V4    S    
O3    V1    S    
C55   H42   S    
C54   H40   S    
C58   H49   S    
C9    C11   A    
C21   C35   A    
C48   C49   S    
C22   C36   A    
C18   H6    S    
C38   O26   S    
O16   C44   A    
C61   H57   S    
O3    C1    A    
C45   C46   S    
C54   H38   S    
C53   C54   S    
C30   C32   A    
C11   H3    S    
C1    C22   S    
C12   H4    S    
C51   C52   S    
C37   O25   S    
C25   O27   S    
O7    V1    S    
C56   H45   S    
C1    O8    A    
C13   C15   A    
O11   V4    S    
O8    V2    S    
C35   H13   S    
C14   C16   A    
O15   V3    S    
C32   C40   A    
O15   C43   A    
C57   C58   S    
C4    C7    S    
C21   C37   A    
C47   H21   S    
C5    C7    A    
C32   C34   A    
C28   O22   S    
C50   H30   S    
C6    C8    A    
C62   H59   S    
C19   H9    S    
C20   H12   S    
O18   V4    S    
C24   C28   A    
C57   H47   S    
O20   V3    S    
C10   C12   A    
O9    V2    S    
C50   H28   S    
O10   V1    S    
C5    C19   S    
O24   C53   S    
C46   H19   S    
C6    C20   S    
C56   H43   S    
C55   H41   S    
