data_mof_unit_66849.cif
_audit_creation_date              2013-03-05T15:54:33-0500
_audit_creation_method            fapswitch 2.2
_symmetry_space_group_name_H-M    P1
_symmetry_Int_Tables_number       1
_space_group_crystal_system       triclinic
_cell_length_a                    8.442471
_cell_length_b                    15.082616
_cell_length_c                    16.407446
_cell_angle_alpha                 96.497964
_cell_angle_beta                  93.004992
_cell_angle_gamma                 99.275223
_cell_volume                      2043.34677392

loop_
_atom_site_label
_atom_site_type_symbol
_atom_site_description
_atom_site_fract_x
_atom_site_fract_y
_atom_site_fract_z
_atom_type_partial_charge
P1    P     P_3+3 0.987090 0.708160 0.571840 0.495387
O1    O     O_2   0.162600 0.722340 0.548210 -0.390406
O2    O     O_3   0.890740 0.608910 0.545450 -0.348806
O3    O     O_3   0.394140 0.666560 0.400120 -0.341198
O4    O     O_2   0.286853 0.821398 0.448221 -0.437877
O5    O     O_3   0.996299 0.708612 0.679861 -0.542815
O6    O     O_3   0.458892 0.820392 0.316788 -0.512542
H1    H     H_    0.300937 0.912509 0.337814 0.060842
C1    C     C_3   0.370359 0.907126 0.214681 -0.795013
H2    H     H_    0.286845 0.955217 0.204645 0.176245
H3    H     H_    0.490971 0.949078 0.227158 0.194427
P2    P     P_3+3 0.349530 0.428340 0.313070 0.490412
P3    P     P_3+3 0.942074 0.602347 0.248282 0.505830
O7    O     O_2   0.182040 0.455730 0.301660 -0.353007
O8    O     O_3   0.971540 0.620730 0.357730 -0.383877
O9    O     O_2   0.082711 0.557673 0.216559 -0.346132
O10   O     O_3   0.317813 0.308934 0.306726 -0.583643
O11   O     O_3   0.981708 0.704969 0.205391 -0.509799
C2    C     C_3   0.870504 0.763670 0.224672 0.207178
H4    H     H_    0.867475 0.775126 0.292599 0.049798
C3    C     C_3   0.933543 0.856984 0.195189 -0.331618
H5    H     H_    0.045280 0.886029 0.232738 0.107447
C4    C     C_3   0.679787 0.272726 0.274031 0.327617
H6    H     H_    0.608521 0.317137 0.308989 0.094745
C5    C     C_3   0.578860 0.176645 0.251316 -0.736010
H7    H     H_    0.451014 0.183328 0.245167 0.208502
H8    H     H_    0.591801 0.135079 0.301205 0.149698
Ba1   Ba    Ba6+2 0.163640 0.544330 0.462610 1.588923
C6    C     C_3   0.123997 0.771491 0.723205 0.544771
H9    H     H_    0.224109 0.788009 0.683985 0.020926
C7    C     C_3   0.067880 0.862021 0.753750 -0.509075
H10   H     H_    0.975010 0.874552 0.708096 0.190032
H11   H     H_    0.172053 0.918095 0.756521 0.209545
C8    C     C_3   0.170820 0.266238 0.264715 0.356744
H12   H     H_    0.075882 0.304473 0.281340 0.184541
C9    C     C_3   0.125590 0.172633 0.293030 -0.971473
H13   H     H_    0.197134 0.123344 0.264625 0.235871
H14   H     H_    0.996836 0.145436 0.276408 0.302443
H15   H     H_    0.146675 0.177303 0.360692 0.243299
P4    P     P_3+3 0.823210 0.291830 0.428100 0.494669
O12   O     O_2   0.647690 0.277600 0.451760 -0.369052
O13   O     O_3   0.919560 0.391080 0.454480 -0.365677
O14   O     O_3   0.416160 0.333430 0.599820 -0.379462
O15   O     O_3   0.822493 0.267818 0.320017 -0.599742
P5    P     P_3+3 0.858571 0.381295 0.749886 0.483665
O16   O     O_3   0.378690 0.546410 0.598120 -0.406072
O17   O     O_3   0.838760 0.379260 0.642200 -0.329925
O18   O     O_2   0.746563 0.445197 0.785042 -0.389589
O19   O     O_3   0.766425 0.275462 0.774311 -0.502981
Ba2   Ba    Ba6+2 0.646540 0.455660 0.537320 1.616791
P6    P     P_3+3 0.436055 0.785939 0.414963 0.474931
C10   C     C_3   0.328301 0.859507 0.290595 0.354730
H16   H     H_    0.221364 0.805886 0.277151 0.158801
O20   O     O_3   0.431610 0.453580 0.401810 -0.376862
C11   C     C_3   0.552030 0.736301 0.676133 0.372256
H17   H     H_    0.664488 0.712678 0.657841 0.120748
H18   H     H_    0.463422 0.731641 0.622842 0.084953
C12   C     C_3   0.595119 0.835077 0.712107 -0.997623
H19   H     H_    0.661157 0.839207 0.772819 0.291150
H20   H     H_    0.671311 0.873895 0.670694 0.226106
H21   H     H_    0.485113 0.865512 0.720785 0.253937
P7    P     P_3+3 0.455019 0.570840 0.701136 0.468270
O21   O     O_2   0.628260 0.544210 0.698310 -0.330531
O22   O     O_3   0.483534 0.686633 0.736092 -0.559308
C13   C     C_3   0.881135 0.221815 0.795686 0.339763
H22   H     H_    0.003706 0.260650 0.809206 -0.032963
C14   C     C_3   0.838447 0.181769 0.875909 -0.743323
H23   H     H_    0.941517 0.152327 0.899210 0.181097
H24   H     H_    0.822218 0.237894 0.923119 0.201458
P8    P     P_3+3 0.367667 0.217346 0.599827 0.519824
C15   C     C_3   0.356676 0.263767 0.755107 0.445766
H25   H     H_    0.226587 0.265271 0.744821 -0.052115
O23   O     O_2   0.499482 0.177477 0.553933 -0.346262
O24   O     O_3   0.400940 0.193967 0.701161 -0.442221
H26   H     H_    0.426177 0.330377 0.745608 0.112377
C16   C     C_3   0.398378 0.251984 0.844824 -0.663007
H27   H     H_    0.374726 0.311685 0.885153 0.154262
H28   H     H_    0.528315 0.250766 0.854367 0.215453
C17   C     C_R   0.163647 0.171142 0.549431 0.147774
C18   C     C_R   0.096013 0.078231 0.543173 -0.034248
C19   C     C_R   0.954012 0.891646 0.537726 -0.086354
C20   C     C_R   0.114842 0.923557 0.567064 -0.152904
C21   C     C_R   0.184099 0.014218 0.569912 -0.143160
C22   C     C_R   0.882501 0.798347 0.533555 0.170963
H29   H     H_    0.190745 0.879798 0.589359 0.160074
H30   H     H_    0.307964 0.033150 0.594103 0.194389
C23   C     C_R   0.721357 0.771156 0.503438 -0.249617
C24   C     C_R   0.917792 0.205137 0.481305 0.259233
C25   C     C_R   0.845079 0.111863 0.480312 0.013470
C26   C     C_R   0.934494 0.048685 0.511392 0.060727
C27   C     C_R   0.684134 0.079552 0.452212 -0.103931
C28   C     C_R   0.610603 0.990919 0.457166 -0.145450
C29   C     C_R   0.697853 0.926531 0.483325 -0.038744
C30   C     C_R   0.861907 0.955517 0.511094 0.035676
C31   C     C_R   0.628317 0.833392 0.477548 0.152686
C32   C     C_R   0.074219 0.232615 0.518470 -0.456194
H31   H     H_    0.484050 0.973576 0.439208 0.144262
H32   H     H_    0.608814 0.122342 0.428476 0.166711
H33   H     H_    0.129382 0.302907 0.521239 0.183546
C33   C     C_R   0.644944 0.495093 0.256316 -0.480099
C34   C     C_R   0.480884 0.472998 0.235696 0.256744
C35   C     C_R   0.421916 0.476467 0.154996 -0.199165
C36   C     C_R   0.528449 0.500820 0.094021 0.211954
C37   C     C_R   0.697379 0.528346 0.118308 0.043918
C38   C     C_R   0.749340 0.532413 0.202449 0.176835
C39   C     C_R   0.379385 0.510198 0.851748 -0.290133
C40   C     C_R   0.330648 0.505356 0.768682 0.294173
C41   C     C_R   0.273507 0.472321 0.907512 0.171132
N1    N     N_2   0.470158 0.499235 0.010157 -0.064600
N2    N     N_2   0.322493 0.472898 0.992761 -0.058262
C42   C     C_R   0.176888 0.461837 0.739186 -0.446248
H34   H     H_    0.498380 0.545793 0.872383 0.162573
C43   C     C_R   0.066805 0.427536 0.793049 0.190825
C44   C     C_R   0.114758 0.433043 0.877498 -0.323700
H35   H     H_    0.293953 0.456815 0.139490 0.157486
H36   H     H_    0.029741 0.406112 0.919356 0.151072
H37   H     H_    0.693473 0.482051 0.314845 0.136218
H38   H     H_    0.139270 0.460038 0.674851 0.174521
C45   C     C_2   0.617516 0.124349 0.172990 1.157972
O25   O     O_2   0.512891 0.099698 0.116932 -0.544992
O26   O     O_R   0.771516 0.103852 0.164576 -0.763365
H39   H     H_    0.781801 0.068350 0.109371 0.370133
N3    N     N_2   0.191698 0.731203 0.790760 -0.103537
H40   H     H_    0.280153 0.773665 0.828859 0.159620
C46   C     C_3   0.085552 0.667247 0.831257 -0.789928
H41   H     H_    0.154871 0.643996 0.881684 0.227979
H42   H     H_    0.032481 0.607668 0.786926 0.272443
H43   H     H_    0.985907 0.698038 0.857344 0.235472
N4    N     N_2   0.002999 0.863049 0.834149 -0.080537
H44   H     H_    0.083205 0.851865 0.879843 0.203733
C47   C     C_3   0.933891 0.942210 0.860703 -0.721157
H45   H     H_    0.863177 0.929638 0.914641 0.251998
H46   H     H_    0.853275 0.958697 0.811264 0.250327
H47   H     H_    0.030627 0.001045 0.878723 0.263197
C48   C     C_2   0.178070 0.255819 0.172500 1.007254
O27   O     O_2   0.304956 0.275814 0.141433 -0.584901
O28   O     O_R   0.037723 0.221683 0.122426 -0.754933
H48   H     H_    0.054775 0.220492 0.061715 0.348598
C49   C     C_2   0.367300 0.844008 0.136418 1.206449
O29   O     O_2   0.313634 0.763298 0.133150 -0.605756
O30   O     O_R   0.423094 0.879541 0.066186 -0.767687
H49   H     H_    0.414146 0.831650 0.016772 0.318797
N5    N     N_2   0.822874 0.920459 0.208334 -0.088137
H50   H     H_    0.714351 0.903491 0.174022 0.200258
C50   C     C_3   0.813996 0.957754 0.292539 -0.850802
H51   H     H_    0.744412 0.013935 0.294367 0.250191
H52   H     H_    0.935989 0.984940 0.322376 0.245831
H53   H     H_    0.753501 0.904536 0.326633 0.256351
C51   C     C_2   0.889144 0.148789 0.726421 0.972903
O31   O     O_2   0.798299 0.140040 0.664469 -0.561939
O32   O     O_R   0.997031 0.089003 0.734847 -0.830199
H54   H     H_    0.976502 0.035768 0.690166 0.325618
C52   C     C_2   0.690727 0.109430 0.869890 1.106917
O33   O     O_2   0.614254 0.081486 0.804131 -0.580460
O34   O     O_R   0.642982 0.073447 0.941271 -0.759103
H55   H     H_    0.543565 0.024929 0.930644 0.348322
C53   C     C_2   0.306855 0.168551 0.872810 1.169369
O35   O     O_2   0.292493 0.095389 0.830288 -0.581257
O36   O     O_R   0.247914 0.174481 0.950828 -0.786075
H56   H     H_    0.199903 0.113383 0.966678 0.332762
N6    N     N_2   0.657486 0.677338 0.492733 -0.104065
H57   H     H_    0.551043 0.655570 0.517357 0.194090
C54   C     C_3   0.686845 0.629193 0.415483 -0.467463
H58   H     H_    0.580181 0.589166 0.383739 0.213945
H59   H     H_    0.754358 0.574962 0.425504 0.234477
H60   H     H_    0.736744 0.676406 0.372887 0.191725
N7    N     N_2   0.818871 0.553587 0.063122 -0.077444
H61   H     H_    0.928143 0.534284 0.076201 0.197079
C55   C     C_3   0.784297 0.557351 0.976705 -0.731183
H62   H     H_    0.898083 0.579392 0.948363 0.235657
H63   H     H_    0.705898 0.608447 0.968389 0.269577
H64   H     H_    0.731205 0.489122 0.945402 0.236713
C56   C     C_2   0.702132 0.725828 0.187146 0.932624
O37   O     O_2   0.668357 0.724243 0.113555 -0.619072
O38   O     O_R   0.585071 0.691549 0.237467 -0.807661
H65   H     H_    0.478066 0.665841 0.206124 0.364519
C57   C     C_2   0.977356 0.851897 0.106514 1.122953
O39   O     O_2   0.026016 0.921991 0.078047 -0.648529
O40   O     O_R   0.966825 0.768682 0.057613 -0.722760
H66   H     H_    0.002589 0.775498 0.000375 0.304134
C58   C     C_2   0.725230 0.314999 0.197155 0.953739
O41   O     O_2   0.624628 0.311774 0.140129 -0.605079
O42   O     O_R   0.882258 0.358782 0.191299 -0.787756
H67   H     H_    0.898983 0.381396 0.135992 0.311675

loop_
_geom_bond_atom_site_label_1
_geom_bond_atom_site_label_2
_geom_bond_distance
_ccdc_geom_bond_type
C11   H17   1.110467 S    
C24   C32   1.403424 A    
C29   C30   1.417949 A    
C49   O30   1.397231 S    
C55   H62   1.108351 S    
C2    H4    1.110620 S    
C22   C23   1.402496 A    
C13   H22   1.101937 S    
C47   H47   1.106137 S    
C19   C22   1.431565 A    
C50   H51   1.104796 S    
C51   O31   1.222351 D    
C48   O27   1.219105 D    
N7    C55   1.441862 S    
C39   H34   1.077700 S    
C58   O41   1.221566 D    
P1    C22   1.883335 S    
N4    C47   1.445421 S    
Ba1   O16   2.789844 S    
C33   C38   1.381710 A    
C34   C35   1.399540 A    
O19   C13   1.413070 S    
P3    O11   1.762719 S    
P2    Ba1   3.443932 S    
C42   H38   1.082325 S    
C9    H13   1.109302 S    
C2    C3    1.561322 S    
C16   H28   1.103346 S    
O6    C10   1.402012 S    
C8    H12   1.088906 S    
C51   O32   1.393423 S    
C15   C16   1.532147 S    
N3    C46   1.450483 S    
C39   C40   1.393230 A    
C12   H20   1.110277 S    
N5    H50   1.029366 S    
C32   H33   1.081969 S    
N5    C50   1.441998 S    
P1    O1    1.538977 D    
C41   C44   1.413690 A    
C28   C29   1.400610 A    
P7    O22   1.749375 S    
C35   H35   1.081933 S    
C36   C37   1.441275 A    
O3    Ba1   2.778011 S    
Ba1   Ba2   4.638608 S    
C53   O35   1.221824 D    
P7    O21   1.579524 D    
C54   H58   1.072873 S    
C57   O40   1.398410 S    
C23   C31   1.404109 A    
P2    O10   1.767817 S    
P8    O24   1.755918 S    
C46   H43   1.106923 S    
C4    H6    1.103985 S    
C7    H11   1.112720 S    
C7    N4    1.454050 S    
C25   C27   1.402259 A    
C1    H2    1.109075 S    
H1    C10   1.109406 S    
P4    O15   1.768856 S    
C12   H21   1.109056 S    
P5    O17   1.762315 S    
C29   C31   1.423090 A    
C3    H5    1.098228 S    
C13   C51   1.502655 S    
Ba2   O21   2.845249 S    
C55   H63   1.108774 S    
C1    C10   1.536220 S    
C18   C21   1.403840 A    
C5    C45   1.509217 S    
C37   C38   1.418012 A    
N6    C54   1.441493 S    
O2    Ba2   2.824197 S    
C28   H31   1.075285 S    
C26   C30   1.439005 A    
O17   Ba2   2.771526 S    
C45   O26   1.394181 S    
C16   C53   1.498652 S    
C50   H52   1.110900 S    
O3    P6    1.764322 S    
C14   H23   1.108453 S    
N3    H40   1.031932 S    
C54   H60   1.104439 S    
C16   H27   1.107014 S    
C3    N5    1.448705 S    
P3    C38   1.861351 S    
C58   O42   1.395822 S    
C27   C28   1.393351 A    
Ba1   O20   2.985383 S    
O11   C2    1.414585 S    
P7    C40   1.828038 S    
C13   C14   1.544901 S    
C12   H19   1.106124 S    
C56   O37   1.222688 D    
C9    H15   1.107549 S    
C19   C20   1.405480 A    
C4    O15   1.404411 S    
P1    O5    1.769163 S    
P1    O2    1.585515 S    
O42   H67   1.013746 S    
C2    C56   1.514131 S    
C6    H9    1.102710 S    
P1    Ba1   3.464728 S    
O36   H56   1.012928 S    
P3    O8    1.783745 S    
P5    O19   1.758108 S    
O32   H54   1.010327 S    
C11   O22   1.396496 S    
C21   H30   1.080373 S    
P8    O23   1.538875 D    
C42   C43   1.395357 A    
C5    H7    1.100571 S    
Ba2   O20   2.789230 S    
C45   O25   1.223096 D    
C1    H3    1.104658 S    
O26   H39   1.013971 S    
C56   O38   1.393963 S    
O13   Ba2   2.976837 S    
P4    O12   1.539224 D    
C23   N6    1.418365 S    
P2    O7    1.543775 D    
C20   C21   1.392405 A    
O14   P8    1.732652 S    
C11   H18   1.108904 S    
C46   H41   1.109532 S    
C55   H64   1.109612 S    
C17   C18   1.415519 A    
C11   C12   1.517896 S    
C52   O34   1.396963 S    
O10   C8    1.407869 S    
C47   H45   1.110154 S    
O12   Ba2   2.887877 S    
N7    H61   1.030447 S    
C50   H53   1.103398 S    
C10   H16   1.105071 S    
C43   C44   1.412426 A    
P5    O18   1.543055 D    
C48   O28   1.396266 S    
O2    Ba1   2.975974 S    
Ba1   O13   2.823592 S    
C54   H59   1.091705 S    
P8    C17   1.862647 S    
C40   C42   1.392019 A    
C7    H10   1.108964 S    
O16   P7    1.753906 S    
P4    O13   1.585492 S    
C47   H46   1.106963 S    
C15   O24   1.407828 S    
C44   H36   1.082895 S    
C49   O29   1.222666 D    
O14   Ba2   2.777469 S    
C4    C58   1.516112 S    
C5    H8    1.097187 S    
C20   H29   1.070714 S    
O28   H48   1.012481 S    
O16   Ba2   2.984524 S    
C36   N1    1.433141 S    
C14   C52   1.509823 S    
O7    Ba1   2.845135 S    
P4    C24   1.905573 S    
C9    H14   1.106376 S    
N4    H44   1.030177 S    
O6    P6    1.758300 S    
P2    C34   1.842689 S    
C6    C7    1.555170 S    
O38   H65   1.012007 S    
N6    H57   1.025450 S    
O30   H49   1.014010 S    
C37   N7    1.437482 S    
C15   H26   1.110359 S    
C19   C30   1.422929 A    
C1    C49   1.505914 S    
O8    Ba1   2.770897 S    
C39   C41   1.414895 A    
C8    C48   1.508864 S    
P4    Ba2   3.465231 S    
C6    N3    1.456862 S    
C3    C57   1.516530 S    
C33   C34   1.385822 A    
C41   N2    1.436297 S    
C8    C9    1.532342 S    
C4    C5    1.552870 S    
C27   H32   1.065716 S    
C18   C26   1.416661 A    
C35   C36   1.419765 A    
O40   H66   1.012548 S    
P5    C43   1.854999 S    
C17   C32   1.407045 A    
O5    C6    1.415922 S    
C15   H25   1.106642 S    
C24   C25   1.439317 A    
C53   O36   1.396223 S    
C57   O39   1.223307 D    
P3    O9    1.542072 D    
O34   H55   1.013981 S    
C46   H42   1.106975 S    
O4    P6    1.547134 D    
O1    Ba1   2.887301 S    
C33   H37   1.075280 S    
C14   H24   1.111516 S    
C25   C26   1.428070 A    
N1    N2    1.253324 D    
P2    O20   1.558450 S    
P6    C31   1.867027 S    
C52   O33   1.222658 D    
