data_mof_unit_51309.cif
_audit_creation_date              2013-03-05T16:34:12-0500
_audit_creation_method            fapswitch 2.2
_symmetry_space_group_name_H-M    P1
_symmetry_Int_Tables_number       1
_space_group_crystal_system       triclinic
_cell_length_a                    10.924759
_cell_length_b                    10.752275
_cell_length_c                    9.788333
_cell_angle_alpha                 89.122767
_cell_angle_beta                  93.430263
_cell_angle_gamma                 90.539883
_cell_volume                      1147.56023398

loop_
_atom_site_label
_atom_site_type_symbol
_atom_site_description
_atom_site_fract_x
_atom_site_fract_y
_atom_site_fract_z
_atom_type_partial_charge
O1    O     O_R   0.500000 0.319640 0.618810 -0.545988
O2    O     O_R   0.500010 0.319680 0.381230 -0.589538
C1    C     C_R   0.501751 0.263319 0.501016 0.755974
O3    O     O_R   0.319640 0.499990 0.618790 -0.595248
O4    O     O_R   0.319650 0.500030 0.381210 -0.586171
C2    C     C_R   0.263590 0.503189 0.495421 0.780003
Cu1   Cu    Cu3+1 0.499990 0.499980 0.640670 0.976747
Cu2   Cu    Cu3+1 0.500010 0.500020 0.359330 1.021501
O5    O     O_R   0.499990 0.680320 0.618770 -0.582200
O6    O     O_R   0.500000 0.680360 0.381190 -0.577977
O7    O     O_R   0.680350 0.499970 0.618790 -0.573767
O8    O     O_R   0.680360 0.500010 0.381210 -0.472320
C3    C     C_R   0.499393 0.736517 0.498407 0.803257
C4    C     C_R   0.738174 0.496554 0.502252 0.798980
H1    H     H_    0.221128 0.285041 0.911959 0.193627
C5    C     C_R   0.166389 0.445752 0.018741 -0.192760
H2    H     H_    0.177906 0.507467 0.931878 0.156521
C6    C     C_R   0.125129 0.492667 0.140119 0.459678
C7    C     C_R   0.108877 0.409820 0.252558 0.056377
C8    C     C_R   0.138877 0.283923 0.241677 -0.150353
H3    H     H_    0.128242 0.220179 0.327036 0.141487
C9    C     C_R   0.179826 0.239075 0.119447 -0.045523
H4    H     H_    0.200896 0.141483 0.111118 0.190401
C10   C     C_R   0.191484 0.319570 0.007549 -0.168237
C11   C     C_R   0.932000 0.440801 0.393267 -0.110650
H5    H     H_    0.880480 0.382072 0.323374 0.236281
C12   C     C_R   0.874711 0.496397 0.500877 -0.062425
C13   C     C_R   0.949914 0.552392 0.603209 0.034649
C14   C     C_R   0.074943 0.565896 0.591652 -0.245315
H6    H     H_    0.130580 0.606018 0.675848 0.163940
C15   C     C_R   0.130627 0.510868 0.484751 -0.102785
C16   C     C_R   0.058016 0.452916 0.379884 -0.059442
C17   C     C_R   0.894988 0.652009 0.810928 -0.241601
H7    H     H_    0.907679 0.742633 0.763581 0.190057
C18   C     C_R   0.856876 0.643070 0.941988 -0.173302
H8    H     H_    0.839752 0.727952 0.995497 0.217028
C19   C     C_R   0.835255 0.525821 0.000801 0.207907
C20   C     C_R   0.856379 0.415554 0.929399 0.271416
C21   C     C_R   0.901783 0.424568 0.801287 0.323839
C22   C     C_R   0.914510 0.543638 0.740600 -0.051808
C23   C     C_R   0.400103 0.062597 0.525631 -0.065149
C24   C     C_R   0.506775 0.129475 0.501465 -0.108883
C25   C     C_R   0.608915 0.064767 0.454685 0.446410
C26   C     C_R   0.604294 0.934380 0.451497 -0.172420
H9    H     H_    0.684161 0.883548 0.423839 0.175340
C27   C     C_R   0.499787 0.869840 0.491531 -0.116934
C28   C     C_R   0.393921 0.935648 0.512486 0.029194
C29   C     C_3   0.302164 0.919896 0.618006 -0.466698
C30   C     C_3   0.316446 0.058998 0.642274 0.213052
H10   H     H_    0.210313 0.893627 0.571756 0.171822
H11   H     H_    0.335096 0.860017 0.705078 0.217332
H12   H     H_    0.231106 0.113559 0.622169 0.088827
C31   C     C_R   0.521285 0.606551 0.072484 0.340618
N1    N     N_R   0.500790 0.500930 0.147930 -0.174204
C32   C     C_R   0.481948 0.393906 0.073624 0.034685
H13   H     H_    0.465471 0.306873 0.126264 0.167270
C33   C     C_R   0.483895 0.393761 0.927080 -0.046164
H14   H     H_    0.468211 0.307196 0.874731 0.211234
N2    N     N_R   0.500790 0.500890 0.852020 -0.213502
C34   C     C_R   0.521694 0.606506 0.927014 0.218310
C35   C     C_3   0.445729 0.721158 0.916962 -0.467251
C36   C     C_3   0.446916 0.721642 0.071869 -0.467188
H15   H     H_    0.496377 0.801468 0.874082 0.244992
H16   H     H_    0.352907 0.703009 0.868082 0.204234
H17   H     H_    0.499512 0.801220 0.117783 0.228427
H18   H     H_    0.354950 0.705491 0.112116 0.232691
N3    N     N_R   0.784861 0.520200 0.129517 0.093308
O9    O     O_R   0.782669 0.619938 0.203259 -0.389303
O10   O     O_R   0.725223 0.420433 0.162942 -0.353376
N4    N     N_R   0.831954 0.293835 0.984481 0.188878
O11   O     O_R   0.760280 0.217173 0.915239 -0.262059
O12   O     O_R   0.891697 0.254159 0.095178 -0.336909
O13   O     O_3   0.931023 0.315331 0.738083 -0.678387
H19   H     H_    0.994257 0.332257 0.671930 0.326232
O14   O     O_3   0.716044 0.122723 0.418705 -0.681271
H20   H     H_    0.712258 0.212870 0.436428 0.326240
N5    N     N_R   0.378263 0.081311 0.776963 0.121686
O15   O     O_R   0.314343 0.071505 0.884461 -0.407975
O16   O     O_R   0.497403 0.079959 0.793974 -0.331723
O17   O     O_3   0.101339 0.618572 0.143102 -0.740708
H21   H     H_    0.072143 0.640912 0.233082 0.347060

loop_
_geom_bond_atom_site_label_1
_geom_bond_atom_site_label_2
_geom_bond_distance
_ccdc_geom_bond_type
C32   H13   1.080177 S    
C20   N4    1.436580 S    
C1    C24   1.440620 S    
C23   C24   1.393949 A    
C7    C8    1.402915 A    
C25   C26   1.403146 A    
Cu1   Cu2   2.753855 S    
C31   N1    1.369142 A    
Cu1   O7    1.994695 S    
C14   H6    1.086621 S    
C13   C14   1.383419 A    
C18   C19   1.401780 A    
C3    C27   1.434054 S    
O7    C4    1.337758 A    
C33   N2    1.373682 A    
C13   C22   1.422917 S    
C6    C7    1.423626 A    
O13   H19   0.988522 S    
C23   C30   1.504395 S    
C35   H15   1.111610 S    
O5    C3    1.315510 A    
C27   C28   1.388757 A    
C29   H11   1.105088 S    
C18   H8    1.082539 S    
C5    H2    1.083071 S    
N4    O11   1.301299 A    
C4    C12   1.492510 S    
C11   C16   1.395382 A    
C29   H10   1.111692 S    
C2    C15   1.453134 S    
N2    C34   1.371571 A    
C5    C10   1.393939 A    
O3    Cu1   1.969105 S    
C7    C16   1.477206 S    
Cu1   N2    2.068433 S    
C31   C34   1.424193 A    
C26   C27   1.403176 A    
N5    O16   1.302451 A    
C25   O14   1.382383 S    
C20   C21   1.377600 A    
C17   C22   1.387072 A    
C36   H18   1.112106 S    
N3    O9    1.303033 A    
C28   C29   1.488522 S    
O3    C2    1.320991 A    
Cu2   N1    2.069655 S    
C21   C22   1.412277 A    
C11   H5    1.069595 S    
N5    O15   1.299639 A    
C34   C35   1.491281 S    
N3    O10   1.297638 A    
C35   H16   1.111925 S    
O14   H20   0.988983 S    
C19   C20   1.413243 A    
C31   C36   1.486496 S    
C15   C16   1.408546 A    
Cu2   O8    1.969106 S    
C30   H12   1.112172 S    
C17   H7    1.083890 S    
C23   C28   1.373651 A    
C5    C6    1.398544 A    
Cu2   O6    1.954090 S    
C29   C30   1.523101 S    
C8    C9    1.396385 A    
C32   C33   1.435879 A    
C9    C10   1.396622 A    
C24   C25   1.422819 A    
C26   H9    1.084019 S    
Cu1   O5    1.947612 S    
N1    C32   1.377991 A    
H1    C10   1.080445 S    
C36   H17   1.111699 S    
O1    Cu1   1.954090 S    
O2    Cu2   1.947615 S    
O8    C4    1.309047 A    
O17   H21   0.988280 S    
O6    C3    1.305094 A    
O4    Cu2   1.994695 S    
C11   C12   1.401349 A    
O2    C1    1.310792 A    
C14   C15   1.384552 A    
C33   H14   1.076722 S    
O4    C2    1.307476 A    
C19   N3    1.405055 S    
C17   C18   1.373935 A    
C30   N5    1.466921 S    
C21   O13   1.384671 S    
C35   C36   1.515650 S    
C8    H3    1.083482 S    
C6    O17   1.381964 S    
C12   C13   1.396951 A    
C9    H4    1.081737 S    
N4    O12   1.299428 A    
O1    C1    1.311773 A    
