data_mof_unit_47163.cif
_audit_creation_date              2012-12-11T17:43:22-0500
_audit_creation_method            fapswitch 2.2
_symmetry_space_group_name_H-M    P1
_symmetry_Int_Tables_number       1
_space_group_crystal_system       triclinic
_cell_length_a                    15.086578
_cell_length_b                    15.231648
_cell_length_c                    17.030009
_cell_angle_alpha                 108.589382
_cell_angle_beta                  105.922823
_cell_angle_gamma                 109.727375
_cell_volume                      3155.4015974

loop_
_atom_site_label
_atom_site_type_symbol
_atom_type_description
_atom_site_fract_x
_atom_site_fract_y
_atom_site_fract_z
_atom_type_partial_charge
C1    C     C_R   0.090823 0.278440 0.038157 -0.159252
C2    C     C_R   0.911617 0.712830 0.929560 -0.163113
C3    C     C_R   0.027342 0.464633 0.726916 0.055045
C4    C     C_R   0.972310 0.439839 0.262572 0.075410
C5    C     C_R   0.667960 0.209800 0.743289 0.080843
C6    C     C_R   0.238293 0.803334 0.272153 0.058461
C7    C     C_R   0.357506 0.563583 0.053501 0.056031
C8    C     C_R   0.699909 0.524060 0.022215 0.056107
C9    C     C_R   0.947633 0.943771 0.016708 0.154625
C10   C     C_R   0.045142 0.037612 0.921790 0.155924
C11   C     C_R   0.995309 0.899677 0.966908 -0.044908
C12   C     C_R   0.000109 0.083689 0.973642 -0.036524
C13   C     C_R   0.042066 0.943546 0.918323 -0.096968
C14   C     C_R   0.949758 0.036804 0.019230 -0.098649
C15   C     C_R   0.792800 0.052463 0.027847 -0.197701
C16   C     C_R   0.190648 0.920626 0.892817 -0.203382
C17   C     C_R   0.792804 0.134540 0.174884 -0.096748
C18   C     C_R   0.158694 0.770101 0.761707 -0.082451
C19   C     C_R   0.511623 0.746645 0.343222 -0.108282
C20   C     C_R   0.445768 0.296374 0.727836 -0.100794
C21   C     C_R   0.513546 0.713139 0.257418 -0.136235
C22   C     C_R   0.478135 0.353455 0.821659 -0.135275
C23   C     C_R   0.935467 0.451113 0.736033 -0.130228
C24   C     C_R   0.064032 0.491055 0.257129 -0.147140
C25   C     C_R   0.538663 0.631469 0.225877 0.121699
C26   C     C_R   0.514407 0.462042 0.860739 0.135823
C27   C     C_R   0.563645 0.585520 0.282693 -0.168539
C28   C     C_R   0.519698 0.513152 0.805306 -0.187533
C29   C     C_R   0.562081 0.619647 0.368665 -0.112144
C30   C     C_R   0.490065 0.456099 0.711864 -0.118664
C31   C     C_R   0.535801 0.699887 0.398777 -0.098991
C32   C     C_R   0.452288 0.347632 0.672991 -0.095678
C33   C     C_R   0.618932 0.576696 0.121417 -0.249318
C34   C     C_R   0.454676 0.539624 0.968888 -0.239086
C35   C     C_R   0.615452 0.539071 0.033598 0.064317
C36   C     C_R   0.454682 0.572270 0.055008 0.060518
C37   C     C_R   0.532258 0.518937 0.956517 0.006363
C38   C     C_R   0.537155 0.593156 0.133270 0.019784
C39   C     C_R   0.740058 0.079343 0.079495 -0.133843
C40   C     C_R   0.228212 0.862378 0.842787 -0.114948
C41   C     C_R   0.963671 0.410913 0.334945 0.144466
C42   C     C_R   0.034696 0.422217 0.640262 0.128634
C43   C     C_R   0.137567 0.445404 0.554932 -0.228405
C44   C     C_R   0.858253 0.343417 0.406654 -0.253295
C45   C     C_R   0.724048 0.213493 0.824394 -0.161588
C46   C     C_R   0.224618 0.796394 0.186146 -0.153427
C47   C     C_R   0.131891 0.453269 0.636850 -0.178435
C48   C     C_R   0.866203 0.367486 0.336237 -0.192862
C49   C     C_R   0.943309 0.367569 0.558777 -0.281107
C50   C     C_R   0.053122 0.428430 0.404317 -0.314407
C51   C     C_R   0.948596 0.369697 0.479682 0.193319
C52   C     C_R   0.046715 0.411640 0.478357 0.185266
C53   C     C_R   0.561364 0.128690 0.673297 0.076542
C54   C     C_R   0.277513 0.898619 0.358054 0.076802
C55   C     C_R   0.386595 0.086378 0.449434 -0.246309
C56   C     C_R   0.412147 0.954663 0.596349 -0.242435
C57   C     C_R   0.312591 0.001525 0.365383 0.048537
C58   C     C_R   0.505408 0.030725 0.671704 0.035784
C59   C     C_R   0.297330 0.887894 0.438946 -0.286258
C60   C     C_R   0.515903 0.147525 0.600665 -0.309296
C61   C     C_R   0.375259 0.971502 0.521147 0.162452
C62   C     C_R   0.424762 0.069739 0.524797 0.156418
C63   C     C_R   0.899151 0.166010 0.218504 -0.096065
C64   C     C_R   0.051511 0.736230 0.730224 -0.099767
C65   C     C_R   0.953244 0.143231 0.166892 -0.134980
C66   C     C_R   0.013669 0.794522 0.779797 -0.139135
C67   C     C_R   0.300269 0.595917 0.003640 -0.165542
C68   C     C_R   0.732890 0.456886 0.043463 -0.146139
C69   C     C_R   0.899885 0.084471 0.071277 0.174796
C70   C     C_R   0.083049 0.887141 0.861458 0.177867
C71   C     C_R   0.726988 0.305286 0.745972 -0.124969
C72   C     C_R   0.216513 0.702883 0.263986 -0.115540
C73   C     C_R   0.295083 0.499452 0.078562 -0.117469
C74   C     C_R   0.742535 0.554483 0.967711 -0.101570
C75   C     C_R   0.109465 0.535325 0.812801 -0.119526
C76   C     C_R   0.890810 0.407122 0.180327 -0.129527
C77   C     C_R   0.916788 0.194317 0.954788 -0.112687
C78   C     C_R   0.084816 0.800177 0.009078 -0.147280
C79   C     C_R   0.004333 0.181392 0.980855 0.104361
C80   C     C_R   0.997527 0.807336 0.967489 0.136229
H1    H     H_    0.170058 0.295355 0.075354 0.095202
H2    H     H_    0.833550 0.689072 0.882529 0.087376
H3    H     H_    0.749544 0.003196 0.954530 0.104812
H4    H     H_    0.244976 0.990824 0.956517 0.105070
H5    H     H_    0.534248 0.725883 0.465183 0.101206
H6    H     H_    0.426916 0.303225 0.600234 0.102362
H7    H     H_    0.491375 0.808887 0.366635 0.117936
H8    H     H_    0.413758 0.212144 0.697556 0.127225
H9    H     H_    0.495337 0.750862 0.215601 0.110446
H10   H     H_    0.470967 0.312668 0.863148 0.105737
H11   H     H_    0.582616 0.522148 0.259902 0.106135
H12   H     H_    0.545529 0.596662 0.834339 0.105951
H13   H     H_    0.580725 0.583450 0.411777 0.103388
H14   H     H_    0.494285 0.495607 0.669242 0.102531
H15   H     H_    0.685097 0.593230 0.179871 0.134178
H16   H     H_    0.388128 0.519596 0.908669 0.136006
H17   H     H_    0.128845 0.460645 0.404347 0.120804
H18   H     H_    0.867369 0.336500 0.558515 0.117244
H19   H     H_    0.795987 0.353367 0.283896 0.114165
H20   H     H_    0.203726 0.490899 0.698045 0.116940
H21   H     H_    0.213334 0.475791 0.554234 0.124979
H22   H     H_    0.782630 0.311988 0.407470 0.127393
H23   H     H_    0.856486 0.402904 0.684129 0.092650
H24   H     H_    0.142276 0.513522 0.302350 0.087367
H25   H     H_    0.657496 0.053960 0.045855 0.105660
H26   H     H_    0.311166 0.888231 0.867332 0.103538
H27   H     H_    0.553301 0.220658 0.599151 0.127675
H28   H     H_    0.262641 0.812378 0.437513 0.124107
H29   H     H_    0.419339 0.164012 0.453863 0.123784
H30   H     H_    0.372690 0.879002 0.593947 0.131846
H31   H     H_    0.750732 0.151293 0.214958 0.110197
H32   H     H_    0.187809 0.724576 0.723504 0.103831
H33   H     H_    0.939241 0.205873 0.292483 0.129890
H34   H     H_    0.997743 0.664352 0.667813 0.113699
H35   H     H_    0.034889 0.165423 0.201575 0.106325
H36   H     H_    0.930395 0.766757 0.755573 0.100881
H37   H     H_    0.698564 0.166193 0.856486 0.089398
H38   H     H_    0.239063 0.857266 0.165803 0.092786
H39   H     H_    0.328437 0.653391 0.980194 0.097644
H40   H     H_    0.708770 0.414717 0.080440 0.096246
H41   H     H_    0.702373 0.338216 0.702013 0.087020
H42   H     H_    0.221838 0.678494 0.317044 0.092533
H43   H     H_    0.318211 0.466578 0.123354 0.098316
H44   H     H_    0.728415 0.602697 0.936338 0.091439
H45   H     H_    0.191691 0.564192 0.830909 0.088996
H46   H     H_    0.810300 0.351195 0.155053 0.089345
H47   H     H_    0.836957 0.134182 0.913905 0.092838
H48   H     H_    0.164943 0.857058 0.034309 0.097574
N1    N     N_R   0.055660 0.348550 0.045620 -0.038902
N2    N     N_R   0.944340 0.651450 0.954380 -0.037840
N3    N     N_R   0.960830 0.507850 0.823700 -0.040607
N4    N     N_R   0.039170 0.492150 0.176300 -0.039063
N5    N     N_R   0.811290 0.303410 0.871650 -0.038929
N6    N     N_R   0.188710 0.696590 0.128350 -0.038802
N7    N     N_R   0.205200 0.552990 0.997670 -0.037762
N8    N     N_R   0.794800 0.447010 0.002330 -0.040179
N9    N     N_R   0.814800 0.361830 0.823700 -0.041066
N10   N     N_R   0.185200 0.638170 0.176300 -0.040239
N11   N     N_R   0.201680 0.494570 0.045620 -0.040063
N12   N     N_R   0.798320 0.505430 0.954380 -0.040494
N13   N     N_R   0.068420 0.560530 0.871650 -0.037333
N14   N     N_R   0.931580 0.439470 0.128350 -0.038710
N15   N     N_R   0.948070 0.295860 0.997670 -0.040785
N16   N     N_R   0.051930 0.704140 0.002330 -0.041495
Ni1   Ni    Ni4+2 0.119340 0.493420 0.109960 0.214469
Ni2   Ni    Ni4+2 0.880660 0.506580 0.890040 0.214882
Ni3   Ni    Ni4+2 0.872590 0.372590 0.000000 0.214678
Ni4   Ni    Ni4+2 0.127410 0.627410 0.000000 0.213621
N17   N     N_3   0.540738 0.001720 0.741559 -0.225018
H49   H     H_    0.541817 0.049289 0.801943 0.093194
H50   H     H_    0.612733 0.003953 0.749398 0.099000
N18   N     N_3   0.275647 0.024011 0.291121 -0.222001
H51   H     H_    0.197452 0.970464 0.248253 0.111130
H52   H     H_    0.322480 0.023263 0.255973 0.089854
C81   C     C_3   0.895980 0.892808 0.068203 -0.335269
C82   C     C_3   0.975967 0.910265 0.156762 -0.882703
H53   H     H_    0.017396 0.863852 0.142015 0.260817
H54   H     H_    0.033234 0.994520 0.198860 0.251175
H55   H     H_    0.935699 0.884557 0.197072 0.251335
H56   H     H_    0.843300 0.922389 0.086726 0.198838
H57   H     H_    0.842663 0.808304 0.024332 0.176561
C83   C     C_3   0.089219 0.085005 0.865957 -0.360670
C84   C     C_3   0.002260 0.053926 0.775405 -0.865124
H58   H     H_    0.959675 0.967373 0.734245 0.253951
H59   H     H_    0.946572 0.082885 0.787741 0.256822
H60   H     H_    0.036179 0.088554 0.735685 0.250592
H61   H     H_    0.133764 0.171570 0.905018 0.187971
H62   H     H_    0.146043 0.060065 0.850661 0.193480

loop_
_geom_bond_atom_site_label_1
_geom_bond_atom_site_label_2
_ccdc_geom_bond_type
C74   H44   S    
C63   C65   A    
C3    C42   S    
N5    N9    A    
C31   H5    S    
C27   C29   A    
C34   C37   A    
C76   H46   S    
C7    C36   S    
C3    C23   A    
C84   H58   S    
N8    N12   A    
C19   C31   A    
C77   N15   A    
C7    C73   A    
C21   H9    S    
C81   H57   S    
N7    N11   A    
C66   H36   S    
N4    Ni1   S    
C5    C53   S    
C82   H53   S    
C84   H59   S    
C34   H16   S    
C19   H7    S    
N17   H50   S    
C4    C24   A    
C78   C80   A    
C43   C52   A    
N2    Ni2   S    
C4    C41   S    
N10   Ni1   S    
C1    H1    S    
C57   N18   S    
C33   H15   S    
C16   H4    S    
C46   H38   S    
N3    Ni2   S    
C60   C62   A    
C17   C39   A    
C18   C40   A    
C75   N13   A    
N13   Ni4   S    
C2    N2    A    
C49   H18   S    
C82   H54   S    
C23   H23   S    
C73   H43   S    
C50   C52   A    
C27   H11   S    
N5    Ni3   S    
C18   H32   S    
C3    C75   A    
N1    Ni1   S    
C77   H47   S    
C58   N17   S    
N16   Ni4   S    
C72   N10   A    
C1    N1    A    
C78   H48   S    
C10   C83   S    
C55   H29   S    
C65   H35   S    
C6    C54   S    
C17   H31   S    
C56   H30   S    
C29   H13   S    
C53   C60   A    
C54   C59   A    
C77   C79   A    
N4    N14   A    
C15   C69   A    
C59   C61   A    
C64   H34   S    
C51   C52   A    
N9    Ni2   S    
C68   N8    A    
C84   H60   S    
C16   C70   A    
C71   N9    A    
N12   Ni2   S    
C44   H22   S    
C15   H3    S    
C73   N11   A    
C49   C51   A    
C6    C72   A    
C74   N12   A    
C47   H20   S    
C24   H24   S    
C8    C35   S    
C64   C66   A    
C67   N7    A    
C9    C14   A    
C43   H21   S    
C78   N16   A    
C25   C38   S    
C46   N6    A    
C24   N4    A    
C29   C31   A    
C32   H6    S    
C8    C74   A    
C22   H10   S    
C23   N3    A    
C28   H12   S    
N18   H51   S    
C9    C11   A    
C15   C39   A    
C60   H27   S    
C10   C12   A    
C16   C40   A    
C83   H62   S    
C44   C51   A    
N18   H52   S    
N15   Ni3   S    
C55   C57   A    
C22   C26   A    
C1    C79   A    
C14   C69   S    
C2    H2    S    
C41   C50   A    
N2    N16   A    
C35   C37   A    
C40   H26   S    
C83   C84   S    
C20   C32   A    
C45   H37   S    
C39   H25   S    
C48   H19   S    
C21   C25   A    
N11   Ni1   S    
C50   H17   S    
C6    C46   A    
C72   H42   S    
C81   H56   S    
C45   N5    A    
N14   Ni3   S    
C71   H41   S    
C82   H55   S    
C59   H28   S    
C20   C22   A    
C43   C47   A    
C10   C13   A    
N3    N13   A    
N6    N10   A    
C53   C58   A    
C26   C37   S    
C8    C68   A    
N1    N15   A    
C25   C27   A    
N6    Ni4   S    
C26   C28   A    
C33   C38   A    
C36   C38   A    
C12   C14   A    
C30   H14   S    
N17   H49   S    
C68   H40   S    
C30   C32   A    
C11   C13   A    
C18   C64   A    
C66   C70   A    
C5    C45   A    
C65   C69   A    
C20   H8    S    
C28   C30   A    
C33   C35   A    
C41   C48   A    
C56   C58   A    
C34   C36   A    
C42   C47   A    
C61   C62   A    
C4    C76   A    
N8    Ni3   S    
C2    C80   A    
C11   C80   S    
C42   C49   A    
C7    C67   A    
C83   H61   S    
C63   H33   S    
C55   C62   A    
C9    C81   S    
C5    C71   A    
N7    Ni4   S    
C13   C70   S    
C81   C82   S    
C56   C61   A    
C75   H45   S    
C67   H39   S    
C17   C63   A    
C44   C48   A    
C12   C79   S    
C19   C21   A    
C54   C57   A    
C76   N14   A    
