data_mof_unit_6302.cif
_audit_creation_date              2012-12-11T16:35:12-0500
_audit_creation_method            fapswitch 2.2
_symmetry_space_group_name_H-M    P1
_symmetry_Int_Tables_number       1
_space_group_crystal_system       triclinic
_cell_length_a                    6.942541
_cell_length_b                    17.588901
_cell_length_c                    19.572998
_cell_angle_alpha                 109.045796
_cell_angle_beta                  90.562138
_cell_angle_gamma                 90.773372
_cell_volume                      2258.79180951

loop_
_atom_site_label
_atom_site_type_symbol
_atom_type_description
_atom_site_fract_x
_atom_site_fract_y
_atom_site_fract_z
_atom_type_partial_charge
O1    O     O_R   0.505700 0.440210 0.561730 -0.508827
O2    O     O_R   0.169350 0.406300 0.412660 -0.515426
O3    O     O_R   0.005650 0.559790 0.438270 -0.547963
C1    C     C_R   0.337608 0.381993 0.385580 0.788887
O4    O     O_R   0.175560 0.430650 0.559600 -0.486258
O5    O     O_R   0.011900 0.584320 0.586250 -0.533184
C2    C     C_R   0.343972 0.414155 0.580202 0.881275
O6    O     O_R   0.499450 0.415680 0.413750 -0.552780
O7    O     O_3   0.341370 0.550390 0.508570 -0.403527
V1    V     V_3+5 0.063940 0.490650 0.498410 1.642588
O8    O     O_R   0.682570 0.593700 0.587340 -0.543200
C3    C     C_R   0.854537 0.617637 0.614358 0.805622
O9    O     O_R   0.676370 0.569350 0.440400 -0.560333
C4    C     C_R   0.844724 0.583614 0.418457 0.808574
V2    V     V_3+5 0.564750 0.509350 0.501590 1.547468
O10   O     O_3   0.837190 0.449610 0.491430 -0.344726
C5    C     C_R   0.881522 0.633995 0.244521 0.088760
C6    C     C_R   0.873320 0.590856 0.293601 0.566180
C7    C     C_R   0.853980 0.630862 0.368049 -0.304961
C8    C     C_R   0.842052 0.715409 0.393540 0.049048
C9    C     C_R   0.866994 0.759108 0.345115 0.600619
C10   C     C_R   0.882957 0.719254 0.270337 -0.161128
C11   C     C_R   0.732610 0.813939 0.211820 0.182316
C12   C     C_R   0.745056 0.860209 0.165567 -0.098095
H1    H     H_    0.621024 0.894289 0.159680 0.216854
C13   C     C_R   0.915535 0.864019 0.128437 -0.186108
C14   C     C_R   0.072555 0.818066 0.136859 -0.148279
H2    H     H_    0.205205 0.818683 0.108363 0.180241
C15   C     C_R   0.059518 0.769700 0.181249 0.637830
C16   C     C_R   0.891277 0.767809 0.220165 -0.007747
C17   C     C_R   0.005207 0.904633 0.750089 -0.293987
C18   C     C_R   0.059916 0.916785 0.685830 0.161036
C19   C     C_R   0.056375 0.852242 0.621549 0.726742
C20   C     C_R   0.993696 0.776262 0.620848 -0.324835
C21   C     C_R   0.936551 0.762504 0.684952 -0.025862
C22   C     C_R   0.947577 0.827462 0.751200 0.032356
C23   C     C_R   0.877378 0.684763 0.684269 -0.073877
C24   C     C_R   0.857349 0.669999 0.751030 -0.146393
C25   C     C_R   0.856346 0.735531 0.817322 -0.206230
C26   C     C_R   0.903061 0.814474 0.817101 -0.063342
C27   C     C_R   0.849638 0.590572 0.753865 0.570449
C28   C     C_R   0.813793 0.576163 0.818406 -0.333088
C29   C     C_R   0.792330 0.639903 0.881894 0.550347
C30   C     C_R   0.816755 0.718846 0.882307 0.489995
H3    H     H_    0.011489 0.956200 0.798966 0.164181
H4    H     H_    0.996617 0.727721 0.569985 0.158351
H5    H     H_    0.806780 0.514991 0.819412 0.217705
H6    H     H_    0.465088 0.491740 0.193365 0.161012
C31   C     C_R   0.283380 0.211769 0.376412 0.500631
C32   C     C_R   0.272615 0.131559 0.374653 0.032848
C33   C     C_R   0.316323 0.069591 0.311501 0.110772
C34   C     C_R   0.368667 0.087178 0.249737 0.526295
C35   C     C_R   0.375935 0.167882 0.248850 -0.176145
C36   C     C_R   0.335652 0.231813 0.314176 -0.122490
C37   C     C_R   0.423611 0.185307 0.184616 -0.108731
C38   C     C_R   0.436202 0.266896 0.186327 -0.103430
C39   C     C_R   0.399403 0.330373 0.252011 -0.008285
C40   C     C_R   0.349973 0.313432 0.315942 -0.059685
C41   C     C_R   0.483403 0.287630 0.123801 0.587004
C42   C     C_R   0.493966 0.368022 0.126196 0.209380
C43   C     C_R   0.457661 0.429275 0.190715 -0.131119
C44   C     C_R   0.410597 0.410947 0.252420 -0.126352
H7    H     H_    0.381393 0.461167 0.300413 0.122342
C45   C     C_R   0.520700 0.320318 0.719067 -0.225331
H8    H     H_    0.645835 0.326353 0.754094 0.158197
C46   C     C_R   0.512460 0.366161 0.672780 0.531784
C47   C     C_R   0.351054 0.362148 0.627514 -0.153344
C48   C     C_R   0.197925 0.308453 0.628956 0.168736
C49   C     C_R   0.209488 0.261384 0.674856 -0.217927
H9    H     H_    0.094163 0.218819 0.673450 0.135860
C50   C     C_R   0.368512 0.268332 0.721402 0.056390
C51   C     C_R   0.235541 0.226553 0.824661 0.122689
C52   C     C_R   0.253887 0.182471 0.872518 0.611678
C53   C     C_R   0.414648 0.133551 0.870164 -0.349817
C54   C     C_R   0.558767 0.130335 0.819311 0.574322
C55   C     C_R   0.540167 0.173524 0.770970 -0.238751
H10   H     H_    0.652318 0.169272 0.731844 0.160913
C56   C     C_R   0.378612 0.221283 0.772237 -0.095309
O11   O     O_R   0.273230 0.084330 0.086440 -0.538625
O12   O     O_R   0.596660 0.069390 0.940470 -0.492512
O13   O     O_R   0.760270 0.915710 0.913690 -0.526304
C57   C     C_R   0.427332 0.084420 0.919057 0.871339
O14   O     O_R   0.603330 0.093680 0.087390 -0.524642
O15   O     O_R   0.766990 0.940160 0.061660 -0.526102
C58   C     C_R   0.435169 0.117921 0.114493 0.926136
O16   O     O_R   0.266510 0.059870 0.938470 -0.534289
O17   O     O_3   0.431050 0.949630 0.991510 -0.379798
V3    V     V_3+5 0.708490 0.009340 0.001580 1.692233
O18   O     O_R   0.096270 0.930570 0.059390 -0.537079
C59   C     C_R   0.927430 0.915120 0.080821 0.830204
O19   O     O_R   0.089600 0.906290 0.912460 -0.561640
C60   C     C_R   0.918696 0.882840 0.885567 0.792908
V4    V     V_3+5 0.207670 0.990600 0.998190 1.599512
O20   O     O_3   0.935250 0.050360 0.008480 -0.357592
N1    N     N_3   0.880521 0.589666 0.168708 -0.562375
H11   H     H_    0.765525 0.609111 0.144119 0.248239
H12   H     H_    0.008695 0.601622 0.146447 0.295455
N2    N     N_3   0.122647 0.994639 0.685817 -0.587013
H13   H     H_    0.011679 0.034995 0.706339 0.265671
H14   H     H_    0.240768 0.012785 0.721281 0.217523
F1    F     F_    0.116565 0.862867 0.559491 -0.634131
F2    F     F_    0.897648 0.526885 0.696214 -0.621650
F3    F     F_    0.802578 0.777730 0.947016 -0.677664
F4    F     F_    0.239947 0.268915 0.439667 -0.712960
N3    N     N_3   0.216355 0.112295 0.437367 -0.610702
H15   H     H_    0.075231 0.131454 0.449459 0.259583
H16   H     H_    0.306398 0.144146 0.480688 0.268911
F5    F     F_    0.878337 0.509210 0.268239 -0.669323
N4    N     N_3   0.307634 0.987247 0.308966 -0.553761
H17   H     H_    0.400429 0.980728 0.349004 0.271355
H18   H     H_    0.167295 0.974011 0.321037 0.277363
F6    F     F_    0.415846 0.023670 0.191431 -0.706629
F7    F     F_    0.521841 0.231044 0.059556 -0.691689
N5    N     N_3   0.543589 0.386367 0.062163 -0.551519
H19   H     H_    0.552757 0.448636 0.073159 0.244845
H20   H     H_    0.430711 0.365206 0.024678 0.262576
F8    F     F_    0.661657 0.416320 0.673973 -0.645298
N6    N     N_3   0.030942 0.300486 0.583504 -0.550412
H21   H     H_    0.910835 0.314076 0.616705 0.275070
H22   H     H_    0.016351 0.240262 0.551397 0.231164
N7    N     N_3   0.074960 0.279109 0.833095 -0.559071
H23   H     H_    0.125736 0.336530 0.836661 0.247716
H24   H     H_    0.983369 0.257437 0.788108 0.224729
N8    N     N_3   0.802880 0.756111 0.468415 -0.617926
H25   H     H_    0.664978 0.738147 0.478615 0.222632
H26   H     H_    0.797418 0.818266 0.479410 0.330646
F9    F     F_    0.115564 0.189323 0.922734 -0.602726
F10   F     F_    0.715296 0.083596 0.814774 -0.677538
F11   F     F_    0.875267 0.840830 0.370745 -0.669443
N9    N     N_3   0.555856 0.813950 0.248913 -0.569701
H27   H     H_    0.521055 0.754772 0.245207 0.281329
H28   H     H_    0.577563 0.846776 0.303467 0.278531
F12   F     F_    0.211815 0.724475 0.186208 -0.697789
F13   F     F_    0.756708 0.625014 0.944416 -0.619171

loop_
_geom_bond_atom_site_label_1
_geom_bond_atom_site_label_2
_ccdc_geom_bond_type
C15   F12   S    
O17   V3    S    
V4    O20   S    
C51   N7    S    
C14   C15   A    
C52   C53   A    
C42   N5    S    
N1    H11   S    
C1    O6    A    
C31   F4    S    
N5    H19   S    
H6    C43   S    
C39   C44   A    
C35   C36   A    
C38   C39   A    
N3    H16   S    
C13   C14   A    
C44   H7    S    
C19   F1    S    
C21   C23   A    
C23   C24   A    
C55   C56   A    
O11   V4    S    
N4    H18   S    
O5    C3    A    
C24   C25   A    
C20   C21   A    
C34   F6    S    
C31   C36   A    
C27   F2    S    
C5    C6    A    
C54   F10   S    
C27   C28   A    
C45   C50   A    
C3    C23   S    
C49   C50   A    
N6    H21   S    
C51   C56   A    
C48   N6    S    
O13   C60   A    
O8    V2    S    
C7    C8    A    
C48   C49   A    
C46   F8    S    
C32   N3    S    
C11   C12   A    
C20   H4    S    
O7    V1    S    
O14   V3    S    
C41   C42   A    
C33   N4    S    
O9    C4    A    
C49   H9    S    
O15   C59   A    
C53   C57   S    
C30   F3    S    
C32   C33   A    
N6    H22   S    
C35   C37   A    
V3    O20   S    
N7    H24   S    
C53   C54   A    
C33   C34   A    
C11   C16   A    
C22   C26   A    
C12   H1    S    
C24   C27   A    
O12   C57   A    
O19   C60   A    
O4    C2    A    
C6    C7    A    
C57   O16   A    
C26   C60   S    
C47   C48   A    
C11   N9    S    
C42   C43   A    
C21   C22   A    
C45   C46   A    
C37   C58   S    
C29   F13   S    
N9    H28   S    
C54   C55   A    
C15   C16   A    
O16   V4    S    
O19   V4    S    
C17   C18   A    
C41   F7    S    
C37   C38   A    
C19   C20   A    
C55   H10   S    
C9    F11   S    
N7    H23   S    
O3    C4    A    
O1    V2    S    
O14   C58   A    
C31   C32   A    
O6    V2    S    
N2    H14   S    
O9    V2    S    
C29   C30   A    
C28   C29   A    
O2    V1    S    
O11   C58   A    
C34   C35   A    
N8    H26   S    
C36   C40   A    
C10   C16   S    
O1    C2    A    
C4    C7    S    
C5    N1    S    
O15   V3    S    
C12   C13   A    
C51   C52   A    
O5    V1    S    
N5    H20   S    
O8    C3    A    
N1    H12   S    
C25   C30   A    
C13   C59   S    
N3    H15   S    
C5    C10   A    
C38   C41   A    
C45   H8    S    
N9    H27   S    
O7    V2    S    
O4    V1    S    
O12   V3    S    
O3    V1    S    
C52   F9    S    
N4    H17   S    
C18   C19   A    
C39   C40   A    
O2    C1    A    
O17   V4    S    
C18   N2    S    
C46   C47   A    
C28   H5    S    
O18   V4    S    
C43   C44   A    
C6    F5    S    
C8    N8    S    
O13   V3    S    
C2    C47   S    
C25   C26   A    
C8    C9    A    
N2    H13   S    
C17   H3    S    
C1    C40   S    
C14   H2    S    
C17   C22   A    
V1    O10   S    
O18   C59   A    
C9    C10   A    
C50   C56   S    
V2    O10   S    
N8    H25   S    
