data_mof_unit_19030.cif
_audit_creation_date              2012-12-11T15:12:02-0500
_audit_creation_method            fapswitch 2.2
_symmetry_space_group_name_H-M    P1
_symmetry_Int_Tables_number       1
_space_group_crystal_system       triclinic
_cell_length_a                    8.304432
_cell_length_b                    17.448984
_cell_length_c                    19.270826
_cell_angle_alpha                 95.319163
_cell_angle_beta                  94.96238
_cell_angle_gamma                 95.559536
_cell_volume                      2754.43963288

loop_
_atom_site_label
_atom_site_type_symbol
_atom_type_description
_atom_site_fract_x
_atom_site_fract_y
_atom_site_fract_z
_atom_type_partial_charge
Ba1   Ba    Ba6+2 0.157360 0.537160 0.466280 1.659524
Ba2   Ba    Ba6+2 0.652820 0.462830 0.533660 1.649538
C1    C     C_3   0.406976 0.739401 0.205733 -0.346358
C2    C     C_3   0.423392 0.712317 0.278438 0.344846
C3    C     C_3   0.581482 0.702676 0.658224 0.306409
C4    C     C_3   0.683048 0.768907 0.706431 -0.185010
C5    C     C_3   0.912415 0.260111 0.758946 0.767768
C6    C     C_3   0.912952 0.247436 0.836334 -0.264548
C7    C     C_3   0.389628 0.289433 0.717830 0.357048
C8    C     C_3   0.383768 0.261354 0.790013 -0.314967
C9    C     C_R   0.712017 0.722940 0.474023 -0.278573
C10   C     C_R   0.862045 0.746788 0.511576 0.049658
C11   C     C_R   0.919487 0.826771 0.520383 -0.112854
C12   C     C_3   0.931589 0.745517 0.317636 0.343718
C13   C     C_R   0.824955 0.882105 0.491902 0.000307
C14   C     C_R   0.670674 0.855994 0.456538 -0.127126
C15   C     C_R   0.613971 0.776693 0.448457 0.018281
C16   C     C_R   0.893353 0.173499 0.482170 -0.050267
C17   C     C_R   0.958130 0.252080 0.483519 0.092388
C18   C     C_R   0.214693 0.220185 0.538841 -0.004747
C19   C     C_R   0.148734 0.142915 0.539612 -0.121911
C20   C     C_R   0.990232 0.117644 0.508291 0.056040
C21   C     C_1   0.929566 0.034801 0.503625 0.044070
C22   C     C_1   0.882848 0.965403 0.499088 0.023562
C23   C     C_3   0.929966 0.827071 0.296136 -0.361920
C24   C     C_R   0.124338 0.271919 0.504686 -0.217555
C25   C     C_R   0.634069 0.504452 0.290164 -0.240689
C26   C     C_R   0.467954 0.478950 0.270141 -0.071556
C27   C     C_R   0.407135 0.479784 0.197725 0.349014
C28   C     C_R   0.511447 0.513731 0.151135 -0.066976
C29   C     C_R   0.667198 0.548986 0.176556 -0.184065
C30   C     C_R   0.728172 0.545168 0.245760 0.076708
C31   C     C_R   0.359454 0.558987 0.045769 0.002116
C32   C     C_R   0.301707 0.548144 0.974498 -0.068821
C33   C     C_R   0.349409 0.487554 0.930298 0.043128
C34   C     C_3   0.922347 0.277047 0.321237 0.346271
C35   C     C_R   0.457938 0.438864 0.958249 -0.065770
C36   C     C_R   0.514684 0.449356 0.029524 -0.006920
C37   C     C_R   0.463794 0.508675 0.074217 0.096607
C38   C     C_R   0.144410 0.443241 0.827365 -0.127655
C39   C     C_R   0.096879 0.434106 0.755028 0.000462
C40   C     C_R   0.352168 0.504650 0.734276 0.058598
C41   C     C_R   0.403478 0.512594 0.807102 0.024008
C42   C     C_R   0.299411 0.479809 0.853636 0.012913
C43   C     C_R   0.203550 0.462676 0.709218 -0.282285
C44   C     C_3   0.844516 0.216079 0.262529 0.266979
C45   C     C_3   0.040488 0.625976 0.677735 0.290770
C46   C     C_3   0.005997 0.633240 0.754578 0.367567
C47   C     C_3   0.405430 0.295243 0.308158 0.249493
C48   C     C_3   0.362483 0.270250 0.230158 -0.202200
H1    H     H_    0.355739 0.653840 0.276155 0.066652
H2    H     H_    0.734784 0.184545 0.279420 -0.012452
H3    H     H_    0.931670 0.173085 0.251493 -0.028564
H4    H     H_    0.171026 0.622902 0.674118 0.016569
H5    H     H_    0.971547 0.571153 0.652946 -0.013565
H6    H     H_    0.035594 0.580747 0.778713 -0.048231
H7    H     H_    0.874873 0.637273 0.757868 -0.015145
H8    H     H_    0.528693 0.325207 0.315814 0.086976
H9    H     H_    0.276523 0.739112 0.187094 0.147895
H10   H     H_    0.229267 0.255787 0.218256 0.161625
H11   H     H_    0.422183 0.218336 0.213712 0.132862
H12   H     H_    0.406375 0.316892 0.199268 0.169672
H13   H     H_    0.554313 0.708624 0.293349 -0.070782
H14   H     H_    0.464439 0.700129 0.168948 0.061045
H15   H     H_    0.669024 0.667462 0.633056 0.022333
H16   H     H_    0.750793 0.744128 0.749500 0.154749
H17   H     H_    0.774025 0.798895 0.676323 0.111837
H18   H     H_    0.468906 0.798910 0.206866 0.121600
H19   H     H_    0.919189 0.868165 0.342640 0.069236
H20   H     H_    0.037210 0.281137 0.748888 -0.576774
H21   H     H_    0.791860 0.221640 0.847832 0.142379
H22   H     H_    0.005529 0.208291 0.850646 0.134268
H23   H     H_    0.942477 0.303108 0.869491 0.066603
H24   H     H_    0.266679 0.303585 0.699425 -0.036970
H25   H     H_    0.476916 0.342576 0.722511 0.084108
H26   H     H_    0.337911 0.305797 0.826014 0.069548
H27   H     H_    0.507283 0.250738 0.811200 0.153525
H28   H     H_    0.035358 0.745119 0.357852 0.108038
H29   H     H_    0.301297 0.206922 0.786998 0.157152
H30   H     H_    0.769678 0.155844 0.459858 0.060886
H31   H     H_    0.593962 0.897162 0.436191 0.077924
H32   H     H_    0.221284 0.102551 0.563936 0.091145
H33   H     H_    0.035871 0.845712 0.549754 0.101382
H34   H     H_    0.666743 0.662209 0.468220 0.061903
H35   H     H_    0.221213 0.587459 0.953582 0.119236
H36   H     H_    0.319315 0.605347 0.079081 0.094974
H37   H     H_    0.816334 0.729902 0.340472 -0.053121
H38   H     H_    0.499460 0.393013 0.924730 0.077957
H39   H     H_    0.595573 0.410106 0.050278 0.129333
H40   H     H_    0.059922 0.424157 0.863373 0.085170
H41   H     H_    0.742848 0.578012 0.141795 0.100716
H42   H     H_    0.164342 0.458135 0.653811 0.049422
H43   H     H_    0.044455 0.844529 0.273191 0.145068
H44   H     H_    0.824932 0.829513 0.256883 0.116666
H45   H     H_    0.001744 0.320581 0.298987 0.152257
H46   H     H_    0.000473 0.247134 0.356999 -0.199785
O1    O     O_2   0.143190 0.684560 0.534150 -0.462788
O2    O     O_3   0.289622 0.341271 0.333761 -0.628633
O3    O     O_3   0.948523 0.694270 0.258737 -0.602869
O4    O     O_2   0.667110 0.315390 0.465830 -0.467005
O5    O     O_3   0.927950 0.409760 0.464380 -0.503487
O6    O     O_3   0.437660 0.360670 0.591630 -0.506719
O7    O     O_3   0.801612 0.315204 0.353199 -0.658561
O8    O     O_3   0.379150 0.537830 0.583060 -0.488666
O9    O     O_3   0.857920 0.398470 0.626650 -0.435991
O10   O     O_2   0.775400 0.456633 0.748667 -0.501891
O11   O     O_3   0.795408 0.310303 0.741478 -0.570574
O12   O     O_3   0.882350 0.590230 0.535560 -0.500547
O13   O     O_3   0.431150 0.462160 0.416880 -0.503301
O14   O     O_2   0.634060 0.535220 0.669530 -0.471179
O15   O     O_3   0.479499 0.659693 0.698543 -0.596779
O16   O     O_2   0.556512 0.228065 0.550160 -0.418547
O17   O     O_3   0.440473 0.231456 0.671727 -0.525797
O18   O     O_3   0.372640 0.639320 0.408320 -0.495696
O19   O     O_2   0.277935 0.774995 0.453969 -0.489001
O20   O     O_3   0.994467 0.691021 0.646517 -0.622523
O21   O     O_3   0.359039 0.764895 0.325611 -0.595759
O22   O     O_2   0.176230 0.464730 0.330450 -0.403946
O23   O     O_3   0.952380 0.601530 0.373300 -0.525312
O24   O     O_2   0.072309 0.562977 0.253547 -0.397894
P1    P     P_3+3 0.970290 0.672580 0.555000 0.983265
P2    P     P_3+3 0.347000 0.441860 0.341200 1.023615
P3    P     P_3+3 0.925897 0.599316 0.281840 0.993626
P4    P     P_3+3 0.840010 0.327410 0.444950 0.975974
P5    P     P_3+3 0.886060 0.398483 0.718517 0.993698
P6    P     P_3+3 0.406226 0.740208 0.410368 0.939644
P7    P     P_3+3 0.458036 0.559784 0.671304 0.956546
P8    P     P_3+3 0.413591 0.258698 0.586698 1.034484
S1    S     S_3+6 0.792026 0.256692 0.182621 -0.059705
O25   O     O_2   0.735737 0.335302 0.197846 -0.297665
O26   O     O_2   0.937253 0.263778 0.141429 -0.217622
O27   O     O_3   0.642850 0.198261 0.134190 -0.499135
H47   H     H_    0.684742 0.146969 0.129197 0.331537
S2    S     S_3+6 0.121322 0.714332 0.805208 -0.079479
O28   O     O_2   0.126566 0.784659 0.765611 -0.262826
O29   O     O_2   0.043078 0.730969 0.871684 -0.297453
O30   O     O_3   0.311134 0.692201 0.825008 -0.549130
H48   H     H_    0.357012 0.730375 0.864738 0.356079
C49   C     C_3   0.400442 0.222779 0.347543 -0.336994
H49   H     H_    0.279515 0.188479 0.336472 0.093897
H50   H     H_    0.495079 0.185809 0.331939 0.076466
H51   H     H_    0.421329 0.238492 0.404670 0.123285
C50   C     C_3   0.477258 0.734857 0.601150 -0.289717
H52   H     H_    0.441996 0.688765 0.557509 0.126330
H53   H     H_    0.366561 0.755125 0.622073 0.160244
H54   H     H_    0.545245 0.784737 0.581294 0.035405
C51   C     C_3   0.582055 0.828883 0.739526 -0.302934
H55   H     H_    0.527255 0.862572 0.699197 0.133627
H56   H     H_    0.484470 0.800429 0.766958 0.207779
H57   H     H_    0.661887 0.869982 0.778215 0.156995
S3    S     S_3+6 0.859748 0.169789 0.706800 -0.012682
O31   O     O_2   0.708423 0.128703 0.729321 -0.223631
O32   O     O_2   0.828593 0.184515 0.631670 -0.278170
O33   O     O_3   0.012416 0.113701 0.715195 -0.492154
H58   H     H_    0.100285 0.138764 0.690786 0.328390
C52   C     C_3   0.210233 0.344863 0.483694 -0.231814
H59   H     H_    0.337164 0.337957 0.473515 0.136586
H60   H     H_    0.157196 0.358091 0.432924 0.126629
H61   H     H_    0.202816 0.394172 0.523533 0.135428
C53   C     C_3   0.562788 0.558061 0.837176 -0.280074
H62   H     H_    0.641939 0.519185 0.862953 0.104522
H63   H     H_    0.631358 0.585407 0.797929 0.138040
H64   H     H_    0.539753 0.605151 0.876696 0.124948
S4    S     S_3+6 0.213072 0.433483 0.159426 -0.050829
O34   O     O_2   0.239536 0.373805 0.101261 -0.282017
O35   O     O_2   0.115714 0.394051 0.209950 -0.258737
O36   O     O_3   0.103131 0.498878 0.124500 -0.520712
H65   H     H_    0.000697 0.468871 0.103041 0.369110
C54   C     C_3   0.718109 0.482271 0.356515 -0.187725
H66   H     H_    0.843831 0.469401 0.348819 0.152735
H67   H     H_    0.713523 0.527582 0.400413 0.112317
H68   H     H_    0.663288 0.427617 0.371040 0.111127

loop_
_geom_bond_atom_site_label_1
_geom_bond_atom_site_label_2
_ccdc_geom_bond_type
C50   H54   S    
Ba2   O13   S    
C23   H43   S    
C54   H66   S    
C35   H38   S    
C24   C52   S    
C1    H18   S    
C30   P3    S    
O12   P1    S    
C41   C42   A    
C44   S1    S    
C12   O3    S    
O17   P8    S    
C29   C30   A    
C1    H14   S    
C36   H39   S    
C31   C37   A    
O19   P6    D    
C34   O7    S    
C46   S2    S    
C26   C27   A    
C51   H56   S    
C35   C36   A    
C12   H37   S    
Ba1   Ba2   S    
O6    P8    S    
Ba1   O23   S    
C3    C4    S    
O18   P6    S    
C49   H51   S    
C26   P2    S    
C15   P6    S    
C3    C50   S    
Ba2   O6    S    
C50   H52   S    
C44   H2    S    
C46   H6    S    
C32   C33   A    
O22   P2    D    
S3    O33   S    
Ba2   O12   S    
C43   H42   S    
C17   C24   A    
Ba1   P2    S    
C14   H31   S    
O1    P1    D    
Ba1   O13   S    
C47   O2    S    
C8    H26   S    
C9    C15   A    
C10   P1    S    
C51   H55   S    
C40   C41   A    
C14   C15   A    
C21   C22   T    
C34   C44   S    
C7    C8    S    
C25   C54   S    
C38   C42   A    
O24   P3    D    
O14   P7    D    
S1    O27   S    
S3    O32   D    
S3    O31   D    
Ba2   O4    S    
C23   H44   S    
C19   C20   A    
C54   H67   S    
C27   S4    S    
S4    O34   D    
C5    H20   S    
O7    P4    S    
C8    H27   S    
S4    O36   S    
C45   O20   S    
C17   P4    S    
C6    H22   S    
O5    P4    S    
O20   P1    S    
C2    H1    S    
C53   H64   S    
C39   P5    S    
C46   H7    S    
C51   H57   S    
O11   P5    S    
C3    H15   S    
C41   C53   S    
Ba1   O1    S    
O36   H65   S    
C16   C17   A    
S2    O29   D    
C3    O15   S    
Ba2   O5    S    
C47   H8    S    
O4    P4    D    
C32   H35   S    
C53   H63   S    
C31   H36   S    
C27   C28   A    
C19   H32   S    
C34   H46   S    
C45   C46   S    
C2    H13   S    
C11   C13   A    
Ba2   O8    S    
C28   C29   A    
C49   H49   S    
C31   C32   A    
C10   C11   A    
S2    O30   S    
C33   C42   S    
Ba1   O8    S    
O33   H58   S    
C40   P7    S    
C45   H4    S    
C5    S3    S    
C13   C22   S    
Ba2   P4    S    
C47   C49   S    
O15   P7    S    
C48   H12   S    
C54   H68   S    
C5    O11   S    
C2    O21   S    
C23   H19   S    
Ba1   O18   S    
C1    C2    S    
Ba1   O5    S    
C45   H5    S    
S1    O25   D    
O21   P6    S    
O3    P3    S    
C50   H53   S    
Ba2   O14   S    
C6    H21   S    
C33   C35   A    
C25   C30   A    
C16   C20   A    
C52   H61   S    
C8    H29   S    
C18   P8    S    
S2    O28   D    
O23   P3    S    
C9    H34   S    
O30   H48   S    
C11   H33   S    
Ba2   O9    S    
C29   H41   S    
O9    P5    S    
C7    O17   S    
C53   H62   S    
C52   H60   S    
C48   H10   S    
C4    H17   S    
C4    C51   S    
C49   H50   S    
C34   H45   S    
C36   C37   A    
O8    P7    S    
C18   C24   A    
C44   H3    S    
S4    O35   D    
C6    H23   S    
C28   C37   S    
O27   H47   S    
Ba1   O22   S    
C12   H28   S    
C12   C23   S    
O13   P2    S    
O10   P5    D    
Ba1   P1    S    
O16   P8    D    
C5    C6    S    
Ba1   O12   S    
C4    H16   S    
C52   H59   S    
C18   C19   A    
O2    P2    S    
C16   H30   S    
C47   C48   S    
C7    H24   S    
C25   C26   A    
C48   H11   S    
C39   C43   A    
C20   C21   S    
C38   C39   A    
C7    H25   S    
C38   H40   S    
C40   C43   A    
C13   C14   A    
C9    C10   A    
S1    O26   D    
C1    H9    S    
