data_mof_unit_48282.cif
_audit_creation_date              2012-12-10T18:31:10-0500
_audit_creation_method            fapswitch 2.2
_symmetry_space_group_name_H-M    P1
_symmetry_Int_Tables_number       1
_space_group_crystal_system       triclinic
_cell_length_a                    13.720349
_cell_length_b                    15.013735
_cell_length_c                    15.282758
_cell_angle_alpha                 98.050956
_cell_angle_beta                  92.19113
_cell_angle_gamma                 98.021362
_cell_volume                      3081.2616845

loop_
_atom_site_label
_atom_site_type_symbol
_atom_type_description
_atom_site_fract_x
_atom_site_fract_y
_atom_site_fract_z
_atom_type_partial_charge
C1    C     C_R   0.519499 0.556476 0.662595 0.870812
C2    C     C_R   0.482158 0.442826 0.337475 0.881870
C3    C     C_R   0.556734 0.531574 0.896791 0.027158
C4    C     C_R   0.507494 0.415901 0.093251 0.030682
C5    C     C_R   0.642667 0.595216 0.926444 0.075984
C6    C     C_R   0.427183 0.346226 0.060698 0.072608
C7    C     C_R   0.520293 0.463778 0.948173 0.044901
C8    C     C_R   0.559500 0.468493 0.034976 0.047309
C9    C     C_R   0.649214 0.526058 0.060986 -0.226040
C10   C     C_R   0.446503 0.390733 0.914498 -0.213747
C11   C     C_R   0.693114 0.586423 0.007129 0.190683
C12   C     C_R   0.398742 0.332799 0.968568 0.199535
C13   C     C_R   0.348601 0.160575 0.625528 0.145166
C14   C     C_R   0.617671 0.823614 0.341741 0.119940
C15   C     C_R   0.367169 0.249287 0.602704 0.300933
C16   C     C_R   0.605516 0.739266 0.372947 0.322728
C17   C     C_R   0.501087 0.209938 0.519118 0.029896
C18   C     C_R   0.526403 0.800453 0.498435 -0.015762
C19   C     C_R   0.481192 0.119809 0.536272 -0.047833
C20   C     C_R   0.552739 0.889806 0.477769 -0.032285
C21   C     C_R   0.417369 0.100640 0.603566 0.029968
C22   C     C_R   0.600687 0.900924 0.398720 0.038476
C23   C     C_R   0.318817 0.514015 0.496687 0.884743
C24   C     C_R   0.681175 0.485917 0.503225 0.883221
C25   C     C_R   0.524294 0.048544 0.490444 -0.130313
C26   C     C_R   0.525772 0.967905 0.529473 -0.106876
C27   C     C_R   0.498052 0.968172 0.617705 0.435384
C28   C     C_R   0.564554 0.053636 0.406782 0.424580
C29   C     C_R   0.431600 0.027218 0.650403 0.075686
C30   C     C_R   0.622363 0.988786 0.375174 0.121069
C31   C     C_1   0.781538 0.476748 0.505818 -0.191852
C32   C     C_1   0.218435 0.523059 0.494204 -0.199982
C33   C     C_2   0.969033 0.463908 0.509551 0.190694
C34   C     C_2   0.030909 0.535669 0.490744 0.184393
C35   C     C_1   0.133483 0.530865 0.492080 0.019868
C36   C     C_1   0.866449 0.468761 0.508092 0.022270
C37   C     C_R   0.553708 0.586793 0.755527 -0.082267
C38   C     C_R   0.463808 0.404784 0.243790 -0.079921
C39   C     C_R   0.676203 0.661692 0.871650 0.193190
C40   C     C_R   0.376070 0.297227 0.123090 0.191373
C41   C     C_R   0.641101 0.647903 0.781798 0.157349
C42   C     C_R   0.384585 0.335662 0.213328 0.189603
C43   C     C_R   0.507648 0.537994 0.816548 -0.279410
C44   C     C_R   0.528077 0.438037 0.184760 -0.290956
H1    H     H_    0.589431 0.487462 0.212583 0.149688
H2    H     H_    0.435891 0.499544 0.796419 0.149962
H3    H     H_    0.690037 0.521029 0.121403 0.153447
H4    H     H_    0.425096 0.376875 0.844706 0.155886
H5    H     H_    0.481898 0.788237 0.553388 0.183628
H6    H     H_    0.562175 0.231403 0.481062 0.188505
N1    N     N_R   0.445040 0.272490 0.551770 -0.127207
N2    N     N_R   0.554960 0.727510 0.448230 -0.125878
O1    O     O_R   0.527700 0.614770 0.606110 -0.585100
O2    O     O_R   0.472300 0.385230 0.393890 -0.563401
O3    O     O_R   0.492440 0.468680 0.639380 -0.628440
O4    O     O_R   0.507560 0.531320 0.360620 -0.622601
O5    O     O_R   0.379820 0.583550 0.480950 -0.598365
O6    O     O_R   0.620180 0.416450 0.519050 -0.600042
O7    O     O_R   0.344560 0.437460 0.514220 -0.619146
O8    O     O_R   0.655440 0.562540 0.485780 -0.628746
Zn1   Zn    Zn3+2 0.523550 0.597550 0.477790 0.957596
Zn2   Zn    Zn3+2 0.476450 0.402450 0.522210 0.967781
C45   C     C_3   0.996226 0.621394 0.468187 -0.897805
H7    H     H_    0.059323 0.671784 0.455053 0.249444
H8    H     H_    0.945318 0.605138 0.408007 0.240994
H9    H     H_    0.957384 0.652946 0.524229 0.246727
C46   C     C_3   0.003723 0.378194 0.532159 -0.906183
H10   H     H_    0.940617 0.327804 0.545276 0.252187
H11   H     H_    0.042619 0.346626 0.476163 0.243938
H12   H     H_    0.054614 0.394461 0.592351 0.240886
C47   C     C_3   0.248262 0.125484 0.655561 -0.908320
H13   H     H_    0.189402 0.157094 0.625223 0.251631
H14   H     H_    0.227859 0.051718 0.631701 0.252005
H15   H     H_    0.246934 0.139913 0.728696 0.244428
C48   C     C_3   0.632719 0.826785 0.243767 -0.883143
H16   H     H_    0.594327 0.764439 0.202010 0.244064
H17   H     H_    0.598758 0.882275 0.219703 0.285295
H18   H     H_    0.712313 0.833807 0.231074 0.237312
S1    S     S_3+6 0.571000 0.919837 0.692457 -0.029647
O9    O     O_2   0.512506 0.836105 0.718220 -0.358821
O10   O     O_2   0.663113 0.896133 0.650446 -0.324857
O11   O     O_3   0.604349 0.996015 0.783984 -0.547250
H19   H     H_    0.639641 0.963163 0.824056 0.381348
S2    S     S_3+6 0.517652 0.114299 0.326078 -0.014691
O12   O     O_2   0.416155 0.134335 0.346923 -0.329704
O13   O     O_2   0.585490 0.201378 0.322787 -0.331951
O14   O     O_3   0.510036 0.050179 0.225863 -0.565400
H20   H     H_    0.490176 0.089933 0.183889 0.384521
C49   C     C_3   0.797700 0.631175 0.034080 -0.901140
H21   H     H_    0.832802 0.596234 0.083629 0.235994
H22   H     H_    0.844033 0.626690 0.976151 0.250866
H23   H     H_    0.799339 0.702619 0.065208 0.244891
C50   C     C_3   0.309826 0.267730 0.926104 -0.908647
H24   H     H_    0.291591 0.278698 0.857362 0.227691
H25   H     H_    0.323596 0.196338 0.921057 0.247712
H26   H     H_    0.243629 0.278960 0.963136 0.250526
C51   C     C_3   0.305273 0.308349 0.274862 -0.819552
H27   H     H_    0.281950 0.370090 0.312051 0.207243
H28   H     H_    0.237968 0.268815 0.238375 0.235217
H29   H     H_    0.332886 0.267266 0.322428 0.303914
C52   C     C_3   0.700995 0.691541 0.713852 -0.765975
H30   H     H_    0.718578 0.638011 0.661579 0.211888
H31   H     H_    0.658665 0.737804 0.683451 0.317811
H32   H     H_    0.772657 0.730380 0.741957 0.234536
C53   C     C_3   0.736468 0.752161 0.909221 -0.880525
H33   H     H_    0.719848 0.806350 0.870788 0.263119
H34   H     H_    0.715608 0.774930 0.977228 0.245131
H35   H     H_    0.816535 0.748460 0.907590 0.240398
C54   C     C_3   0.325562 0.200048 0.098990 -0.879846
H36   H     H_    0.325332 0.163164 0.157129 0.272653
H37   H     H_    0.247854 0.197331 0.074919 0.240669
H38   H     H_    0.367744 0.161606 0.050259 0.244006
C55   C     C_3   0.387989 0.019826 0.739535 -0.757611
H39   H     H_    0.419227 0.971592 0.776873 0.295050
H40   H     H_    0.400286 0.087194 0.782036 0.240180
H41   H     H_    0.308424 0.993122 0.730927 0.215280
C56   C     C_3   0.711248 0.018081 0.324811 -0.800607
H42   H     H_    0.749679 0.084977 0.358101 0.237770
H43   H     H_    0.765634 0.969943 0.324996 0.230157
H44   H     H_    0.689748 0.025261 0.255789 0.284502
C57   C     C_3   0.647847 0.663756 0.318398 -0.826907
H45   H     H_    0.669842 0.612391 0.355609 0.274708
H46   H     H_    0.594658 0.632867 0.262537 0.230577
H47   H     H_    0.717614 0.690859 0.290542 0.208381
C58   C     C_3   0.301043 0.317568 0.635915 -0.835605
H48   H     H_    0.343036 0.384869 0.659681 0.264015
H49   H     H_    0.244354 0.321124 0.583282 0.247967
H50   H     H_    0.262408 0.299431 0.694772 0.204160

loop_
_geom_bond_atom_site_label_1
_geom_bond_atom_site_label_2
_ccdc_geom_bond_type
O6    Zn2   S    
C7    C10   A    
O14   H20   S    
C45   H8    S    
C52   H30   S    
C27   C29   A    
S2    O14   S    
C4    C8    A    
C17   N1    A    
C51   H27   S    
C18   N2    A    
C7    C8    A    
C39   C41   A    
C25   C28   A    
C23   O7    A    
C53   H34   S    
C3    C43   A    
C26   C27   A    
C50   H24   S    
C19   C21   A    
S2    O13   D    
C38   C42   A    
C27   S1    S    
N2    Zn1   S    
C54   H37   S    
C6    C12   A    
C43   H2    S    
C28   S2    S    
O3    Zn2   S    
C33   C36   S    
C39   C53   S    
C34   C35   S    
C2    C38   S    
C57   H47   S    
C1    O1    A    
O1    Zn1   S    
C8    C9    A    
C58   H50   S    
C14   C16   A    
C15   N1    A    
C49   H22   S    
C1    C37   S    
C55   H41   S    
C40   C42   A    
C45   H9    S    
C52   H31   S    
N1    Zn2   S    
C13   C47   S    
C51   H28   S    
C53   H35   S    
C46   H10   S    
C32   C35   T    
S2    O12   D    
C4    C6    A    
C2    O2    A    
C42   C51   S    
S1    O10   D    
O2    Zn2   S    
C25   C26   A    
C21   C29   A    
C54   H38   S    
O8    Zn1   S    
C46   H11   S    
C37   C43   A    
C48   H16   S    
C38   C44   A    
S1    O11   S    
C9    C11   A    
C11   C49   S    
C24   O8    A    
C33   C34   D    
C13   C21   A    
C49   H23   S    
C48   H17   S    
C57   H45   S    
C10   C12   A    
C24   O6    A    
C20   C22   A    
C9    H3    S    
C52   H32   S    
C13   C15   A    
C5    C11   A    
C10   H4    S    
C58   H48   S    
C6    C40   A    
C12   C50   S    
C56   H44   S    
C51   H29   S    
C44   H1    S    
C33   C46   S    
C47   H14   S    
C55   H39   S    
C23   O5    A    
C16   C57   S    
C29   C55   S    
O7    Zn2   S    
C22   C30   A    
C31   C36   T    
C16   N2    A    
C45   H7    S    
C3    C5    A    
C17   H6    S    
C47   H15   S    
O5    Zn1   S    
C40   C54   S    
C30   C56   S    
C50   H26   S    
C4    C44   A    
C53   H33   S    
C3    C7    A    
C5    C39   A    
C46   H12   S    
C23   C32   S    
C14   C22   A    
C56   H43   S    
C1    O3    A    
C24   C31   S    
C47   H13   S    
C2    O4    A    
C54   H36   S    
C14   C48   S    
C20   C26   A    
C28   C30   A    
C34   C45   S    
C17   C19   A    
C41   C52   S    
C18   C20   A    
C37   C41   A    
C19   C25   A    
C48   H18   S    
C57   H46   S    
S1    O9    D    
C50   H25   S    
O11   H19   S    
C15   C58   S    
C58   H49   S    
O4    Zn1   S    
C49   H21   S    
C56   H42   S    
C18   H5    S    
C55   H40   S    
