data_mof_unit_49603.cif
_audit_creation_date              2012-12-11T15:22:38-0500
_audit_creation_method            fapswitch 2.2
_symmetry_space_group_name_H-M    P1
_symmetry_Int_Tables_number       1
_space_group_crystal_system       triclinic
_cell_length_a                    22.489606
_cell_length_b                    12.972222
_cell_length_c                    26.990476
_cell_angle_alpha                 90.162484
_cell_angle_beta                  90.565688
_cell_angle_gamma                 90.131422
_cell_volume                      7873.76916809

loop_
_atom_site_label
_atom_site_type_symbol
_atom_type_description
_atom_site_fract_x
_atom_site_fract_y
_atom_site_fract_z
_atom_type_partial_charge
C1    C     C_R   0.720625 0.344845 0.178209 0.545492
C2    C     C_R   0.479023 0.254408 0.897630 -0.163633
C3    C     C_R   0.012606 0.580619 0.556985 0.239775
C4    C     C_R   0.489671 0.108795 0.392077 -0.099527
C5    C     C_R   0.498047 0.078951 0.607089 -0.092027
C6    C     C_R   0.989602 0.608855 0.392048 -0.099338
C7    C     C_R   0.997983 0.578994 0.607041 -0.091624
C8    C     C_R   0.739889 0.963322 0.373714 -0.026396
C9    C     C_R   0.263101 0.971505 0.626365 0.028428
C10   C     C_R   0.239885 0.463319 0.373708 -0.026256
C11   C     C_R   0.763088 0.471504 0.626357 0.029042
C12   C     C_R   0.699786 0.892996 0.395869 0.091687
C13   C     C_R   0.021094 0.754283 0.102816 -0.158731
C14   C     C_R   0.255446 0.869170 0.610958 0.083820
C15   C     C_R   0.199874 0.392744 0.395803 0.091775
C16   C     C_R   0.755754 0.369109 0.610941 0.084382
C17   C     C_R   0.702283 0.878138 0.447280 0.144667
C18   C     C_R   0.253511 0.847405 0.559704 0.077547
C19   C     C_R   0.202338 0.377811 0.447211 0.144722
C20   C     C_R   0.753857 0.347350 0.559691 0.077533
C21   C     C_R   0.744197 0.933049 0.475900 0.055052
C22   C     C_R   0.260540 0.928862 0.525607 0.066970
C23   C     C_R   0.244136 0.432885 0.475883 0.054991
C24   C     C_R   0.978145 0.754374 0.898024 -0.157246
C25   C     C_R   0.760639 0.428874 0.525597 0.067019
C26   C     C_R   0.785772 0.998075 0.453450 0.193413
C27   C     C_R   0.270398 0.030028 0.542152 0.234534
C28   C     C_R   0.285616 0.498198 0.453492 0.193294
C29   C     C_R   0.770236 0.530105 0.542149 0.234189
C30   C     C_R   0.783809 0.011710 0.402909 -0.108017
C31   C     C_R   0.271120 0.050684 0.592198 -0.109193
C32   C     C_R   0.283679 0.511922 0.402956 -0.108096
C33   C     C_R   0.770876 0.550757 0.592194 -0.109218
C34   C     C_R   0.801346 0.862482 0.544437 -0.025080
C35   C     C_R   0.511030 0.254342 0.051344 0.016734
C36   C     C_R   0.206845 0.961010 0.447663 -0.093797
C37   C     C_R   0.301367 0.362530 0.544426 -0.024452
C38   C     C_R   0.706844 0.460863 0.447685 -0.093737
C39   C     C_R   0.720754 0.346455 0.322093 0.539561
C40   C     C_R   0.278735 0.348199 0.678928 0.544208
C41   C     C_R   0.220752 0.846454 0.322095 0.539280
C42   C     C_R   0.778728 0.848221 0.678936 0.532677
C43   C     C_R   0.809787 0.843552 0.593991 -0.106700
C44   C     C_R   0.199727 0.947858 0.397147 -0.126497
C45   C     C_R   0.309847 0.343715 0.593987 -0.108008
C46   C     C_R   0.491919 0.254473 0.948393 0.014439
C47   C     C_R   0.699697 0.447733 0.397173 -0.126456
C48   C     C_R   0.714457 0.922400 0.612452 -0.130972
C49   C     C_R   0.286468 0.836351 0.396201 -0.107715
C50   C     C_R   0.214355 0.422023 0.612422 -0.130224
C51   C     C_R   0.786550 0.336480 0.396162 -0.107721
C52   C     C_R   0.706333 0.942890 0.562123 -0.073811
C53   C     C_R   0.293953 0.850792 0.446899 -0.017421
C54   C     C_R   0.206201 0.442440 0.562089 -0.074054
C55   C     C_R   0.794072 0.350922 0.446856 -0.017381
C56   C     C_R   0.750061 0.912542 0.528406 0.102851
C57   C     C_R   0.008138 0.754498 0.052079 0.009914
C58   C     C_R   0.253341 0.911391 0.472684 0.098388
C59   C     C_R   0.249992 0.412316 0.528383 0.102916
C60   C     C_R   0.753421 0.411389 0.472674 0.098446
C61   C     C_R   0.766835 0.874004 0.628084 0.031600
C62   C     C_R   0.238192 0.882510 0.371312 0.013482
C63   C     C_R   0.266836 0.373968 0.628072 0.029082
C64   C     C_R   0.738204 0.382517 0.371307 0.013446
C65   C     C_R   0.554868 0.159015 0.321760 0.545093
C66   C     C_R   0.446150 0.158723 0.678602 0.544710
C67   C     C_R   0.054854 0.659019 0.321752 0.545026
C68   C     C_R   0.990182 0.754474 0.948950 0.012468
C69   C     C_R   0.946141 0.658725 0.678596 0.543350
C70   C     C_R   0.731426 0.002998 0.323425 0.545463
C71   C     C_R   0.267942 0.001085 0.677681 0.586310
C72   C     C_R   0.231429 0.502990 0.323420 0.544769
C73   C     C_R   0.767943 0.501093 0.677675 0.583930
C74   C     C_R   0.504188 0.069473 0.104733 0.112494
C75   C     C_R   0.494710 0.068921 0.895091 0.113958
C76   C     C_R   0.002605 0.569474 0.105441 0.113854
C77   C     C_R   0.993353 0.568768 0.895736 0.113995
C78   C     C_R   0.501107 0.065983 0.052422 0.067140
C79   C     C_R   0.503193 0.159782 0.025898 -0.000644
C80   C     C_R   0.497238 0.065678 0.947358 0.065810
C81   C     C_R   0.998738 0.566026 0.053137 0.067433
C82   C     C_R   0.995153 0.565649 0.948035 0.067307
C83   C     C_R   0.497730 0.971287 0.973711 0.102806
C84   C     C_R   0.498197 0.971473 0.025959 0.104251
C85   C     C_R   0.995035 0.471299 0.974422 0.104678
C86   C     C_R   0.995376 0.471524 0.026672 0.106357
C87   C     C_R   0.497312 0.159743 0.973885 -0.001205
C88   C     C_R   0.000645 0.659859 0.026597 -0.005030
C89   C     C_R   0.294539 0.306993 0.827044 0.558777
C90   C     C_R   0.995124 0.659763 0.974534 -0.004199
C91   C     C_R   0.508812 0.347528 0.025233 -0.097775
C92   C     C_R   0.497000 0.347694 0.974437 -0.109858
C93   C     C_R   0.005578 0.847695 0.025994 -0.111716
C94   C     C_R   0.994736 0.847741 0.975047 -0.110399
C95   C     C_R   0.738247 0.958313 0.129598 0.002773
C96   C     C_R   0.262694 0.963135 0.871454 0.002042
C97   C     C_R   0.242386 0.444504 0.133181 0.001855
C98   C     C_R   0.761918 0.459792 0.870637 0.003893
C99   C     C_R   0.794399 0.953456 0.107736 -0.123577
C100  C     C_R   0.220799 0.845380 0.178409 0.545328
C101  C     C_R   0.206859 0.959128 0.893919 -0.126690
C102  C     C_R   0.300491 0.423738 0.117955 -0.123585
C103  C     C_R   0.705810 0.454319 0.892547 -0.123204
C104  C     C_R   0.799464 0.933124 0.056961 0.101869
C105  C     C_R   0.202444 0.941734 0.944968 0.100935
C106  C     C_R   0.311071 0.383493 0.070571 0.099734
C107  C     C_R   0.700833 0.434129 0.943312 0.101898
C108  C     C_R   0.747526 0.920605 0.027682 0.069876
C109  C     C_R   0.254740 0.931169 0.973954 0.069977
C110  C     C_R   0.263020 0.366834 0.037355 0.069046
C111  C     C_R   0.779396 0.844989 0.821808 0.543364
C112  C     C_R   0.752794 0.422429 0.972576 0.069632
C113  C     C_R   0.691783 0.919822 0.050362 -0.155822
C114  C     C_R   0.310223 0.930972 0.950856 -0.152942
C115  C     C_R   0.204726 0.381515 0.054052 -0.153945
C116  C     C_R   0.808518 0.422793 0.949895 -0.155613
C117  C     C_R   0.552839 0.156886 0.177804 0.542920
C118  C     C_R   0.447251 0.157086 0.822152 0.532662
C119  C     C_R   0.052600 0.656896 0.177938 0.542590
C120  C     C_R   0.947138 0.657077 0.822254 0.540532
C121  C     C_R   0.687199 0.937385 0.100870 -0.136353
C122  C     C_R   0.477422 0.161514 0.871061 -0.014149
C123  C     C_R   0.314163 0.945722 0.900116 -0.134877
C124  C     C_R   0.194483 0.419284 0.101602 -0.137712
C125  C     C_R   0.813039 0.440169 0.899394 -0.135265
C126  C     C_R   0.717304 0.832280 0.949533 -0.123642
C127  C     C_R   0.285375 0.841067 0.051278 -0.121755
C128  C     C_R   0.238812 0.272453 0.958091 -0.122757
C129  C     C_R   0.783072 0.333735 0.050409 -0.123186
C130  C     C_R   0.722561 0.817576 0.898760 -0.119647
C131  C     C_R   0.279245 0.823191 0.101740 -0.119889
C132  C     C_R   0.245054 0.260644 0.906841 -0.128285
C133  C     C_R   0.523007 0.161509 0.128770 -0.017532
C134  C     C_R   0.777671 0.318406 0.101126 -0.118922
C135  C     C_R   0.791505 0.961350 0.894690 -0.127094
C136  C     C_R   0.210132 0.965940 0.107278 -0.125531
C137  C     C_R   0.320205 0.394724 0.907056 -0.126814
C138  C     C_R   0.708685 0.461509 0.105761 -0.127645
C139  C     C_R   0.785361 0.977171 0.945439 -0.083431
C140  C     C_R   0.217069 0.984834 0.056879 -0.081874
C141  C     C_R   0.313449 0.407285 0.957898 -0.086018
C142  C     C_R   0.714876 0.477824 0.055090 -0.083869
C143  C     C_R   0.750275 0.909847 0.973480 0.063156
C144  C     C_R   0.976733 0.661445 0.871453 -0.014927
C145  C     C_R   0.252491 0.919346 0.028145 0.062967
C146  C     C_R   0.272934 0.346181 0.984040 0.064578
C147  C     C_R   0.750066 0.411170 0.026763 0.063312
C148  C     C_R   0.761646 0.879252 0.871297 0.022946
C149  C     C_R   0.239479 0.882513 0.129661 0.022096
C150  C     C_R   0.285417 0.322502 0.880727 0.018781
C151  C     C_R   0.738513 0.379460 0.128836 0.022975
C152  C     C_R   0.535339 0.169568 0.372976 -0.033717
C153  C     C_R   0.475515 0.167347 0.630287 -0.044342
C154  C     C_R   0.035283 0.669606 0.372953 -0.033563
C155  C     C_R   0.021750 0.661527 0.129298 -0.015362
C156  C     C_R   0.975469 0.667371 0.630266 -0.043659
C157  C     C_R   0.569480 0.232011 0.404820 -0.126401
C158  C     C_R   0.472416 0.259954 0.603747 -0.151088
C159  C     C_R   0.069376 0.732137 0.404790 -0.126335
C160  C     C_R   0.972345 0.759998 0.603741 -0.151072
C161  C     C_R   0.559872 0.231461 0.455732 0.088853
C162  C     C_R   0.485513 0.262045 0.553220 0.086163
C163  C     C_R   0.059735 0.731656 0.455696 0.088911
C164  C     C_R   0.985410 0.762135 0.553210 0.085983
C165  C     C_R   0.731006 0.002064 0.179269 0.544496
C166  C     C_R   0.523376 0.254114 0.102164 -0.165043
C167  C     C_R   0.269190 0.003189 0.821039 0.536124
C168  C     C_R   0.231358 0.500822 0.179609 0.543821
C169  C     C_R   0.769037 0.502575 0.820820 0.545686
C170  C     C_R   0.513726 0.171045 0.475170 0.137214
C171  C     C_R   0.503753 0.170966 0.529174 0.143903
C172  C     C_R   0.013602 0.671209 0.475135 0.137269
C173  C     C_R   0.003643 0.671082 0.529140 0.143807
C174  C     C_R   0.477724 0.111065 0.442815 0.267737
C175  C     C_R   0.512701 0.080532 0.557041 0.239928
C176  C     C_R   0.977615 0.611201 0.442779 0.267748
Cl1   Cl    Cl    0.540962 0.966939 0.530280 -0.609213
Cl2   Cl    Cl    0.417580 0.037272 0.464432 -0.517546
Cl3   Cl    Cl    0.040849 0.467048 0.530188 -0.609158
Cl4   Cl    Cl    0.917433 0.537490 0.464389 -0.517964
Cl5   Cl    Cl    0.840506 0.066417 0.487537 -0.657139
Cl6   Cl    Cl    0.282484 0.132983 0.500996 -0.599727
Cl7   Cl    Cl    0.340193 0.566786 0.487646 -0.656959
Cl8   Cl    Cl    0.782119 0.633147 0.501003 -0.600015
Cr1   Cr    Cr6+3 0.756570 0.170940 0.251190 1.024405
Cr2   Cr    Cr6+3 0.374010 0.036240 0.749520 1.028013
Cr3   Cr    Cr6+3 0.125990 0.536240 0.250480 1.010592
Cr4   Cr    Cr6+3 0.874010 0.536240 0.749520 1.033078
Cr5   Cr    Cr6+3 0.243430 0.170940 0.748810 1.032130
Cr6   Cr    Cr6+3 0.256570 0.670940 0.251190 1.023949
Cr7   Cr    Cr6+3 0.743430 0.670940 0.748810 1.031126
Cr8   Cr    Cr6+3 0.623740 0.299110 0.249580 1.024019
Cr9   Cr    Cr6+3 0.376260 0.299110 0.750420 1.015456
Cr10  Cr    Cr6+3 0.123740 0.799110 0.249580 1.024743
Cr11  Cr    Cr6+3 0.876260 0.799110 0.750420 1.022069
Cr12  Cr    Cr6+3 0.625990 0.036240 0.250480 1.009254
H1    H     H_    0.821591 0.010279 0.874222 0.126012
H2    H     H_    0.358005 0.950003 0.883962 0.148169
H3    H     H_    0.202338 0.718848 0.555439 0.234513
H4    H     H_    0.119120 0.328971 0.462859 0.287674
H5    H     H_    0.169324 0.233479 0.454885 0.277760
H6    H     H_    0.777289 0.197036 0.556416 0.284107
H7    H     H_    0.703068 0.218315 0.555422 0.234270
H8    H     H_    0.880238 0.993462 0.042213 0.213151
H9    H     H_    0.879908 0.865377 0.053469 0.242332
H10   H     H_    0.121820 0.002019 0.959843 0.212011
H11   H     H_    0.122049 0.873399 0.949686 0.243055
H12   H     H_    0.395909 0.427822 0.059848 0.214873
H13   H     H_    0.149110 0.434753 0.112483 0.141181
H14   H     H_    0.387754 0.306218 0.081033 0.240905
H15   H     H_    0.619878 0.493070 0.958166 0.212493
H16   H     H_    0.620670 0.364954 0.946643 0.242286
H17   H     H_    0.857066 0.445085 0.883627 0.147929
H18   H     H_    0.606212 0.276884 0.390551 0.139747
H19   H     H_    0.456204 0.329547 0.621254 0.141749
H20   H     H_    0.106103 0.777029 0.390526 0.139819
H21   H     H_    0.956134 0.829573 0.621266 0.141688
H22   H     H_    0.502046 0.007235 0.627308 0.171412
H23   H     H_    0.463630 0.059549 0.367655 0.152575
H24   H     H_    0.001993 0.507261 0.627245 0.171671
H25   H     H_    0.179697 0.013417 0.128166 0.125432
H26   H     H_    0.963579 0.559578 0.367627 0.152601
H27   H     H_    0.834589 0.837590 0.518259 0.181094
H28   H     H_    0.175661 0.009003 0.467538 0.136000
H29   H     H_    0.334660 0.337805 0.518255 0.180942
H30   H     H_    0.675619 0.508739 0.467581 0.136111
H31   H     H_    0.849384 0.802818 0.605775 0.125610
H32   H     H_    0.162086 0.984114 0.378982 0.142771
H33   H     H_    0.349519 0.303205 0.605781 0.125193
H34   H     H_    0.661999 0.483890 0.379037 0.142746
H35   H     H_    0.666860 0.982786 0.549485 0.174048
H36   H     H_    0.352424 0.442666 0.888393 0.130325
H37   H     H_    0.330675 0.813972 0.466098 0.198744
H38   H     H_    0.166667 0.482123 0.549441 0.174384
H39   H     H_    0.830852 0.314203 0.466028 0.198643
H40   H     H_    0.680943 0.945046 0.638860 0.117506
H41   H     H_    0.316603 0.785168 0.377100 0.142773
H42   H     H_    0.180784 0.444477 0.638819 0.120070
H43   H     H_    0.816719 0.285396 0.377036 0.142817
H44   H     H_    0.815243 0.065380 0.387016 0.177861
H45   H     H_    0.278773 0.129105 0.604737 0.148257
H46   H     H_    0.315029 0.565813 0.387111 0.177715
H47   H     H_    0.678552 0.510026 0.126405 0.124671
H48   H     H_    0.778321 0.629232 0.604734 0.148836
H49   H     H_    0.468434 0.326315 0.879192 0.125314
H50   H     H_    0.535289 0.325701 0.120615 0.133019
H51   H     H_    0.968012 0.826310 0.879438 0.131965
H52   H     H_    0.033032 0.825920 0.121212 0.132986
H53   H     H_    0.493210 0.420750 0.955304 0.096451
H54   H     H_    0.514723 0.420463 0.044349 0.102384
H55   H     H_    0.991164 0.920777 0.955868 0.106414
H56   H     H_    0.011021 0.920686 0.045155 0.107121
H57   H     H_    0.834148 0.968253 0.129665 0.121731
H58   H     H_    0.651392 0.910001 0.028612 0.113121
H59   H     H_    0.166813 0.971974 0.872169 0.124065
H60   H     H_    0.337785 0.440537 0.142422 0.121346
H61   H     H_    0.666010 0.468253 0.870641 0.122142
H62   H     H_    0.689493 0.780134 0.970421 0.099344
H63   H     H_    0.313531 0.790399 0.029876 0.101020
H64   H     H_    0.207255 0.224332 0.977447 0.099929
H65   H     H_    0.811000 0.282141 0.029302 0.098300
H66   H     H_    0.699224 0.753201 0.881797 0.138323
H67   H     H_    0.302362 0.758164 0.117972 0.137765
H68   H     H_    0.218643 0.202766 0.887728 0.137455
H69   H     H_    0.350853 0.922925 0.972399 0.114676
H70   H     H_    0.800985 0.254109 0.117837 0.137923
H71   H     H_    0.809278 0.040169 0.963019 0.125076
H72   H     H_    0.193240 0.048379 0.040016 0.122502
H73   H     H_    0.339077 0.466776 0.976596 0.124648
H74   H     H_    0.690911 0.540691 0.037779 0.124642
H75   H     H_    0.474954 0.938417 0.855431 0.269084
H76   H     H_    0.537105 0.003341 0.836160 0.234980
H77   H     H_    0.523165 0.939231 0.144289 0.267084
H78   H     H_    0.461685 0.005389 0.163876 0.234490
H79   H     H_    0.973807 0.438294 0.855979 0.268425
H80   H     H_    0.167081 0.369484 0.029336 0.110775
H81   H     H_    0.036408 0.502645 0.837280 0.236943
H82   H     H_    0.022676 0.439178 0.144565 0.267977
H83   H     H_    0.961522 0.504924 0.165177 0.234793
H84   H     H_    0.595355 0.366986 0.477869 0.241109
H85   H     H_    0.642054 0.265513 0.481444 0.247601
H86   H     H_    0.506597 0.411354 0.542051 0.251654
H87   H     H_    0.434878 0.381666 0.530317 0.255885
H88   H     H_    0.095119 0.867286 0.477805 0.241182
H89   H     H_    0.141896 0.765923 0.481390 0.247752
H90   H     H_    0.006468 0.911464 0.542066 0.251702
H91   H     H_    0.848898 0.413869 0.971666 0.112888
H92   H     H_    0.934749 0.881758 0.530350 0.256010
H93   H     H_    0.622748 0.885015 0.355950 0.270754
H94   H     H_    0.677454 0.803104 0.336647 0.242062
H95   H     H_    0.207778 0.753421 0.641613 0.231676
H96   H     H_    0.282486 0.735085 0.642105 0.246054
H97   H     H_    0.122901 0.384411 0.355808 0.270679
H98   H     H_    0.177785 0.302835 0.336522 0.241905
H99   H     H_    0.708663 0.252394 0.641469 0.230854
H100  H     H_    0.783493 0.235571 0.642199 0.245073
H101  H     H_    0.455839 0.835539 0.957788 0.213150
H102  H     H_    0.643154 0.941615 0.116647 0.146490
H103  H     H_    0.531652 0.830266 0.956651 0.230903
H104  H     H_    0.536592 0.833113 0.041705 0.212948
H105  H     H_    0.460687 0.833014 0.042800 0.230211
H106  H     H_    0.952646 0.335988 0.958446 0.211486
H107  H     H_    0.028412 0.329839 0.957430 0.233205
H108  H     H_    0.032927 0.332494 0.042487 0.214738
H109  H     H_    0.957010 0.333707 0.043429 0.229060
H110  H     H_    0.619010 0.829705 0.462987 0.287950
H111  H     H_    0.669060 0.733979 0.455040 0.277910
H112  H     H_    0.276467 0.696833 0.556449 0.284092
N1    N     N_3   0.512470 0.980118 0.866856 -0.581600
N2    N     N_3   0.248897 0.789477 0.647240 -0.629005
N3    N     N_3   0.156956 0.335120 0.367339 -0.627943
N4    N     N_3   0.749518 0.289337 0.647215 -0.631394
N5    N     N_3   0.494446 0.874751 0.947587 -0.615938
N6    N     N_3   0.498991 0.874967 0.051941 -0.613845
N7    N     N_3   0.991412 0.374774 0.948304 -0.615889
N8    N     N_3   0.995532 0.374993 0.052641 -0.612315
N9    N     N_3   0.662661 0.806864 0.470714 -0.556764
N10   N     N_3   0.243204 0.744472 0.542010 -0.622408
N11   N     N_3   0.162803 0.306305 0.470591 -0.557112
N12   N     N_3   0.485886 0.981347 0.133053 -0.581252
N13   N     N_3   0.743856 0.244334 0.541987 -0.622312
N14   N     N_3   0.857167 0.924740 0.035344 -0.639102
N15   N     N_3   0.144990 0.933832 0.967103 -0.640793
N16   N     N_3   0.370638 0.360441 0.056145 -0.632823
N17   N     N_3   0.643174 0.424789 0.964909 -0.640230
N18   N     N_3   0.011274 0.479727 0.867746 -0.579758
N19   N     N_3   0.985080 0.481153 0.133959 -0.580707
N20   N     N_3   0.598470 0.289428 0.487898 -0.625317
N21   N     N_3   0.478492 0.356015 0.526009 -0.591627
N22   N     N_3   0.098292 0.789736 0.487853 -0.625240
N23   N     N_3   0.978363 0.856127 0.526021 -0.591432
N24   N     N_3   0.656728 0.835564 0.367467 -0.627917
O1    O     O_R   0.769900 0.064540 0.196060 -0.517770
O2    O     O_R   0.433710 0.069580 0.694600 -0.508154
O3    O     O_R   0.066290 0.569580 0.305400 -0.515183
O4    O     O_R   0.933710 0.569580 0.694600 -0.509541
O5    O     O_R   0.680760 0.993330 0.302620 -0.505630
O6    O     O_R   0.319240 0.993330 0.697380 -0.479516
O7    O     O_R   0.180760 0.493330 0.302620 -0.505864
O8    O     O_R   0.819240 0.493330 0.697380 -0.482166
O9    O     O_3   0.668770 0.168760 0.250420 -0.242865
O10   O     O_3   0.331230 0.168760 0.749580 -0.272216
O11   O     O_3   0.168770 0.668760 0.250420 -0.242698
O12   O     O_R   0.230100 0.064540 0.803940 -0.529087
O13   O     O_3   0.831230 0.668760 0.749580 -0.251776
O14   O     O_R   0.750800 0.274080 0.199250 -0.502968
O15   O     O_R   0.249200 0.274080 0.800750 -0.496189
O16   O     O_R   0.250800 0.774080 0.199250 -0.502523
O17   O     O_R   0.749200 0.774080 0.800750 -0.505589
O18   O     O_R   0.669990 0.371670 0.194150 -0.517064
O19   O     O_R   0.330010 0.371670 0.805850 -0.516388
O20   O     O_R   0.169990 0.871670 0.194150 -0.516780
O21   O     O_R   0.830010 0.871670 0.805850 -0.516289
O22   O     O_R   0.574600 0.238480 0.197800 -0.497994
O23   O     O_R   0.269900 0.564540 0.196060 -0.517266
O24   O     O_R   0.425400 0.238480 0.802200 -0.515343
O25   O     O_R   0.074600 0.738480 0.197800 -0.497688
O26   O     O_R   0.925400 0.738480 0.802200 -0.497502
O27   O     O_R   0.566130 0.068680 0.194240 -0.530627
O28   O     O_R   0.433870 0.068680 0.805760 -0.531585
O29   O     O_R   0.066130 0.568680 0.194240 -0.529439
O30   O     O_R   0.933870 0.568680 0.805760 -0.531985
O31   O     O_R   0.680610 0.992490 0.199570 -0.505234
O32   O     O_R   0.319390 0.992490 0.800430 -0.503770
O33   O     O_R   0.180610 0.492490 0.199570 -0.502578
O34   O     O_R   0.730100 0.564540 0.803940 -0.519663
O35   O     O_R   0.819390 0.492490 0.800430 -0.504130
O36   O     O_R   0.770060 0.065440 0.307230 -0.521667
O37   O     O_R   0.229940 0.065440 0.692770 -0.511802
O38   O     O_R   0.270060 0.565440 0.307230 -0.522283
O39   O     O_R   0.729940 0.565440 0.692770 -0.513154
O40   O     O_R   0.750960 0.274920 0.302300 -0.504008
O41   O     O_R   0.249040 0.274920 0.697700 -0.491754
O42   O     O_R   0.250960 0.774920 0.302300 -0.504179
O43   O     O_R   0.749040 0.774920 0.697700 -0.496781
O44   O     O_R   0.670160 0.372580 0.305320 -0.523311
O45   O     O_R   0.574760 0.239320 0.300850 -0.497873
O46   O     O_R   0.329840 0.372580 0.694680 -0.510308
O47   O     O_R   0.170160 0.872580 0.305320 -0.523452
O48   O     O_R   0.829840 0.872580 0.694680 -0.515833
O49   O     O_R   0.425240 0.239320 0.699150 -0.503988
O50   O     O_R   0.074760 0.739320 0.300850 -0.497886
O51   O     O_R   0.925240 0.739320 0.699150 -0.505133
O52   O     O_R   0.566290 0.069580 0.305400 -0.515072

loop_
_geom_bond_atom_site_label_1
_geom_bond_atom_site_label_2
_ccdc_geom_bond_type
C21   C26   A    
C34   C56   A    
C157  C161  A    
H106  N7    S    
C132  C150  A    
C107  C112  A    
C123  H2    S    
C120  C144  S    
C136  C140  A    
C117  C133  S    
C79   C87   A    
C175  Cl1   S    
C135  C139  A    
C128  H64   S    
C28   Cl7   S    
C97   C124  A    
C95   C99   A    
C124  H13   S    
Cr6   O23   S    
C29   C33   A    
C126  C143  A    
H86   N21   S    
C100  O16   A    
Cr6   O11   S    
C107  N17   S    
C7    H24   S    
C98   C169  S    
C125  H17   S    
C162  C171  A    
Cr11  O26   S    
H104  N6    S    
C68   C90   A    
C113  H58   S    
C25   C60   S    
C36   H28   S    
H4    N11   S    
C84   N6    S    
C81   C86   A    
C36   C44   A    
C38   H30   S    
C55   C60   A    
H88   N22   S    
H95   N2    S    
C80   C83   A    
Cr12  O5    S    
H108  N8    S    
C9    C31   A    
Cr2   O6    S    
C25   C29   A    
H12   N16   S    
H105  N6    S    
C126  H62   S    
C27   C31   A    
C69   C156  S    
C28   C32   A    
C69   O51   A    
C49   H41   S    
C47   C64   A    
C17   C21   A    
C108  C113  A    
C19   C23   A    
C142  H74   S    
C22   C58   S    
Cr12  O52   S    
C156  C160  A    
C16   C20   A    
C4    H23   S    
C121  H102  S    
C42   O48   A    
C164  C173  A    
C163  C172  A    
C127  C145  A    
H7    N13   S    
C89   C150  S    
Cr1   O40   S    
C22   C27   A    
C100  C149  S    
C131  C149  A    
Cr1   O14   S    
C37   C45   A    
C72   O38   A    
H82   N19   S    
C43   C61   A    
C170  C174  A    
C70   O5    A    
C139  H71   S    
C152  C157  A    
C49   C62   A    
C32   H46   S    
C117  O27   A    
C109  C145  S    
C51   C64   A    
C30   H44   S    
C1    O18   A    
C140  C145  A    
C135  H1    S    
C66   C153  S    
C53   C58   A    
C164  N23   S    
C65   O45   A    
C138  C151  A    
C82   C85   A    
Cr7   O43   S    
C76   C155  A    
H81   N18   S    
Cr7   O13   S    
C111  C148  S    
C77   C82   A    
C49   C53   A    
C134  C151  A    
C51   C55   A    
H3    N10   S    
C66   O2    A    
C127  C131  A    
C129  C147  A    
C81   C88   A    
C65   O52   A    
Cr8   O9    S    
C48   C52   A    
C13   H52   S    
Cr4   O30   S    
Cr5   O10   S    
Cr1   O1    S    
Cr4   O4    S    
C103  C107  A    
Cr9   O46   S    
C138  H47   S    
C6    H26   S    
C91   H54   S    
C89   O19   A    
H9    N14   S    
H111  N9    S    
C133  C166  A    
H92   N23   S    
Cr8   O18   S    
Cr4   O35   S    
C15   N3    S    
C85   C86   A    
C23   C59   S    
H109  N8    S    
C67   C154  S    
C101  H59   S    
C2    H49   S    
Cr1   O9    S    
C12   N24   S    
H77   N12   S    
Cr3   O11   S    
C13   C57   A    
C170  C171  S    
C162  N21   S    
C111  O21   A    
H11   N15   S    
C118  C122  S    
C120  O26   A    
C153  C158  A    
C104  N14   S    
H76   N1    S    
C139  C143  A    
C98   C125  A    
C7    C156  A    
C83   C84   A    
C163  N22   S    
C73   O39   A    
Cr12  O27   S    
C50   C63   A    
C137  H36   S    
C74   N12   S    
C165  O31   A    
C131  H67   S    
C54   C59   A    
C4    C152  A    
C72   O7    A    
C100  O20   A    
C166  H50   S    
C11   C33   A    
C39   O40   A    
C110  C146  S    
C91   C92   A    
C69   O4    A    
C68   C94   A    
C118  O28   A    
C20   N13   S    
H93   N24   S    
H99   N4    S    
C8    C12   A    
H85   N20   S    
C23   C28   A    
Cr12  O9    S    
Cr10  O25   S    
C37   C59   A    
C109  C114  A    
C38   C60   A    
C114  C123  A    
Cr2   O10   S    
Cr3   O33   S    
C26   C30   A    
C116  C125  A    
C167  O32   A    
C127  H63   S    
C137  C150  A    
C54   H38   S    
Cr5   O41   S    
C112  C116  A    
C34   H27   S    
C46   C87   A    
C105  C109  A    
C83   N5    S    
C96   C123  A    
C17   N9    S    
C18   C22   A    
C165  O1    A    
C142  C147  A    
C34   C43   A    
Cr10  O50   S    
C19   N11   S    
C93   H56   S    
C52   H35   S    
H16   N17   S    
C97   C168  S    
C73   O8    A    
H14   N16   S    
C112  C147  S    
H6    N13   S    
C154  C159  A    
C128  C146  A    
C35   C79   A    
C102  H60   S    
C42   O43   A    
Cr2   O28   S    
H107  N7    S    
C75   N1    S    
C176  Cl4   S    
C67   O3    A    
C119  O25   A    
H79   N18   S    
Cr4   O13   S    
C119  O29   A    
C172  C176  A    
C10   C72   S    
C29   Cl8   S    
C75   C122  A    
C77   N18   S    
Cr7   O17   S    
C136  C149  A    
C47   H34   S    
C15   C19   A    
C39   C64   S    
C157  H18   S    
C50   C54   A    
C40   C63   S    
C70   O36   A    
C160  C164  A    
C14   N2    S    
C3    C7    A    
Cr6   O42   S    
C46   C92   A    
C20   C25   A    
C126  C130  A    
C98   C103  A    
Cr9   O19   S    
C35   C166  A    
C116  H91   S    
C169  O35   A    
Cr10  O47   S    
C115  H80   S    
Cr8   O44   S    
C12   C17   A    
C119  C155  S    
C140  H72   S    
C141  H73   S    
C174  Cl2   S    
C97   C102  A    
C66   O49   A    
C132  H68   S    
C95   C121  A    
C37   H29   S    
C99   C104  A    
Cr9   O10   S    
C4    C174  A    
C96   C101  A    
C5    C175  A    
Cr3   O29   S    
C41   C62   S    
C129  H65   S    
C95   C165  S    
Cr3   O7    S    
H10   N15   S    
C2    C122  A    
Cr8   O45   S    
C11   C73   S    
H89   N22   S    
Cr6   O16   S    
C9    C14   A    
Cr12  O31   S    
C11   C16   A    
C5    H22   S    
Cr8   O22   S    
C96   C167  S    
C44   H32   S    
C6    C154  A    
H8    N14   S    
C141  C146  A    
C88   C90   A    
C138  C142  A    
C89   O15   A    
C39   O44   A    
C53   H37   S    
C104  C108  A    
C71   O37   A    
Cr3   O3    S    
C137  C141  A    
C115  C124  A    
C118  O24   A    
C8    C70   S    
C31   H45   S    
C9    C71   S    
C55   H39   S    
C85   N7    S    
C21   C56   S    
C86   N8    S    
Cr5   O12   S    
C41   O42   A    
C36   C58   A    
C82   C90   A    
C71   O6    A    
C8    C30   A    
C40   O41   A    
H78   N12   S    
C24   C144  A    
C1    C151  S    
Cr5   O37   S    
C77   C144  A    
C24   C68   A    
C129  C134  A    
H97   N3    S    
C26   Cl5   S    
Cr10  O20   S    
C74   C78   A    
C105  N15   S    
Cr11  O21   S    
C18   N10   S    
C51   H43   S    
H87   N21   S    
C110  C115  A    
C108  C143  S    
Cr9   O24   S    
C134  H70   S    
C16   N4    S    
C168  O33   A    
C14   C18   A    
C94   H55   S    
Cr7   O34   S    
C92   H53   S    
C2    C46   A    
C50   H42   S    
Cr4   O8    S    
H5    N11   S    
H75   N1    S    
C80   C87   A    
Cr2   O32   S    
C10   C15   A    
Cr2   O2    S    
C74   C133  A    
C3    Cl3   S    
C13   C155  A    
C3    C173  A    
C136  H25   S    
Cr5   O15   S    
H100  N4    S    
C40   O46   A    
C75   C80   A    
Cr11  O48   S    
C168  O23   A    
C57   C93   A    
C103  H61   S    
C45   H33   S    
C128  C132  A    
C43   H31   S    
Cr6   O38   S    
C101  C105  A    
Cr1   O36   S    
H98   N3    S    
C130  C148  A    
H83   N19   S    
Cr11  O13   S    
C114  H69   S    
H103  N5    S    
C78   C79   A    
C161  N20   S    
C44   C62   A    
C158  H19   S    
C171  C175  A    
C45   C63   A    
C1    O14   A    
C10   C32   A    
C160  H21   S    
Cr7   O39   S    
C113  C121  A    
C93   C94   A    
C130  H66   S    
C42   C61   S    
C38   C47   A    
C48   H40   S    
C161  C170  A    
C167  O12   A    
C159  C163  A    
C117  O22   A    
C172  C173  S    
H84   N20   S    
C106  C110  A    
Cr10  O11   S    
C106  N16   S    
C159  H20   S    
C24   H51   S    
Cr9   O49   S    
C76   C81   A    
Cr11  O51   S    
H15   N17   S    
C57   C88   A    
C65   C152  S    
C27   Cl6   S    
H101  N5    S    
C99   H57   S    
H112  N10   S    
H90   N23   S    
C48   C61   A    
C6    C176  A    
C5    C153  A    
C41   O47   A    
C102  C106  A    
C169  O34   A    
H96   N2    S    
C158  C162  A    
C78   C84   A    
C135  C148  A    
C111  O17   A    
C67   O50   A    
H110  N9    S    
C33   H48   S    
C120  O30   A    
C52   C56   A    
H94   N24   S    
C76   N19   S    
C35   C91   A    
