data_mof_unit_21704.cif
_audit_creation_date              2012-12-10T18:54:27-0500
_audit_creation_method            fapswitch 2.2
_symmetry_space_group_name_H-M    P1
_symmetry_Int_Tables_number       1
_space_group_crystal_system       triclinic
_cell_length_a                    10.726548
_cell_length_b                    9.894171
_cell_length_c                    23.358718
_cell_angle_alpha                 88.342107
_cell_angle_beta                  91.017691
_cell_angle_gamma                 90.401064
_cell_volume                      2477.58693254

loop_
_atom_site_label
_atom_site_type_symbol
_atom_type_description
_atom_site_fract_x
_atom_site_fract_y
_atom_site_fract_z
_atom_type_partial_charge
C1    C     C_R   0.260441 0.499964 0.498928 1.010754
C2    C     C_R   0.583114 0.434971 0.708030 -0.123395
C3    C     C_R   0.373988 0.502000 0.239243 -0.013419
C4    C     C_R   0.571421 0.440614 0.767619 -0.013204
C5    C     C_R   0.485487 0.520244 0.208783 0.195992
C6    C     C_R   0.469640 0.508678 0.790500 0.215054
C7    C     C_R   0.065727 0.398738 0.529292 0.334474
C8    C     C_R   0.935663 0.608862 0.471297 0.332646
C9    C     C_R   0.937433 0.391558 0.525244 0.368477
C10   C     C_R   0.064819 0.602558 0.466463 0.372092
C11   C     C_R   0.872933 0.500322 0.498718 -0.403086
C12   C     C_R   0.740006 0.500299 0.499809 1.004251
C13   C     C_R   0.128205 0.500298 0.497974 -0.390200
C14   C     C_R   0.554145 0.068120 0.544320 0.353713
C15   C     C_R   0.436713 0.929867 0.458222 0.359716
C16   C     C_R   0.432837 0.074728 0.459519 0.342467
C17   C     C_R   0.563974 0.923984 0.541703 0.341927
C18   C     C_R   0.500354 0.501731 0.389751 0.874097
C19   C     C_R   0.500754 0.498584 0.610406 0.859374
C20   C     C_R   0.499525 0.631487 0.877092 0.547422
C21   C     C_R   0.447955 0.403907 0.120928 0.543244
C22   C     C_R   0.415653 0.406941 0.881305 0.544914
C23   C     C_R   0.600483 0.532073 0.238326 0.051218
C24   C     C_R   0.508671 0.636873 0.117352 0.551171
C25   C     C_R   0.416276 0.406990 0.940969 -0.042298
C26   C     C_R   0.505191 0.638618 0.057573 -0.059661
C27   C     C_R   0.459404 0.522823 0.969093 -0.082275
C28   C     C_R   0.464969 0.521903 0.029317 -0.085728
C29   C     C_R   0.499215 0.638315 0.937080 -0.116305
C30   C     C_R   0.432549 0.403538 0.061182 -0.110302
C31   C     C_R   0.377465 0.292779 0.972764 -0.289156
C32   C     C_R   0.541698 0.753956 0.025810 -0.236670
C33   C     C_R   0.385158 0.289681 0.032476 0.532447
C34   C     C_R   0.380107 0.571217 0.754400 0.052836
C35   C     C_R   0.538818 0.755294 0.965922 0.528308
C36   C     C_3   0.220992 0.168020 0.066408 -0.211270
C37   C     C_3   0.496118 0.971578 0.937163 -0.193482
C38   C     C_1   0.716410 0.544957 0.208135 0.221757
C39   C     C_1   0.275325 0.640997 0.777403 0.190692
C40   C     C_1   0.267426 0.454394 0.330475 0.208051
C41   C     C_1   0.690506 0.370762 0.684104 0.211873
C42   C     C_1   0.255238 0.495948 0.208745 0.199043
C43   C     C_1   0.664245 0.379167 0.805758 0.201568
C44   C     C_3   0.141012 0.352449 0.618977 -0.231379
C45   C     C_R   0.603368 0.528386 0.297852 -0.295110
C46   C     C_3   0.885380 0.830423 0.480026 -0.222072
C47   C     C_3   0.883155 0.168993 0.522531 -0.181116
C48   C     C_3   0.087298 0.720081 0.379210 -0.137015
C49   C     C_3   0.476017 0.126238 0.628963 -0.240004
C50   C     C_3   0.432227 0.884390 0.363143 -0.190737
C51   C     C_3   0.230474 0.123112 0.437479 -0.216534
C52   C     C_3   0.633887 0.846249 0.631457 -0.170976
C53   C     C_R   0.392543 0.566322 0.695519 -0.315266
C54   C     C_R   0.493657 0.506084 0.327957 -0.079981
C55   C     C_R   0.492189 0.497352 0.672261 -0.102691
C56   C     C_R   0.378841 0.489327 0.299079 -0.081913
H1    H     H_    0.342544 0.204084 0.951470 0.186205
H2    H     H_    0.529182 0.057366 0.909670 0.218423
H3    H     H_    0.192282 0.450470 0.619584 0.121023
H4    H     H_    0.195119 0.278469 0.645736 0.177522
H5    H     H_    0.048001 0.362823 0.638673 0.196867
H6    H     H_    0.871035 0.806822 0.526361 0.195872
H7    H     H_    0.814823 0.906447 0.466051 0.160970
H8    H     H_    0.978904 0.877013 0.474058 0.156837
H9    H     H_    0.843084 0.183342 0.478498 0.124411
H10   H     H_    0.828373 0.088447 0.544676 0.199599
H11   H     H_    0.980693 0.132629 0.520486 0.153559
H12   H     H_    0.575708 0.842935 0.047263 0.213286
H13   H     H_    0.168245 0.731250 0.350551 0.170141
H14   H     H_    0.033752 0.815509 0.375264 0.172617
H15   H     H_    0.028831 0.635074 0.363263 0.148603
H16   H     H_    0.495761 0.179613 0.669166 0.193377
H17   H     H_    0.447300 0.022042 0.641287 0.106987
H18   H     H_    0.394544 0.175310 0.606969 0.186026
H19   H     H_    0.395107 0.810727 0.332133 0.173998
H20   H     H_    0.411056 0.987018 0.345280 0.192012
H21   H     H_    0.535033 0.869353 0.366484 0.152579
H22   H     H_    0.216517 0.126341 0.484596 0.170074
H23   H     H_    0.691415 0.539546 0.320906 0.152886
H24   H     H_    0.196621 0.025010 0.421090 0.185643
H25   H     H_    0.171080 0.202857 0.417390 0.184294
H26   H     H_    0.689353 0.761418 0.650429 0.170887
H27   H     H_    0.667486 0.938916 0.652564 0.200643
H28   H     H_    0.534895 0.823103 0.641221 0.155617
H29   H     H_    0.324269 0.616280 0.667538 0.146051
H30   H     H_    0.175148 0.158522 0.023599 0.142738
H31   H     H_    0.185384 0.258330 0.088189 0.171478
H32   H     H_    0.194851 0.077466 0.092740 0.203924
H33   H     H_    0.486129 0.009387 0.981189 0.165038
H34   H     H_    0.403952 0.938471 0.919637 0.164163
N1    N     N_R   0.459326 0.516776 0.851110 -0.358946
N2    N     N_1   0.738241 0.330099 0.836280 -0.171146
N3    N     N_R   0.481807 0.520307 0.147500 -0.360193
N4    N     N_R   0.500000 0.857200 0.500000 -0.187077
N5    N     N_R   0.500000 0.142800 0.500000 -0.198493
N6    N     N_1   0.809346 0.555258 0.183921 -0.176028
N7    N     N_1   0.191353 0.696949 0.795900 -0.182054
N8    N     N_1   0.178374 0.425078 0.355214 -0.238480
N9    N     N_1   0.776665 0.319146 0.665520 -0.111090
N10   N     N_1   0.160490 0.491132 0.184381 -0.191684
O1    O     O_R   0.316770 0.614620 0.500000 -0.564704
O2    O     O_2   0.429321 0.289603 0.152648 -0.489770
O3    O     O_2   0.374007 0.297361 0.853411 -0.573159
O4    O     O_2   0.538489 0.750486 0.145318 -0.545708
O5    O     O_3   0.351935 0.172290 0.062137 -0.571550
O6    O     O_3   0.584667 0.867164 0.936037 -0.558711
O7    O     O_3   0.130043 0.304009 0.562930 -0.600126
O8    O     O_3   0.869593 0.715462 0.446126 -0.594049
O9    O     O_3   0.874818 0.288092 0.554022 -0.539680
O10   O     O_3   0.132361 0.701019 0.436175 -0.566956
O11   O     O_3   0.584137 0.130598 0.594646 -0.550097
O12   O     O_R   0.683230 0.385380 0.500000 -0.586311
O13   O     O_3   0.373343 0.860471 0.416112 -0.545706
O14   O     O_3   0.355777 0.147683 0.422217 -0.559440
O15   O     O_3   0.656220 0.853578 0.572223 -0.599153
O16   O     O_R   0.683230 0.614620 0.500000 -0.550421
O17   O     O_R   0.316770 0.385380 0.500000 -0.575311
O18   O     O_R   0.499970 0.614690 0.416160 -0.583925
O19   O     O_R   0.500030 0.385310 0.583840 -0.578697
O20   O     O_R   0.500030 0.614690 0.583840 -0.616234
O21   O     O_R   0.499970 0.385310 0.416160 -0.577066
O22   O     O_2   0.540751 0.737057 0.844645 -0.500958
Zn1   Zn    Zn3+2 0.500000 0.653120 0.500000 1.039018
Zn2   Zn    Zn3+2 0.500000 0.346880 0.500000 1.035219

loop_
_geom_bond_atom_site_label_1
_geom_bond_atom_site_label_2
_ccdc_geom_bond_type
N5    Zn2   S    
C25   C31   A    
C48   O10   S    
C3    C42   S    
C26   C32   A    
C23   C45   A    
O16   Zn1   S    
C27   C29   A    
C48   H13   S    
C15   N4    A    
O19   Zn2   S    
C36   H32   S    
O1    Zn1   S    
C37   H34   S    
C46   H6    S    
O17   Zn2   S    
C24   C26   A    
O12   Zn2   S    
C42   N10   T    
C2    C55   A    
C40   N8    T    
C39   N7    T    
C2    C41   S    
C15   C16   A    
C52   H28   S    
C51   H24   S    
O21   Zn2   S    
C40   C56   S    
C49   H16   S    
C46   O8    S    
C22   N1    A    
C41   N9    T    
C18   O18   A    
C47   H10   S    
C20   O22   S    
C37   H2    S    
O20   Zn1   S    
C32   H12   S    
N4    Zn1   S    
C19   O19   A    
C14   C17   A    
C49   O11   S    
C8    O8    S    
C47   H11   S    
C20   C29   A    
C53   C55   A    
C36   H31   S    
C9    O9    S    
C14   O11   S    
C20   N1    A    
C54   C56   A    
C51   O14   S    
C34   C39   S    
C32   C35   A    
C33   O5    S    
C4    C6    A    
C36   H30   S    
C47   O9    S    
C22   C25   A    
C22   O3    S    
C6    C34   A    
C46   H8    S    
C24   O4    S    
C52   H27   S    
C2    C4    A    
C50   H20   S    
C15   O13   S    
C3    C56   A    
C5    C23   A    
C44   O7    S    
C31   C33   A    
C45   H23   S    
C1    O17   A    
C52   H26   S    
C9    C11   A    
C21   O2    S    
C45   C54   A    
C49   H17   S    
C1    C13   S    
C48   H15   S    
C50   H21   S    
C1    O1    A    
C14   N5    A    
C12   O12   A    
C17   O15   S    
C52   O15   S    
C19   C55   S    
C7    C9    A    
C51   H25   S    
C16   N5    A    
C30   C33   A    
C36   O5    S    
C48   H14   S    
C3    C5    A    
C10   C13   A    
C16   O14   S    
C19   O20   A    
C5    N3    S    
C11   C12   S    
C4    C43   S    
C44   H5    S    
C25   C27   A    
C23   C38   S    
C21   C30   A    
C29   C35   A    
C26   C28   A    
C43   N2    T    
C37   H33   S    
C46   H7    S    
C50   O13   S    
C31   H1    S    
C28   C30   A    
C51   H22   S    
C37   O6    S    
C35   O6    S    
C24   N3    A    
C21   N3    A    
C44   H4    S    
C8    C11   A    
C10   O10   S    
C7    O7    S    
O18   Zn1   S    
C18   C54   S    
C18   O21   A    
C7    C13   A    
C34   C53   A    
C8    C10   A    
C38   N6    T    
C27   C28   A    
C49   H18   S    
C53   H29   S    
C17   N4    A    
C44   H3    S    
C50   H19   S    
C47   H9    S    
C6    N1    S    
C12   O16   A    
