data_mof_unit_57065.cif
_audit_creation_date              2012-12-10T16:44:40-0500
_audit_creation_method            fapswitch 2.2
_symmetry_space_group_name_H-M    P1
_symmetry_Int_Tables_number       1
_space_group_crystal_system       triclinic
_cell_length_a                    14.99315
_cell_length_b                    8.728855
_cell_length_c                    7.498158
_cell_angle_alpha                 102.868821
_cell_angle_beta                  94.919518
_cell_angle_gamma                 93.783605
_cell_volume                      949.470189484

loop_
_atom_site_label
_atom_site_type_symbol
_atom_type_description
_atom_site_fract_x
_atom_site_fract_y
_atom_site_fract_z
_atom_type_partial_charge
C1    C     C_R   0.496312 0.200341 0.454250 0.877920
C2    C     C_R   0.503690 0.799659 0.545749 0.877879
C3    C     C_R   0.021587 0.215849 0.340315 0.443810
C4    C     C_R   0.978406 0.784193 0.659494 0.443834
C5    C     C_2   0.483365 0.033640 0.432780 0.109365
C6    C     C_2   0.516640 0.966360 0.567217 0.109322
C7    C     C_R   0.329176 0.496269 0.500685 0.863137
C8    C     C_R   0.670824 0.503739 0.499316 0.863096
C9    C     C_R   0.822353 0.647897 0.584876 0.355675
C10   C     C_R   0.177653 0.352095 0.415161 0.355662
C11   C     C_R   0.767353 0.510243 0.497625 -0.133794
C12   C     C_R   0.232646 0.489767 0.502365 -0.133794
C13   C     C_R   0.803240 0.374393 0.411312 -0.203822
C14   C     C_R   0.196755 0.625643 0.588586 -0.203823
C15   C     C_R   0.895400 0.369389 0.415131 0.058975
C16   C     C_R   0.104596 0.630644 0.584749 0.058965
C17   C     C_R   0.953156 0.504756 0.499627 -0.014177
C18   C     C_R   0.046842 0.495268 0.500269 -0.014182
C19   C     C_R   0.917226 0.648730 0.582705 -0.054628
C20   C     C_R   0.082772 0.351287 0.417210 -0.054621
C21   C     C_R   0.929647 0.228066 0.338051 -0.141355
C22   C     C_R   0.070345 0.771983 0.661764 -0.141364
Cu1   Cu    Cu3+1 0.510010 0.517380 0.684380 1.053178
Cu2   Cu    Cu3+1 0.489990 0.482620 0.315620 1.053151
H1    H     H_    0.758695 0.269991 0.346321 0.177339
H2    H     H_    0.241298 0.730056 0.653539 0.177330
H3    H     H_    0.883993 0.124150 0.277709 0.208251
H4    H     H_    0.115996 0.875918 0.722040 0.208238
N1    N     N_2   0.474890 0.456420 0.038520 -0.226596
N2    N     N_2   0.525110 0.543580 0.961480 -0.226591
O1    O     O_R   0.506510 0.286130 0.619770 -0.590485
O2    O     O_R   0.493490 0.713870 0.380230 -0.590495
O3    O     O_R   0.489600 0.256770 0.308360 -0.545262
O4    O     O_R   0.510400 0.743230 0.691640 -0.545255
O5    O     O_R   0.378710 0.514640 0.655720 -0.612895
O6    O     O_R   0.621290 0.485360 0.344280 -0.612923
O7    O     O_R   0.361800 0.485290 0.344300 -0.555745
O8    O     O_R   0.638200 0.514710 0.655700 -0.555702
Cl1   Cl    Cl    0.767488 0.810698 0.696934 -0.480214
Cl2   Cl    Cl    0.232549 0.189202 0.303443 -0.480268
Cl3   Cl    Cl    0.050446 0.022605 0.252399 -0.467170
Cl4   Cl    Cl    0.949525 0.977475 0.747113 -0.467242
Cl5   Cl    Cl    0.411417 0.932353 0.234538 -0.508196
Cl6   Cl    Cl    0.588594 0.067645 0.765450 -0.508216
C23   C     C_1   0.410791 0.346494 0.927659 0.652911
N3    N     N_1   0.356893 0.254011 0.837192 -0.266079
C24   C     C_1   0.589210 0.653505 0.072341 0.652956
N4    N     N_1   0.643107 0.745988 0.162807 -0.266101

loop_
_geom_bond_atom_site_label_1
_geom_bond_atom_site_label_2
_ccdc_geom_bond_type
C16   C22   A    
Cu1   Cu2   S    
Cu2   O2    S    
N1    N2    D    
Cu2   O3    S    
Cu1   O8    S    
C4    C22   A    
C18   C20   A    
C24   N4    T    
C1    O1    A    
Cu1   O4    S    
C2    O4    A    
Cu2   O7    S    
C21   H3    S    
C1    O3    A    
C3    C20   A    
C16   C18   A    
C22   H4    S    
C23   N3    T    
C14   H2    S    
C9    C11   A    
C13   H1    S    
Cu2   O6    S    
C15   C21   A    
C10   C12   A    
C8    O8    A    
C8    C11   S    
C1    C5    S    
C10   Cl2   S    
C17   C19   A    
C12   C14   A    
C17   C18   A    
Cu1   O5    S    
C13   C15   A    
C5    Cl5   S    
C5    C6    D    
C4    Cl4   S    
C14   C16   A    
C7    C12   S    
C3    C21   A    
C11   C13   A    
Cu1   N2    S    
N2    C24   S    
C9    Cl1   S    
C2    O2    A    
C8    O6    A    
N1    C23   S    
C15   C17   A    
Cu2   N1    S    
C3    Cl3   S    
C6    Cl6   S    
C4    C19   A    
C7    O5    A    
C9    C19   A    
C2    C6    S    
C10   C20   A    
C7    O7    A    
Cu1   O1    S    
