data_mof_unit_8541.cif
_audit_creation_date              2012-12-10T19:06:30-0500
_audit_creation_method            fapswitch 2.2
_symmetry_space_group_name_H-M    P1
_symmetry_Int_Tables_number       1
_space_group_crystal_system       triclinic
_cell_length_a                    23.524645
_cell_length_b                    10.816399
_cell_length_c                    9.573856
_cell_angle_alpha                 90.34385
_cell_angle_beta                  90.478639
_cell_angle_gamma                 90.951121
_cell_volume                      2435.61973416

loop_
_atom_site_label
_atom_site_type_symbol
_atom_type_description
_atom_site_fract_x
_atom_site_fract_y
_atom_site_fract_z
_atom_type_partial_charge
C1    C     C_R   0.499650 0.262591 0.499674 0.806811
C2    C     C_R   0.969884 0.290866 0.523316 0.486738
C3    C     C_R   0.029173 0.294287 0.533985 -0.227970
C4    C     C_R   0.059365 0.406962 0.538770 -0.089345
C5    C     C_R   0.029861 0.519046 0.539023 -0.009907
C6    C     C_R   0.060427 0.633052 0.542925 -0.083777
C7    C     C_R   0.029776 0.744842 0.556636 -0.024975
C8    C     C_R   0.970134 0.740672 0.551707 -0.143616
C9    C     C_R   0.118817 0.409561 0.541905 0.569879
C10   C     C_R   0.120288 0.629702 0.527565 0.519357
C11   C     C_R   0.243889 0.586098 0.611113 -0.090485
C12   C     C_R   0.391016 0.499199 0.500002 0.765711
C13   C     C_R   0.302862 0.580106 0.602096 -0.203469
C14   C     C_R   0.328403 0.503329 0.502565 -0.125738
C15   C     C_R   0.293607 0.431123 0.411425 -0.059671
C16   C     C_R   0.234415 0.443581 0.416312 -0.073786
C17   C     C_R   0.209201 0.518052 0.518089 0.293667
C18   C     C_R   0.759017 0.449165 0.622400 -0.106256
C19   C     C_R   0.699867 0.443945 0.614658 -0.233138
C20   C     C_R   0.671117 0.503632 0.505884 -0.019885
C21   C     C_R   0.702191 0.570330 0.406629 -0.226760
C22   C     C_R   0.761456 0.573650 0.412720 -0.125158
C23   C     C_R   0.499771 0.737498 0.500321 0.797240
C24   C     C_R   0.790252 0.512930 0.520633 0.344288
C25   C     C_R   0.504825 0.064569 0.623153 0.055023
C26   C     C_R   0.496373 0.129410 0.499563 -0.140475
C27   C     C_R   0.482729 0.063058 0.376972 -0.218291
C28   C     C_R   0.482527 0.934151 0.377562 -0.212574
C29   C     C_R   0.495956 0.870509 0.500984 -0.066618
C30   C     C_R   0.503403 0.937462 0.624950 -0.007276
C31   C     C_3   0.547909 0.929796 0.737471 -0.579399
C32   C     C_3   0.550386 0.071872 0.734695 0.930898
C33   C     C_R   0.536051 0.576830 0.074352 0.078771
C34   C     C_R   0.608851 0.500817 0.501003 0.791463
C35   C     C_R   0.463632 0.424100 0.073722 0.594577
C36   C     C_R   0.463052 0.427782 0.923290 -0.124899
C37   C     C_R   0.534831 0.579298 0.927101 0.156006
C38   C     C_3   0.597710 0.583763 0.916919 -0.511123
C39   C     C_3   0.599913 0.573260 0.074883 0.320833
C40   C     C_R   0.880331 0.624821 0.536535 0.537826
C41   C     C_R   0.879517 0.404462 0.520348 0.553497
C42   C     C_R   0.939420 0.402605 0.526723 -0.124822
C43   C     C_R   0.969735 0.516585 0.535540 -0.076494
C44   C     C_R   0.939993 0.628170 0.540070 -0.031172
Cu1   Cu    Cu3+1 0.500000 0.499980 0.640670 0.971364
Cu2   Cu    Cu3+1 0.500000 0.500020 0.359330 1.009491
H1    H     H_    0.676608 0.392505 0.692997 0.166620
H2    H     H_    0.680591 0.621396 0.326000 0.147579
H3    H     H_    0.785005 0.623559 0.333717 0.147351
H4    H     H_    0.474553 0.110184 0.279843 0.178212
H5    H     H_    0.473868 0.884944 0.280632 0.165456
H6    H     H_    0.529773 0.891324 0.835225 0.192166
H7    H     H_    0.587189 0.883232 0.703177 0.176355
H8    H     H_    0.051516 0.207619 0.535167 0.239956
H9    H     H_    0.433856 0.370976 0.862310 0.152730
H10   H     H_    0.614722 0.502188 0.861717 0.232604
H11   H     H_    0.613557 0.674576 0.878255 0.151528
H12   H     H_    0.619539 0.654295 0.130129 0.060300
H13   H     H_    0.947017 0.826147 0.561161 0.221093
H14   H     H_    0.225167 0.642966 0.691421 0.156902
H15   H     H_    0.328727 0.634970 0.674141 0.163566
H16   H     H_    0.207333 0.390125 0.345628 0.189608
H17   H     H_    0.780661 0.402884 0.707022 0.150217
N1    N     N_R   0.851404 0.514274 0.525867 -0.470228
N2    N     N_R   0.148150 0.519396 0.530802 -0.451755
N3    N     N_R   0.500360 0.500930 0.147930 -0.203376
N4    N     N_R   0.500360 0.500890 0.852020 -0.188456
O1    O     O_R   0.500000 0.319640 0.618810 -0.552400
O2    O     O_2   0.849363 0.297782 0.507246 -0.496680
O3    O     O_2   0.147198 0.302686 0.554744 -0.528166
O4    O     O_2   0.150260 0.734376 0.502424 -0.552138
O5    O     O_R   0.500010 0.319680 0.381230 -0.547585
O6    O     O_R   0.417880 0.499940 0.618820 -0.584285
O7    O     O_R   0.417880 0.499980 0.381240 -0.544021
O8    O     O_R   0.499990 0.680320 0.618770 -0.567434
O9    O     O_R   0.500000 0.680360 0.381190 -0.602810
O10   O     O_R   0.582120 0.500020 0.618760 -0.585766
O11   O     O_R   0.582120 0.500060 0.381180 -0.537015
O12   O     O_2   0.851379 0.731262 0.545151 -0.541443
O13   O     O_3   0.942087 0.177215 0.518813 -0.513902
C45   C     C_3   0.944446 0.130387 0.381150 -0.146800
H18   H     H_    0.923889 0.193951 0.305649 0.141758
H19   H     H_    0.920732 0.040912 0.376733 0.197114
H20   H     H_    0.988937 0.112428 0.349262 0.160940
O14   O     O_3   0.527858 0.125906 0.857132 -0.616723
C46   C     C_3   0.568857 0.129676 0.965821 -0.251794
H21   H     H_    0.547356 0.152904 0.065019 0.172031
H22   H     H_    0.601186 0.203609 0.946599 0.219256
H23   H     H_    0.589754 0.039060 0.980413 0.142621
O15   O     O_3   0.603894 0.127314 0.696968 -0.598989
C47   C     C_3   0.624169 0.096651 0.562435 -0.367007
H24   H     H_    0.612547 0.169989 0.487444 0.177459
H25   H     H_    0.609369 0.005436 0.521632 0.154325
H26   H     H_    0.671265 0.094742 0.567305 0.215085
O16   O     O_3   0.427775 0.346608 0.149763 -0.571394
C48   C     C_3   0.409072 0.240484 0.074559 -0.358659
H27   H     H_    0.391625 0.172000 0.149140 0.202888
H28   H     H_    0.444412 0.194773 0.019332 0.190321
H29   H     H_    0.373973 0.263854 0.001523 0.201595
O17   O     O_3   0.619313 0.456729 0.120184 -0.534336
C49   C     C_3   0.678090 0.445117 0.094577 -0.311629
H30   H     H_    0.702355 0.534325 0.100840 0.143917
H31   H     H_    0.684590 0.401986 0.990551 0.161628
H32   H     H_    0.696245 0.382323 0.173881 0.199955
C50   C     C_2   0.057799 0.865809 0.589193 0.445021
H33   H     H_    0.098051 0.870433 0.644952 0.124571
O18   O     O_2   0.035129 0.962608 0.558057 -0.554358
C51   C     C_2   0.317454 0.333061 0.322415 0.429098
H34   H     H_    0.359251 0.297599 0.345467 0.101895
O19   O     O_2   0.289992 0.287935 0.225428 -0.540933

loop_
_geom_bond_atom_site_label_1
_geom_bond_atom_site_label_2
_ccdc_geom_bond_type
C49   H30   S    
C12   O7    A    
C41   C42   A    
O16   C48   S    
C23   O9    A    
Cu2   O9    S    
C45   H18   S    
C39   O17   S    
C36   N4    A    
C7    C8    A    
Cu1   Cu2   S    
C50   O18   D    
C26   C27   A    
C33   C39   S    
C18   C24   A    
C5    C6    A    
C23   C29   S    
C28   C29   A    
C37   C38   S    
Cu2   N3    S    
C34   O10   A    
C30   C31   S    
C3    H8    S    
C46   H22   S    
C18   H17   S    
C15   C16   A    
C48   H29   S    
C1    O1    A    
C51   H34   S    
Cu1   O6    S    
C18   C19   A    
C32   O15   S    
C19   C20   A    
C16   C17   A    
C48   H28   S    
Cu1   N4    S    
C7    C50   S    
C13   C14   A    
C31   H6    S    
Cu2   O5    S    
C27   H4    S    
C21   H2    S    
C20   C34   S    
C10   O4    S    
C25   C32   S    
C5    C43   A    
C24   N1    S    
C12   O6    A    
C16   H16   S    
C45   H19   S    
C33   N3    A    
C1    O5    A    
C9    O3    S    
C47   H24   S    
Cu2   O11   S    
C46   H21   S    
C4    C5    A    
C35   N3    A    
C25   C26   A    
O14   C46   S    
C39   H12   S    
C33   C37   A    
C35   C36   A    
C15   C51   S    
C43   C44   A    
C29   C30   A    
C47   H25   S    
C38   H11   S    
C31   C32   S    
C48   H27   S    
Cu1   O1    S    
C40   O12   S    
C13   H15   S    
C31   H7    S    
C22   H3    S    
C12   C14   S    
C49   H32   S    
C1    C26   S    
C22   C24   A    
C42   C43   A    
C3    C4    A    
Cu2   O7    S    
C45   H20   S    
C41   O2    S    
C10   N2    A    
C25   C30   A    
C11   C17   A    
C8    C44   A    
C23   O8    A    
O13   C45   S    
C46   H23   S    
C6    C10   A    
C6    C7    A    
C35   O16   S    
C50   H33   S    
C17   N2    S    
C40   N1    A    
Cu1   O8    S    
C2    C3    A    
C8    H13   S    
C36   H9    S    
C34   O11   A    
C47   H26   S    
C11   C13   A    
O15   C47   S    
C38   C39   S    
C2    C42   A    
C32   O14   S    
C37   N4    A    
O17   C49   S    
C28   H5    S    
C51   O19   D    
C19   H1    S    
C9    N2    A    
C2    O13   S    
C40   C44   A    
C38   H10   S    
C20   C21   A    
C49   H31   S    
C27   C28   A    
C14   C15   A    
Cu1   O10   S    
C41   N1    A    
C4    C9    A    
C21   C22   A    
C11   H14   S    
