data_mof_unit_64009.cif
_audit_creation_date              2012-12-10T18:20:37-0500
_audit_creation_method            fapswitch 2.2
_symmetry_space_group_name_H-M    P1
_symmetry_Int_Tables_number       1
_space_group_crystal_system       triclinic
_cell_length_a                    15.842102
_cell_length_b                    10.649416
_cell_length_c                    9.43503
_cell_angle_alpha                 89.333056
_cell_angle_beta                  89.911307
_cell_angle_gamma                 90.243862
_cell_volume                      1591.65145725

loop_
_atom_site_label
_atom_site_type_symbol
_atom_type_description
_atom_site_fract_x
_atom_site_fract_y
_atom_site_fract_z
_atom_type_partial_charge
C1    C     C_R   0.501391 0.259894 0.500884 0.838076
C2    C     C_R   0.498609 0.740105 0.499115 0.838076
C3    C     C_3   0.576482 0.955457 0.537215 0.118751
C4    C     C_3   0.423518 0.044543 0.462785 0.118750
C5    C     C_3   0.498459 0.876424 0.497268 -0.157782
C6    C     C_3   0.501541 0.123576 0.502732 -0.157782
C7    C     C_3   0.441789 0.957501 0.591198 -0.103978
C8    C     C_3   0.558211 0.042499 0.408802 -0.103978
C9    C     C_3   0.555014 0.578107 0.048387 0.269916
C10   C     C_3   0.444986 0.421893 0.951613 0.269916
C11   C     C_3   0.482139 0.610192 0.947750 -0.077198
C12   C     C_3   0.517861 0.389808 0.052250 -0.077198
C13   C     C_3   0.573165 0.468163 0.949539 -0.088479
C14   C     C_3   0.426835 0.531837 0.050460 -0.088480
C15   C     C_R   0.339969 0.499794 0.500097 0.838334
C16   C     C_R   0.660030 0.500206 0.499903 0.838335
C17   C     C_3   0.971613 0.382239 0.513273 0.216244
C18   C     C_3   0.028387 0.617761 0.486727 0.216244
C19   C     C_3   0.028120 0.431423 0.390814 -0.197504
C20   C     C_3   0.971880 0.568577 0.609186 -0.197504
C21   C     C_1   0.250218 0.499410 0.500377 -0.106339
C22   C     C_1   0.749782 0.500590 0.499623 -0.106340
C23   C     C_3   0.027704 0.449700 0.622872 -0.200303
C24   C     C_3   0.972296 0.550300 0.377128 -0.200303
C25   C     C_3   0.082865 0.499639 0.500320 0.075936
C26   C     C_3   0.917134 0.500361 0.499680 0.075936
C27   C     C_1   0.174601 0.499264 0.500472 0.027678
C28   C     C_1   0.825398 0.500736 0.499528 0.027678
C29   C     C_3   0.519145 0.037075 0.630936 -0.086410
C30   C     C_3   0.480854 0.962925 0.369064 -0.086410
Cu1   Cu    Cu3+1 0.500020 0.499990 0.643150 0.996975
Cu2   Cu    Cu3+1 0.499980 0.500010 0.356850 0.996975
H1    H     H_    0.052328 0.374672 0.301673 0.183183
H2    H     H_    0.947672 0.625328 0.698327 0.183183
H3    H     H_    0.948452 0.591971 0.276574 0.180797
H4    H     H_    0.051548 0.408029 0.723426 0.180797
H5    H     H_    0.467322 0.703117 0.899761 0.171223
H6    H     H_    0.532678 0.296882 0.100239 0.171223
H7    H     H_    0.634840 0.441257 0.903191 0.161726
H8    H     H_    0.365160 0.558743 0.096809 0.161726
N1    N     N_3   0.500060 0.499970 0.858290 -0.194803
N2    N     N_3   0.499940 0.500030 0.141710 -0.194804
O1    O     O_R   0.500040 0.316850 0.620870 -0.566452
O2    O     O_R   0.499960 0.683150 0.379130 -0.566452
O3    O     O_R   0.500000 0.316860 0.379090 -0.581221
O4    O     O_R   0.500000 0.683140 0.620910 -0.581220
O5    O     O_R   0.379090 0.499980 0.620870 -0.556607
O6    O     O_R   0.620910 0.500020 0.379130 -0.556607
O7    O     O_R   0.379060 0.499990 0.379090 -0.576987
O8    O     O_R   0.620940 0.500010 0.620910 -0.576987
I1    I     I_    0.925731 0.193995 0.534075 -0.235265
I2    I     I_    0.074269 0.806004 0.465925 -0.235265
I3    I     I_    0.697414 0.881641 0.594541 -0.270258
I4    I     I_    0.302586 0.118359 0.405459 -0.270258
C31   C     C_1   0.541000 0.076076 0.775136 0.360984
N3    N     N_1   0.558426 0.106381 0.888786 -0.262120
C32   C     C_1   0.459000 0.923923 0.224864 0.360984
N4    N     N_1   0.441574 0.893618 0.111214 -0.262120
C33   C     C_1   0.377923 0.909346 0.691154 0.321057
N5    N     N_1   0.327641 0.871328 0.769883 -0.228674
C34   C     C_1   0.622077 0.090654 0.308846 0.321057
N6    N     N_1   0.672359 0.128671 0.230117 -0.228674
I5    I     I_    0.646954 0.709632 0.121766 -0.270500
I6    I     I_    0.353046 0.290368 0.878234 -0.270500

loop_
_geom_bond_atom_site_label_1
_geom_bond_atom_site_label_2
_ccdc_geom_bond_type
C22   C28   T    
C6    C8    S    
C31   N3    T    
C11   H5    S    
C7    C29   S    
C25   C27   S    
C9    C11   S    
Cu2   O3    S    
Cu1   O1    S    
C26   C28   S    
Cu1   Cu2   S    
C20   C23   S    
C15   O5    A    
C8    C34   S    
C14   N2    S    
C8    C30   S    
C16   O6    A    
C13   N1    S    
C19   C24   S    
C21   C27   T    
C18   I2    S    
C33   N5    T    
C1    O3    A    
Cu1   N1    S    
Cu1   O5    S    
C23   C25   S    
C2    O4    A    
C10   N1    S    
C12   H6    S    
Cu2   O6    S    
C24   C26   S    
C17   I1    S    
C32   N4    T    
C17   C23   S    
C18   C25   S    
C20   C26   S    
C4    C7    S    
C18   C24   S    
C17   C26   S    
C10   C12   S    
C7    C33   S    
C17   C19   S    
C16   O8    A    
C11   N1    S    
C18   C20   S    
C15   O7    A    
C9    N2    S    
Cu2   O2    S    
C34   N6    T    
C19   C25   S    
C11   C14   S    
C4    C30   S    
Cu2   O7    S    
C13   H7    S    
C2    C5    S    
Cu1   O8    S    
C12   N2    S    
C20   H2    S    
C24   H3    S    
C30   C32   S    
C15   C21   S    
C6    C29   S    
C9    C13   S    
C12   C13   S    
C3    C8    S    
C4    C6    S    
C23   H4    S    
C10   C14   S    
C2    O2    A    
C5    C7    S    
Cu2   N2    S    
C3    C29   S    
C16   C22   S    
C3    I3    S    
C29   C31   S    
C4    I4    S    
C9    I5    S    
C14   H8    S    
C1    O1    A    
C10   I6    S    
C1    C6    S    
C5    C30   S    
C19   H1    S    
C3    C5    S    
Cu1   O4    S    
