data_mof_unit_25257.cif
_audit_creation_date              2012-10-26T20:01:51-0400
_audit_creation_method            fapswitch 2.2
_symmetry_space_group_name_H-M    P1
_symmetry_Int_Tables_number       1
_space_group_crystal_system       triclinic
_cell_length_a                    11.692445
_cell_length_b                    10.853283
_cell_length_c                    9.61733
_cell_angle_alpha                 88.660375
_cell_angle_beta                  90.854864
_cell_angle_gamma                 93.105034
_cell_volume                      1218.21401094

loop_
_atom_site_label
_atom_site_type_symbol
_atom_type_description
_atom_site_fract_x
_atom_site_fract_y
_atom_site_fract_z
_atom_type_partial_charge
C1    C     C_R   0.502350 0.261818 0.502718 0.548013
C2    C     C_R   0.471732 0.868704 0.499432 -0.012228
C3    C     C_R   0.625481 0.686857 0.144383 -0.113451
C4    C     C_R   0.284155 0.499510 0.499213 0.547702
C5    C     C_R   0.657448 0.798249 0.077654 -0.034596
C6    C     C_R   0.644606 0.807050 0.934396 -0.125079
C7    C     C_R   0.622139 0.699108 0.860356 0.031898
C8    C     C_R   0.561621 0.594660 0.925367 0.163063
C9    C     C_R   0.561424 0.592717 0.074567 0.137606
C10   C     C_R   0.440563 0.412109 0.074866 0.006398
C11   C     C_R   0.440636 0.412101 0.927232 -0.009750
C12   C     C_R   0.442687 0.037368 0.885271 -0.121005
C13   C     C_R   0.488381 0.736051 0.498995 0.518697
C14   C     C_R   0.715778 0.499428 0.500669 0.545203
C15   C     C_1   0.162395 0.499523 0.497990 -0.011164
C16   C     C_1   0.059863 0.499474 0.498827 -0.021021
C17   C     C_1   0.940048 0.499347 0.500632 -0.001050
C18   C     C_1   0.837527 0.499270 0.501566 0.026493
C19   C     C_R   0.487086 0.104162 0.770865 -0.098275
C20   C     C_2   0.715274 0.687651 0.762456 0.298389
C21   C     C_2   0.714173 0.900132 0.157205 0.218948
C22   C     C_R   0.390932 0.920643 0.867596 -0.119203
C23   C     C_R   0.393903 0.865917 0.738390 -0.091738
C24   C     C_R   0.447585 0.928723 0.624029 0.023519
C25   C     C_R   0.478882 0.055564 0.634881 0.023995
C26   C     C_R   0.500171 0.126157 0.509378 -0.005103
C27   C     C_R   0.505394 0.065410 0.382584 -0.146602
C28   C     C_R   0.494356 0.938282 0.378397 -0.164821
Cu1   Cu    Cu3+1 0.499990 0.499990 0.640660 0.954863
Cu2   Cu    Cu3+1 0.500010 0.500010 0.359340 0.939252
H1    H     H_    0.520637 0.116031 0.285597 0.156141
H2    H     H_    0.653227 0.676854 0.249800 0.170423
H3    H     H_    0.718275 0.742711 0.666693 0.087437
H4    H     H_    0.731299 0.887750 0.267769 0.101901
H5    H     H_    0.679659 0.889394 0.880546 0.163824
H6    H     H_    0.391091 0.340540 0.873291 0.116934
H7    H     H_    0.532292 0.190179 0.794314 0.160724
H8    H     H_    0.447777 0.076820 0.987722 0.118051
H9    H     H_    0.352661 0.870386 0.955263 0.124450
H10   H     H_    0.352705 0.774827 0.728799 0.151190
H11   H     H_    0.504583 0.894288 0.280026 0.139828
H12   H     H_    0.391410 0.340069 0.130604 0.118688
N1    N     N_R   0.501070 0.501210 0.147910 -0.236951
N2    N     N_R   0.501110 0.501290 0.852040 -0.243131
O1    O     O_R   0.499990 0.319640 0.618810 -0.518609
O2    O     O_2   0.741651 0.999142 0.100942 -0.498934
O3    O     O_R   0.500000 0.319660 0.381240 -0.502302
O4    O     O_R   0.337190 0.500000 0.618790 -0.498515
O5    O     O_R   0.337200 0.500030 0.381210 -0.488780
O6    O     O_R   0.500000 0.680340 0.618760 -0.536367
O7    O     O_R   0.500010 0.680360 0.381190 -0.528594
O8    O     O_R   0.662800 0.499970 0.618790 -0.458080
O9    O     O_R   0.662810 0.500000 0.381210 -0.515094
O10   O     O_2   0.795759 0.625011 0.794556 -0.493183

loop_
_geom_bond_atom_site_label_1
_geom_bond_atom_site_label_2
_ccdc_geom_bond_type
C23   H10   S    
C8    C9    A    
Cu2   O7    S    
Cu1   Cu2   S    
C3    C9    A    
C10   H12   S    
C14   C18   S    
C4    O5    A    
C23   C24   A    
C4    C15   S    
C17   C18   T    
C10   N1    A    
C7    C8    A    
C24   C25   A    
C12   H8    S    
C1    O1    A    
C26   C27   A    
C1    C26   S    
C5    C6    A    
C20   H3    S    
C12   C19   A    
C11   H6    S    
Cu2   O5    S    
C21   O2    D    
C6    C7    A    
Cu1   O6    S    
Cu1   N2    S    
C2    C24   A    
C3    H2    S    
C19   C25   A    
Cu2   O9    S    
Cu2   N1    S    
C9    N1    A    
C10   C11   A    
C22   H9    S    
Cu1   O4    S    
C27   H1    S    
C13   O6    A    
C12   C22   A    
Cu2   O3    S    
C11   N2    A    
C14   O9    A    
C5    C21   S    
C6    H5    S    
C20   O10   D    
C7    C20   S    
C4    O4    A    
C27   C28   A    
C2    C13   S    
C22   C23   A    
C1    O3    A    
C2    C28   A    
C21   H4    S    
C19   H7    S    
C25   C26   A    
C13   O7    A    
C15   C16   T    
C14   O8    A    
C28   H11   S    
C8    N2    A    
Cu1   O1    S    
C16   C17   S    
C3    C5    A    
Cu1   O8    S    
