data_mof_unit_23198.cif
_audit_creation_date              2012-12-11T15:38:56-0500
_audit_creation_method            fapswitch 2.2
_symmetry_space_group_name_H-M    P1
_symmetry_Int_Tables_number       1
_space_group_crystal_system       triclinic
_cell_length_a                    14.313859
_cell_length_b                    14.822863
_cell_length_c                    33.247282
_cell_angle_alpha                 97.971285
_cell_angle_beta                  90.366169
_cell_angle_gamma                 118.790163
_cell_volume                      6100.65137975

loop_
_atom_site_label
_atom_site_type_symbol
_atom_type_description
_atom_site_fract_x
_atom_site_fract_y
_atom_site_fract_z
_atom_type_partial_charge
C1    C     C_R   0.616633 0.910564 0.436845 0.540819
C2    C     C_R   0.711929 0.436808 0.949394 0.539357
C3    C     C_R   0.596376 0.835747 0.773652 -0.124307
C4    C     C_R   0.607630 0.850547 0.733213 -0.115346
C5    C     C_R   0.623594 0.781351 0.704719 0.016077
C6    C     C_R   0.624442 0.694808 0.716671 -0.118634
C7    C     C_R   0.615586 0.681142 0.757518 -0.115232
C8    C     C_R   0.603688 0.752886 0.786563 0.024637
C9    C     C_R   0.556170 0.734252 0.631942 -0.133875
C10   C     C_R   0.555101 0.765628 0.594499 -0.169181
C11   C     C_R   0.722176 0.927194 0.616391 0.282454
C12   C     C_3   0.197288 0.648526 0.105103 0.023024
C13   C     C_R   0.710184 0.739853 0.950338 0.553237
C14   C     C_3   0.302962 0.649876 0.114169 -0.266784
C15   C     C_3   0.284018 0.546209 0.125270 -0.495670
C16   C     C_3   0.871512 0.242322 0.355575 -0.146827
C17   C     C_3   0.394564 0.207105 0.701911 -0.130658
C18   C     C_3   0.231737 0.634661 0.698696 -0.007500
C19   C     C_3   0.329703 0.635165 0.717536 -0.252246
C20   C     C_3   0.311200 0.524721 0.717155 -0.482318
C21   C     C_3   0.072081 0.997445 0.855714 -0.132221
C22   C     C_3   0.805100 0.186103 0.218684 0.007703
C23   C     C_3   0.923242 0.267973 0.230399 -0.282829
C24   C     C_R   0.821624 0.419668 0.161394 -0.082701
C25   C     C_3   0.990538 0.216230 0.237396 -0.486969
C26   C     C_3   0.699871 0.971086 0.945923 0.014047
C27   C     C_3   0.681668 0.045877 0.923570 -0.275828
C28   C     C_3   0.628631 0.098301 0.949788 -0.471201
C29   C     C_3   0.854227 0.099039 0.640255 -0.127584
C30   C     C_R   0.823217 0.441812 0.121927 -0.135605
C31   C     C_R   0.738717 0.302594 0.237628 0.282494
C32   C     C_R   0.726631 0.288086 0.278658 -0.071334
C33   C     C_R   0.717222 0.361032 0.307686 0.023809
C34   C     C_R   0.717813 0.448175 0.295957 -0.136989
C35   C     C_R   0.725501 0.461356 0.255363 -0.174439
C36   C     C_R   0.734037 0.388303 0.226193 0.035937
C37   C     C_R   0.732457 0.400278 0.183310 0.073059
C38   C     C_R   0.603148 0.332022 0.365306 -0.171808
C39   C     C_R   0.593988 0.205043 0.456538 0.547043
C40   C     C_R   0.572061 0.294020 0.401723 -0.146281
C41   C     C_R   0.734581 0.282782 0.409226 -0.111588
C42   C     C_R   0.764469 0.316807 0.371680 0.288301
C43   C     C_R   0.697111 0.340240 0.349526 0.047571
C44   C     C_R   0.635681 0.265513 0.423169 -0.021988
C45   C     C_R   0.245611 0.877841 0.393201 0.020232
C46   C     C_R   0.232092 0.958258 0.380832 -0.126817
C47   C     C_R   0.208935 0.956132 0.339730 -0.114718
C48   C     C_R   0.722094 0.893372 0.654146 -0.110777
C49   C     C_R   0.198437 0.873494 0.310591 0.038341
C50   C     C_R   0.204948 0.789968 0.322843 -0.111237
C51   C     C_R   0.295797 0.892722 0.434342 0.542553
C52   C     C_R   0.228147 0.791879 0.363926 -0.122372
C53   C     C_R   0.208468 0.821193 0.162682 -0.099870
C54   C     C_R   0.178385 0.796563 0.120477 0.269773
C55   C     C_R   0.078188 0.890849 0.130792 -0.179075
C56   C     C_R   0.105414 0.911368 0.172670 -0.134494
C57   C     C_R   0.167309 0.873314 0.188746 -0.003605
C58   C     C_1   0.179643 0.877944 0.231988 -0.026872
C59   C     C_R   0.636617 0.800485 0.662507 -0.014390
C60   C     C_1   0.187680 0.877055 0.267965 -0.028535
C61   C     C_R   0.110207 0.829574 0.104563 0.037525
C62   C     C_R   0.636152 0.880382 0.394888 0.022376
C63   C     C_R   0.614412 0.905185 0.551604 0.563059
C64   C     C_R   0.551207 0.801307 0.367881 -0.129840
C65   C     C_R   0.561886 0.790312 0.326031 -0.115321
C66   C     C_R   0.657539 0.857659 0.310900 0.039231
C67   C     C_R   0.744684 0.931830 0.337692 -0.124100
C68   C     C_R   0.734284 0.943036 0.379490 -0.130093
C69   C     C_R   0.777256 0.920102 0.174692 -0.125148
C70   C     C_R   0.634317 0.864057 0.587013 0.036267
C71   C     C_R   0.793657 0.906667 0.133459 -0.129406
C72   C     C_R   0.615882 0.756202 0.120447 -0.125162
C73   C     C_R   0.599320 0.770574 0.161593 -0.113479
C74   C     C_R   0.681366 0.850259 0.188909 0.042260
C75   C     C_R   0.589358 0.198930 0.571099 0.544041
C76   C     C_1   0.671393 0.853732 0.231827 -0.037734
C77   C     C_1   0.664622 0.855006 0.267865 -0.037950
C78   C     C_R   0.714878 0.821627 0.106317 0.025542
C79   C     C_R   0.620197 0.246225 0.614555 -0.024259
C80   C     C_R   0.549074 0.267240 0.637796 -0.110726
C81   C     C_R   0.052588 0.781598 0.063700 0.569354
C82   C     C_R   0.562067 0.284471 0.680528 0.288708
C83   C     C_R   0.649989 0.285712 0.700100 0.049224
C84   C     C_R   0.725585 0.273041 0.677121 -0.178360
C85   C     C_R   0.710771 0.253238 0.634598 -0.149685
C86   C     C_R   0.758383 0.331395 0.846531 -0.123213
C87   C     C_R   0.289347 0.887109 0.548585 0.546806
C88   C     C_R   0.769220 0.362203 0.888709 -0.133568
C89   C     C_R   0.590924 0.342571 0.885687 -0.131406
C90   C     C_R   0.580285 0.311672 0.843535 -0.106895
C91   C     C_R   0.665632 0.310240 0.823767 0.034982
C92   C     C_R   0.743732 0.486205 0.065940 0.544260
C93   C     C_1   0.662369 0.299078 0.780141 -0.023434
C94   C     C_1   0.658545 0.293174 0.743655 0.007996
C95   C     C_R   0.687669 0.373306 0.908422 0.012261
C96   C     C_R   0.066611 0.753521 0.908246 -0.018329
C97   C     C_R   0.095071 0.850022 0.896303 -0.109495
C98   C     C_R   0.111601 0.863453 0.855452 0.289007
C99   C     C_R   0.735392 0.444519 0.104122 0.019906
C100  C     C_R   0.104063 0.779754 0.827095 0.047011
C101  C     C_R   0.084010 0.686243 0.839935 -0.176113
C102  C     C_R   0.065118 0.673038 0.880193 -0.143233
C103  C     C_R   0.742858 0.789450 0.066324 0.534942
C104  C     C_R   0.177324 0.756909 0.761405 -0.108025
C105  C     C_R   0.182953 0.760690 0.719585 0.279139
C106  C     C_R   0.125020 0.799886 0.700453 0.032694
C107  C     C_R   0.057763 0.828480 0.722470 -0.175376
C108  C     C_R   0.049484 0.820324 0.763613 -0.091628
C109  C     C_R   0.111000 0.786628 0.783467 0.019717
C110  C     C_R   0.185693 0.919820 0.649705 -0.119964
C111  C     C_R   0.643962 0.419172 0.125543 -0.126120
C112  C     C_R   0.226530 0.941769 0.612206 -0.129331
C113  C     C_R   0.168530 0.758154 0.590330 -0.119118
C114  C     C_R   0.021403 0.731876 0.947419 0.550080
C115  C     C_R   0.127493 0.736363 0.627701 -0.078190
C116  C     C_R   0.141197 0.817878 0.658236 0.062944
C117  C     C_R   0.223239 0.861716 0.583145 0.025071
C118  C     C_R   0.660512 0.744397 0.912207 0.016643
C119  C     C_R   0.592443 0.651455 0.885860 -0.176891
C120  C     C_R   0.568160 0.653818 0.845372 -0.141718
C121  C     C_R   0.611889 0.749101 0.830630 -0.015796
C122  C     C_R   0.673145 0.842204 0.857828 -0.098304
C123  C     C_R   0.642847 0.397774 0.164965 -0.119079
C124  C     C_R   0.695058 0.840899 0.898581 0.264703
Cr1   Cr    Cr6+3 0.424820 0.846020 0.489780 1.011670
Cr2   Cr    Cr6+3 0.657880 0.078580 0.505700 1.032684
Cr3   Cr    Cr6+3 0.417280 0.075360 0.504550 1.012289
Cr4   Cr    Cr6+3 0.903360 0.812540 0.006510 1.027318
Cr5   Cr    Cr6+3 0.914630 0.587050 0.006280 1.012912
Cr6   Cr    Cr6+3 0.673560 0.582680 0.008540 1.007113
H1    H     H_    0.575043 0.420434 0.112610 0.131199
H2    H     H_    0.024633 0.915667 0.119421 0.133124
H3    H     H_    0.894867 0.461393 0.106159 0.116289
H4    H     H_    0.203533 0.020905 0.330527 0.106548
H5    H     H_    0.870804 0.958004 0.123532 0.118366
H6    H     H_    0.841349 0.981489 0.195797 0.094464
H7    H     H_    0.819178 0.983968 0.326163 0.096730
H8    H     H_    0.801111 0.004793 0.399442 0.123703
H9    H     H_    0.474445 0.752382 0.378718 0.125982
H10   H     H_    0.524869 0.716206 0.172449 0.103359
H11   H     H_    0.553705 0.690186 0.100207 0.117038
H12   H     H_    0.495770 0.281951 0.411925 0.138909
H13   H     H_    0.494177 0.732354 0.305393 0.105876
H14   H     H_    0.844605 0.384947 0.905307 0.123261
H15   H     H_    0.824750 0.330150 0.831464 0.100711
H16   H     H_    0.793747 0.274310 0.692104 0.099489
H17   H     H_    0.767190 0.238065 0.617506 0.141563
H18   H     H_    0.479915 0.264498 0.623006 0.133201
H19   H     H_    0.507993 0.295064 0.826106 0.123584
H20   H     H_    0.526580 0.350072 0.899874 0.128802
H21   H     H_    0.100756 0.913462 0.918558 0.121889
H22   H     H_    0.042877 0.597726 0.888683 0.137373
H23   H     H_    0.891436 0.422169 0.175453 0.107920
H24   H     H_    0.091470 0.657013 0.633790 0.106381
H25   H     H_    0.719321 0.218363 0.288127 0.109646
H26   H     H_    0.226216 0.732691 0.776885 0.105730
H27   H     H_    0.012276 0.857624 0.707793 0.113860
H28   H     H_    0.995491 0.840836 0.779993 0.136730
H29   H     H_    0.196317 0.983375 0.673114 0.096413
H30   H     H_    0.267889 0.022167 0.607283 0.121162
H31   H     H_    0.077456 0.621315 0.818262 0.107041
H32   H     H_    0.163348 0.694847 0.568073 0.123800
H33   H     H_    0.564296 0.576486 0.895642 0.136633
H34   H     H_    0.786385 0.265447 0.426642 0.126412
H35   H     H_    0.785947 0.940317 0.677927 0.097338
H36   H     H_    0.604034 0.916257 0.724055 0.120459
H37   H     H_    0.584631 0.890768 0.795062 0.103463
H38   H     H_    0.519332 0.580937 0.825154 0.119402
H39   H     H_    0.635353 0.640112 0.694734 0.124447
H40   H     H_    0.622552 0.617119 0.766602 0.122806
H41   H     H_    0.490284 0.661595 0.637972 0.119072
H42   H     H_    0.487984 0.715230 0.572287 0.136898
H43   H     H_    0.709644 0.916620 0.847124 0.112192
H44   H     H_    0.573226 0.382043 0.181647 0.108833
H45   H     H_    0.259743 0.795517 0.175408 0.107197
H46   H     H_    0.709614 0.504397 0.318058 0.123975
H47   H     H_    0.722927 0.527763 0.246427 0.122150
H48   H     H_    0.550413 0.348828 0.348108 0.116306
H49   H     H_    0.151940 0.586546 0.078615 0.157320
H50   H     H_    0.146565 0.626114 0.131228 0.103373
H51   H     H_    0.349447 0.665373 0.086898 0.175643
H52   H     H_    0.351157 0.713391 0.139809 0.161474
H53   H     H_    0.240378 0.530613 0.153205 0.143737
H54   H     H_    0.362041 0.549296 0.131129 0.141999
H55   H     H_    0.236872 0.481513 0.099850 0.147819
H56   H     H_    0.196485 0.725405 0.300451 0.108188
H57   H     H_    0.795269 0.169009 0.344959 0.105748
H58   H     H_    0.903029 0.240024 0.385796 0.120668
H59   H     H_    0.930716 0.245961 0.333595 0.135843
H60   H     H_    0.409358 0.145942 0.711801 0.128193
H61   H     H_    0.351655 0.179488 0.670973 0.103180
H62   H     H_    0.341313 0.219863 0.723285 0.140182
H63   H     H_    0.215091 0.594476 0.666587 0.141892
H64   H     H_    0.159972 0.587597 0.714799 0.104446
H65   H     H_    0.398878 0.677308 0.699891 0.190542
H66   H     H_    0.349178 0.676759 0.749458 0.168502
H67   H     H_    0.238481 0.729029 0.372351 0.129794
H68   H     H_    0.242824 0.481229 0.735049 0.139608
H69   H     H_    0.383829 0.528142 0.731022 0.167347
H70   H     H_    0.294504 0.482593 0.685372 0.146205
H71   H     H_    0.096981 0.040301 0.887414 0.128359
H72   H     H_    0.986702 0.935047 0.852909 0.119384
H73   H     H_    0.077947 0.054000 0.835889 0.136225
H74   H     H_    0.802111 0.131306 0.191662 0.167360
H75   H     H_    0.769973 0.137162 0.242698 0.120776
H76   H     H_    0.955085 0.315120 0.205597 0.159488
H77   H     H_    0.930884 0.321153 0.258790 0.174038
H78   H     H_    0.245219 0.025682 0.402554 0.125547
H79   H     H_    0.958630 0.166382 0.261396 0.137432
H80   H     H_    0.074348 0.277127 0.247378 0.149028
H81   H     H_    0.990390 0.167756 0.208724 0.141485
H82   H     H_    0.745978 0.014647 0.975667 0.161363
H83   H     H_    0.621886 0.907258 0.953186 0.113507
H84   H     H_    0.759667 0.107000 0.915510 0.172977
H85   H     H_    0.629552 0.002204 0.894991 0.153564
H86   H     H_    0.549925 0.038703 0.957918 0.156197
H87   H     H_    0.615752 0.150961 0.932538 0.159223
H88   H     H_    0.680509 0.145302 0.978108 0.149208
H89   H     H_    0.073611 0.952279 0.192658 0.119356
H90   H     H_    0.913361 0.089017 0.658195 0.109855
H91   H     H_    0.793845 0.104757 0.659829 0.103681
H92   H     H_    0.898866 0.174230 0.628814 0.132446
O1    O     O_R   0.318160 0.824460 0.443680 -0.519147
O2    O     O_R   0.668160 0.499860 0.053480 -0.517507
O3    O     O_R   0.689170 0.693840 0.050110 -0.501231
O4    O     O_R   0.525040 0.857250 0.449830 -0.503969
O5    O     O_R   0.803860 0.812940 0.962540 -0.461850
O6    O     O_R   0.982950 0.787950 0.964120 -0.501024
O7    O     O_R   0.007050 0.649970 0.960540 -0.515185
O8    O     O_R   0.807910 0.482370 0.965590 -0.503357
O9    O     O_R   0.643310 0.460980 0.963840 -0.518128
O10   O     O_R   0.666140 0.657800 0.967020 -0.513786
O11   O     O_3   0.830520 0.660760 0.007110 -0.242778
O12   O     O_R   0.645130 0.163230 0.552140 -0.495344
O13   O     O_R   0.684760 0.998800 0.456360 -0.520985
O14   O     O_R   0.647540 0.166310 0.470260 -0.507207
O15   O     O_R   0.500960 0.181750 0.467450 -0.515513
O16   O     O_R   0.331100 0.981120 0.457080 -0.501235
O17   O     O_R   0.315560 0.821140 0.532010 -0.515431
O18   O     O_R   0.522630 0.854180 0.531710 -0.515758
O19   O     O_R   0.682160 0.995480 0.544690 -0.451329
O20   O     O_3   0.218622 0.745210 0.093987 -0.557004
O21   O     O_3   0.860797 0.332555 0.356770 -0.567939
O22   O     O_3   0.490328 0.302304 0.703342 -0.572904
O23   O     O_R   0.498360 0.178430 0.555780 -0.522110
O24   O     O_3   0.254529 0.738800 0.698224 -0.565862
O25   O     O_3   0.141708 0.958648 0.842847 -0.569666
O26   O     O_3   0.742549 0.230219 0.206982 -0.569903
O27   O     O_3   0.761893 0.934413 0.923420 -0.563042
O28   O     O_3   0.806421 0.018275 0.606449 -0.541093
O29   O     O_R   0.328690 0.978040 0.538950 -0.502116
O30   O     O_3   0.499990 0.999990 0.500010 -0.241087
O31   O     O_R   0.828710 0.851830 0.052170 -0.523531
O32   O     O_R   0.005980 0.823990 0.047210 -0.514016
O33   O     O_R   0.031900 0.688850 0.050170 -0.484035
O34   O     O_R   0.830940 0.518420 0.048680 -0.507856

loop_
_geom_bond_atom_site_label_1
_geom_bond_atom_site_label_2
_ccdc_geom_bond_type
C1    O4    A    
C35   H47   S    
C22   O26   S    
C55   C56   A    
C19   H65   S    
C93   C94   T    
C38   H48   S    
C40   H12   S    
C18   H64   S    
C73   C74   A    
C21   H73   S    
C120  C121  A    
C68   H8    S    
C19   C20   S    
C79   C85   A    
C1    C62   S    
C123  H44   S    
C114  O7    A    
C97   C98   A    
C90   C91   A    
C11   C70   A    
C3    H37   S    
C7    C8    A    
C21   O25   S    
C53   C54   A    
C17   H61   S    
C29   H91   S    
C15   H55   S    
C120  H38   S    
C26   C27   S    
C101  C102  A    
C49   C60   S    
C74   C76   S    
C83   C84   A    
C5    C6    A    
C54   O20   S    
C2    C95   S    
C87   C117  S    
C110  C116  A    
C96   C102  A    
C86   C91   A    
C31   C36   A    
C71   H5    S    
C39   O14   A    
C65   H13   S    
C86   C88   A    
C8    C121  S    
C108  H28   S    
C106  C107  A    
C45   C51   S    
C58   C60   T    
C115  C116  A    
C63   O19   A    
Cr5   O7    S    
C42   O21   S    
C108  C109  A    
C75   O12   A    
Cr2   O30   S    
C18   C19   S    
C41   C42   A    
C50   C52   A    
C25   H81   S    
C118  C119  A    
C20   H70   S    
C62   C64   A    
C14   H52   S    
C113  H32   S    
C37   C123  A    
C29   H90   S    
C48   H35   S    
Cr5   O33   S    
Cr6   O3    S    
C51   O1    A    
C15   H53   S    
C27   H84   S    
C72   C78   A    
C107  C108  A    
Cr5   O34   S    
Cr3   O23   S    
C81   O32   A    
Cr2   O14   S    
C9    C10   A    
C40   C44   A    
C75   O23   A    
C71   C78   A    
Cr6   O9    S    
C66   C67   A    
C88   C95   A    
C69   C71   A    
C100  C109  S    
C96   C97   A    
C18   H63   S    
C27   H85   S    
C96   C114  S    
C11   C48   A    
C29   H92   S    
C90   H19   S    
Cr2   O12   S    
C47   H4    S    
C104  C105  A    
C107  H27   S    
C13   C118  S    
C24   C30   A    
C76   C77   T    
Cr1   O1    S    
C17   H62   S    
C72   H11   S    
C11   O28   S    
C87   O17   A    
C5    C59   S    
C111  C123  A    
C67   C68   A    
C33   C43   S    
C21   H71   S    
C92   O2    A    
C84   C85   A    
C17   O22   S    
C47   C49   A    
C3    C8    A    
C16   H58   S    
C119  H33   S    
C63   O18   A    
C53   C57   A    
C4    C5    A    
C45   C52   A    
C45   C46   A    
C83   C94   S    
Cr5   O8    S    
C104  H26   S    
C22   H75   S    
Cr5   O11   S    
C9    C59   A    
C35   C36   A    
Cr4   O31   S    
C89   C95   A    
C80   H18   S    
C87   O29   A    
C16   O21   S    
C20   H69   S    
C124  O27   S    
C26   O27   S    
C91   C93   S    
C32   H25   S    
C18   O24   S    
Cr4   O32   S    
C31   C32   A    
C55   H2    S    
C63   C70   S    
Cr6   O10   S    
Cr4   O6    S    
C30   H3    S    
C99   C111  A    
C15   H54   S    
Cr2   O19   S    
C24   C37   A    
C97   H21   S    
C82   O22   S    
C69   C74   A    
C118  C124  A    
C81   O33   A    
C25   H79   S    
Cr2   O13   S    
C20   H68   S    
C121  C122  A    
C6    C7    A    
Cr1   O18   S    
C2    O9    A    
C62   C68   A    
C113  C117  A    
C92   O34   A    
C80   C82   A    
C89   H20   S    
C12   H50   S    
C12   C14   S    
C82   C83   A    
C69   H6    S    
C98   C100  A    
C26   H83   S    
C115  H24   S    
C103  O31   A    
C41   C44   A    
C38   C43   A    
C31   O26   S    
C9    H41   S    
C42   C43   A    
C122  C124  A    
C3    C4    A    
C50   H56   S    
C86   H15   S    
C10   C70   A    
C39   O15   A    
C14   H51   S    
C24   H23   S    
C53   H45   S    
C48   C59   A    
C46   H78   S    
C111  H1    S    
Cr4   O11   S    
C56   C57   A    
C66   C77   S    
C46   C47   A    
C36   C37   S    
C28   H88   S    
C112  H30   S    
C23   H77   S    
C78   C103  S    
C14   C15   S    
C21   H72   S    
Cr1   O30   S    
C22   C23   S    
C85   H17   S    
C72   C73   A    
C16   H57   S    
Cr1   O17   S    
C13   O5    A    
C119  C120  A    
Cr3   O15   S    
C39   C44   S    
C6    H39   S    
C54   C61   A    
C84   H16   S    
C17   H60   S    
C103  O3    A    
C122  H43   S    
C105  C106  A    
C7    H40   S    
Cr6   O11   S    
C12   O20   S    
C22   H74   S    
C32   C33   A    
C34   C35   A    
C98   O25   S    
C65   C66   A    
C30   C99   A    
C61   C81   S    
C64   C65   A    
C13   O10   A    
C38   C40   A    
C28   H86   S    
C73   H10   S    
C57   C58   S    
C112  C117  A    
C75   C79   S    
C23   H76   S    
C1    O13   A    
Cr4   O5    S    
C55   C61   A    
C101  H31   S    
C100  C101  A    
C33   C34   A    
C4    H36   S    
C51   O16   A    
Cr3   O29   S    
Cr6   O2    S    
C23   C25   S    
C25   H80   S    
C67   H7    S    
C110  C112  A    
C105  O24   S    
C34   H46   S    
C16   H59   S    
C2    O8    A    
C114  O6    A    
C79   C80   A    
C28   H87   S    
C19   H66   S    
C12   H49   S    
Cr3   O16   S    
C49   C50   A    
C41   H34   S    
C106  C116  S    
C27   C28   S    
C104  C109  A    
Cr3   O30   S    
C26   H82   S    
C52   H67   S    
C89   C90   A    
C10   H42   S    
C88   H14   S    
C56   H89   S    
C110  H29   S    
Cr1   O4    S    
C92   C99   S    
C102  H22   S    
C29   O28   S    
C113  C115  A    
C64   H9    S    
