data_mof_unit_63402.cif
_audit_creation_date              2012-12-10T17:12:56-0500
_audit_creation_method            fapswitch 2.2
_symmetry_space_group_name_H-M    P1
_symmetry_Int_Tables_number       1
_space_group_crystal_system       triclinic
_cell_length_a                    14.329535
_cell_length_b                    12.979434
_cell_length_c                    11.792154
_cell_angle_alpha                 98.547492
_cell_angle_beta                  92.741815
_cell_angle_gamma                 92.367696
_cell_volume                      2163.76643394

loop_
_atom_site_label
_atom_site_type_symbol
_atom_type_description
_atom_site_fract_x
_atom_site_fract_y
_atom_site_fract_z
_atom_type_partial_charge
C1    C     C_R   0.497085 0.300114 0.480111 0.900081
C2    C     C_R   0.502910 0.699886 0.519890 0.900028
C3    C     C_R   0.546641 0.023075 0.507543 -0.097577
C4    C     C_R   0.453336 0.976908 0.492402 -0.097608
C5    C     C_R   0.410917 0.400276 0.029871 0.564336
C6    C     C_R   0.589132 0.599676 0.970122 0.564304
C7    C     C_R   0.420780 0.410611 0.149313 0.685776
C8    C     C_R   0.579246 0.589362 0.850682 0.685763
C9    C     C_R   0.540544 0.543558 0.154049 0.418334
C10   C     C_R   0.459460 0.456440 0.845952 0.418330
C11   C     C_R   0.533102 0.536544 0.031679 -0.342109
C12   C     C_R   0.466920 0.463437 0.968319 -0.342093
C13   C     C_R   0.331312 0.500355 0.500784 0.845159
C14   C     C_R   0.668688 0.499647 0.499216 0.845183
C15   C     C_1   0.229000 0.500558 0.502038 -0.049428
C16   C     C_1   0.771000 0.499447 0.497963 -0.049408
C17   C     C_1   0.143521 0.500437 0.501750 0.086282
C18   C     C_1   0.856479 0.499569 0.498250 0.086293
C19   C     C_1   0.042763 0.500143 0.500588 0.088602
C20   C     C_1   0.957237 0.499864 0.499412 0.088606
C21   C     C_R   0.514746 0.811986 0.526595 -0.206877
C22   C     C_R   0.485235 0.188014 0.473408 -0.206817
C23   C     C_R   0.377120 0.040844 0.476992 0.319439
C24   C     C_R   0.622855 0.959136 0.522959 0.319462
C25   C     C_R   0.394481 0.142498 0.455260 0.189916
C26   C     C_R   0.605500 0.857507 0.544746 0.189898
C27   C     C_R   0.559890 0.131766 0.508752 0.221708
C28   C     C_R   0.440092 0.868215 0.491183 0.221710
Cu1   Cu    Cu3+1 0.506360 0.507730 0.615930 1.096711
Cu2   Cu    Cu3+1 0.493640 0.492270 0.384070 1.096729
N1    N     N_R   0.515930 0.519350 0.790130 -0.316743
N2    N     N_R   0.484070 0.480650 0.209870 -0.316737
O1    O     O_R   0.504510 0.354460 0.582000 -0.542557
O2    O     O_R   0.495490 0.645540 0.418000 -0.542532
O3    O     O_R   0.493770 0.341410 0.386200 -0.522935
O4    O     O_R   0.506230 0.658590 0.613800 -0.522969
O5    O     O_R   0.381420 0.506530 0.597920 -0.557326
O6    O     O_R   0.618580 0.493470 0.402080 -0.557330
O7    O     O_R   0.370680 0.493470 0.402120 -0.508767
O8    O     O_R   0.629320 0.506530 0.597880 -0.508754
Br1   Br    Br    0.329129 0.788614 0.419715 -0.380656
Br2   Br    Br    0.670886 0.211334 0.580043 -0.380752
Br3   Br    Br    0.708526 0.775574 0.584722 -0.285807
Br4   Br    Br    0.291467 0.224456 0.415340 -0.285875
Br5   Br    Br    0.251149 0.006418 0.516579 -0.229943
Br6   Br    Br    0.748788 0.993476 0.483269 -0.229936
Br7   Br    Br    0.369271 0.358557 0.756698 -0.271386
Br8   Br    Br    0.630693 0.641485 0.243314 -0.271361
F1    F     F_    0.634199 0.650481 0.794875 -0.560677
F2    F     F_    0.365844 0.349471 0.205115 -0.560682
F3    F     F_    0.345943 0.327584 0.977892 -0.543524
F4    F     F_    0.654203 0.672278 0.022087 -0.543485

loop_
_geom_bond_atom_site_label_1
_geom_bond_atom_site_label_2
_ccdc_geom_bond_type
Cu2   O7    S    
C11   C12   A    
Cu1   Cu2   S    
C23   Br5   S    
C14   O6    A    
C5    C7    A    
C13   O5    A    
C19   C20   T    
Cu1   O4    S    
C21   C26   A    
C24   Br6   S    
C2    O2    A    
C2    C21   S    
C3    C27   A    
C1    O1    A    
C1    C22   S    
Cu1   N1    S    
Cu2   N2    S    
C9    C11   A    
C27   Br2   S    
C1    O3    A    
C3    C24   A    
C10   C12   A    
Cu2   O3    S    
C5    C12   A    
C8    F1    S    
C25   Br4   S    
C17   C19   S    
C21   C28   A    
C24   C26   A    
C26   Br3   S    
C18   C20   S    
C22   C27   A    
C13   C15   S    
C14   C16   S    
Cu1   O8    S    
C13   O7    A    
Cu1   O5    S    
Cu2   O2    S    
C14   O8    A    
C3    C4    A    
Cu1   O1    S    
C28   Br1   S    
C6    C11   A    
C23   C25   A    
Cu2   O6    S    
C9    Br8   S    
C16   C18   T    
C4    C28   A    
C2    O4    A    
C10   Br7   S    
C15   C17   T    
C4    C23   A    
C5    F3    S    
C6    C8    A    
C7    N2    A    
C9    N2    A    
C6    F4    S    
C8    N1    A    
C10   N1    A    
C7    F2    S    
C22   C25   A    
