data_mof_unit_62839.cif
_audit_creation_date              2013-03-05T15:39:49-0500
_audit_creation_method            fapswitch 2.2
_symmetry_space_group_name_H-M    P1
_symmetry_Int_Tables_number       1
_space_group_crystal_system       triclinic
_cell_length_a                    12.112543
_cell_length_b                    12.546099
_cell_length_c                    7.474451
_cell_angle_alpha                 89.999856
_cell_angle_beta                  108.422848
_cell_angle_gamma                 89.999642
_cell_volume                      1077.64361311

loop_
_atom_site_label
_atom_site_type_symbol
_atom_site_description
_atom_site_fract_x
_atom_site_fract_y
_atom_site_fract_z
_atom_type_partial_charge
O1    O     O_R   0.398880 0.887420 0.621600 -0.552348
O2    O     O_R   0.601120 0.112580 0.378400 -0.552343
O3    O     O_R   0.601120 0.887420 0.378400 -0.552358
O4    O     O_R   0.398880 0.112580 0.621600 -0.552358
O5    O     O_R   0.898880 0.387420 0.621600 -0.552351
O6    O     O_R   0.101120 0.612580 0.378400 -0.552346
O7    O     O_R   0.101120 0.387420 0.378400 -0.552363
O8    O     O_R   0.898880 0.612580 0.621600 -0.552346
O9    O     O_R   0.369080 0.887420 0.305440 -0.522760
O10   O     O_R   0.630920 0.112580 0.694560 -0.522768
O11   O     O_R   0.630920 0.887420 0.694560 -0.522804
O12   O     O_R   0.369080 0.112580 0.305440 -0.522789
O13   O     O_R   0.869080 0.387420 0.305440 -0.522726
O14   O     O_R   0.130920 0.612580 0.694560 -0.522746
O15   O     O_R   0.130920 0.387420 0.694560 -0.522835
O16   O     O_R   0.869080 0.612580 0.305440 -0.522802
C1    C     C_R   0.346352 0.853776 0.452984 0.810492
C2    C     C_R   0.653641 0.146229 0.547014 0.810470
C3    C     C_R   0.653657 0.853785 0.547017 0.810523
C4    C     C_R   0.346337 0.146211 0.452981 0.810526
C5    C     C_R   0.846350 0.353778 0.452983 0.810444
C6    C     C_R   0.153650 0.646222 0.547016 0.810490
C7    C     C_R   0.153657 0.353785 0.547017 0.810517
C8    C     C_R   0.846342 0.646215 0.452982 0.810531
Cu1   Cu    Cu3+1 0.517640 0.000000 0.687200 1.275709
Cu2   Cu    Cu3+1 0.482360 0.000000 0.312800 1.275716
Cu3   Cu    Cu3+1 0.017640 0.500000 0.687200 1.275707
Cu4   Cu    Cu3+1 0.982360 0.500000 0.312800 1.275727
C9    C     C_2   0.250156 0.217035 0.428630 0.065757
C10   C     C_2   0.749830 0.782953 0.571372 0.065750
C11   C     C_2   0.749788 0.217086 0.571389 0.065790
C12   C     C_2   0.250194 0.782930 0.428615 0.065771
C13   C     C_2   0.750170 0.717047 0.428626 0.065757
C14   C     C_2   0.249828 0.282952 0.571368 0.065756
C15   C     C_2   0.249812 0.717064 0.571386 0.065766
C16   C     C_2   0.750186 0.282937 0.428609 0.065762
N1    N     N_2   0.455760 0.000000 0.031460 0.258123
N2    N     N_2   0.544240 0.000000 0.968540 0.258120
N3    N     N_2   0.955760 0.500000 0.031460 0.258141
N4    N     N_2   0.044240 0.500000 0.968540 0.258109
N5    N     N_R   0.649314 0.701840 0.264856 0.142921
O17   O     O_R   0.550377 0.674322 0.285315 -0.270865
O18   O     O_R   0.660090 0.700762 0.097122 -0.194643
N6    N     N_R   0.350692 0.298169 0.735120 0.142915
O19   O     O_R   0.449622 0.325695 0.714636 -0.270874
O20   O     O_R   0.339933 0.299227 0.902867 -0.194676
N7    N     N_R   0.350619 0.701920 0.735251 0.142930
O21   O     O_R   0.449580 0.674314 0.714963 -0.270744
O22   O     O_R   0.339807 0.701172 0.902982 -0.194571
N8    N     N_R   0.649394 0.298062 0.264715 0.142938
O23   O     O_R   0.550427 0.325687 0.284946 -0.270721
O24   O     O_R   0.660223 0.298743 0.096986 -0.194529
N9    N     N_R   0.149279 0.201800 0.264902 0.142921
O25   O     O_R   0.050350 0.174318 0.285449 -0.270926
O26   O     O_R   0.160047 0.200577 0.097167 -0.194659
N10   N     N_R   0.850683 0.798157 0.735148 0.142917
O27   O     O_R   0.949634 0.825650 0.714695 -0.270871
O28   O     O_R   0.839902 0.799205 0.902895 -0.194649
N11   N     N_R   0.850567 0.201982 0.735305 0.142912
O29   O     O_R   0.949514 0.174249 0.715125 -0.270663
O30   O     O_R   0.839735 0.201475 0.903051 -0.194565
N12   N     N_R   0.149391 0.798068 0.264744 0.142928
O31   O     O_R   0.050432 0.825697 0.285019 -0.270735
O32   O     O_R   0.160203 0.798772 0.097008 -0.194571
F1    F     F_    0.350976 0.999994 0.900638 -0.491133
F2    F     F_    0.649024 0.000006 0.099362 -0.491136
F3    F     F_    0.850976 0.499994 0.900638 -0.491109
F4    F     F_    0.149024 0.500004 0.099362 -0.491151

loop_
_geom_bond_atom_site_label_1
_geom_bond_atom_site_label_2
_geom_bond_distance
_ccdc_geom_bond_type
O16   Cu4   1.957796 S    
N8    O24   1.301122 A    
Cu2   N1    2.024253 S    
O3    C3    1.290162 A    
N12   O31   1.301799 A    
O14   Cu3   1.957808 S    
O2    C2    1.290171 A    
N5    O17   1.301741 A    
O1    C1    1.290170 A    
N7    O21   1.301788 A    
Cu4   N3    2.024253 S    
Cu3   N4    2.024254 S    
C7    C14   1.430305 S    
C13   N5    1.442920 S    
C10   N10   1.442916 S    
O12   C4    1.289216 A    
O13   Cu4   1.957810 S    
O15   C7    1.289211 A    
N8    O23   1.301750 A    
O13   C5    1.289198 A    
N11   O29   1.301721 A    
O2    Cu2   1.964400 S    
C5    C16   1.430290 S    
N7    O22   1.301068 A    
N9    O25   1.301799 A    
N10   O27   1.301797 A    
O1    Cu1   1.964402 S    
C6    C15   1.430290 S    
N5    O18   1.300946 A    
O14   C6    1.289200 A    
N1    N2    1.299353 D    
C9    N9    1.442932 S    
O10   C2    1.289190 A    
O7    C7    1.290159 A    
O10   Cu1   1.957808 S    
O9    C1    1.289197 A    
O8    C8    1.290164 A    
N10   O28   1.301067 A    
O9    Cu2   1.957810 S    
O4    Cu1   1.964386 S    
C4    C9    1.430334 S    
N9    O26   1.300930 A    
O12   Cu2   1.957796 S    
O15   Cu3   1.957796 S    
Cu1   N2    2.024254 S    
O6    Cu4   1.964400 S    
N11   O30   1.301257 A    
O11   Cu1   1.957796 S    
C12   N12   1.442868 S    
O4    C4    1.290163 A    
C12   C15   1.350850 D    
N2    F2    1.335135 S    
N3    N4    1.299353 D    
C14   N6    1.442913 S    
N6    O19   1.301752 A    
O16   C8    1.289208 A    
N4    F4    1.335135 S    
C11   N11   1.442836 S    
Cu3   Cu4   2.694068 S    
C1    C12   1.430281 S    
O8    Cu3   1.964386 S    
N1    F1    1.335135 S    
C11   C16   1.350835 D    
O11   C3    1.289209 A    
N12   O32   1.301099 A    
C2    C11   1.430258 S    
C10   C13   1.350885 D    
Cu1   Cu2   2.694068 S    
O5    Cu3   1.964402 S    
C3    C10   1.430306 S    
N3    F3    1.335135 S    
C9    C14   1.350882 D    
O3    Cu2   1.964386 S    
C15   N7    1.442877 S    
O7    Cu4   1.964386 S    
C8    C13   1.430313 S    
C16   N8    1.442869 S    
N6    O20   1.300957 A    
O5    C5    1.290174 A    
O6    C6    1.290171 A    
