data_mof_unit_54816.cif
_audit_creation_date              2012-12-10T21:00:21-0500
_audit_creation_method            fapswitch 2.2
_symmetry_space_group_name_H-M    P1
_symmetry_Int_Tables_number       1
_space_group_crystal_system       triclinic
_cell_length_a                    15.837114
_cell_length_b                    15.078713
_cell_length_c                    15.79459
_cell_angle_alpha                 89.50103
_cell_angle_beta                  90.167098
_cell_angle_gamma                 89.808528
_cell_volume                      3771.61971211

loop_
_atom_site_label
_atom_site_type_symbol
_atom_type_description
_atom_site_fract_x
_atom_site_fract_y
_atom_site_fract_z
_atom_type_partial_charge
C1    C     C_R   0.338820 0.500076 0.500600 0.905150
C2    C     C_3   0.609526 0.484059 0.950404 -0.041832
C3    C     C_3   0.610637 0.485868 0.052108 -0.107510
C4    C     C_1   0.509761 0.497838 0.824771 -0.069521
C5    C     C_1   0.513887 0.502624 0.175323 -0.050967
C6    C     C_1   0.509023 0.501935 0.250129 -0.196397
C7    C     C_R   0.955782 0.581567 0.524838 -0.051975
C8    C     C_R   0.956238 0.419274 0.537130 -0.052475
C9    C     C_R   0.912734 0.500199 0.527456 0.029312
C10   C     C_R   0.044539 0.419372 0.539126 -0.047714
C11   C     C_R   0.044027 0.581600 0.526811 -0.050776
C12   C     C_R   0.087644 0.500321 0.530702 0.029595
C13   C     C_1   0.823665 0.499641 0.517215 -0.019717
C14   C     C_R   0.501890 0.500483 0.338108 0.910081
C15   C     C_1   0.176676 0.499848 0.520390 -0.026072
C16   C     C_1   0.250904 0.500004 0.510358 -0.170047
C17   C     C_1   0.749258 0.499552 0.508344 -0.159558
C18   C     C_R   0.429767 0.952895 0.454636 -0.022086
C19   C     C_R   0.430799 0.048191 0.452763 -0.022774
C20   C     C_R   0.494247 0.904988 0.498302 0.018556
C21   C     C_R   0.494053 0.095033 0.498207 0.018160
C22   C     C_R   0.556164 0.952858 0.542028 -0.192330
C23   C     C_R   0.555601 0.046041 0.542633 -0.185383
C24   C     C_1   0.497645 0.807044 0.499657 0.057906
C25   C     C_1   0.497876 0.192962 0.499144 0.043739
C26   C     C_R   0.661160 0.499864 0.500229 0.906311
C27   C     C_R   0.499905 0.499593 0.661890 0.916552
C28   C     C_3   0.482653 0.597384 0.047964 -0.032231
C29   C     C_3   0.457063 0.419175 0.051906 -0.030668
C30   C     C_3   0.453160 0.422317 0.951012 -0.237099
C31   C     C_3   0.475237 0.590435 0.947596 -0.237110
C32   C     C_1   0.504497 0.498491 0.749964 -0.190529
C33   C     C_3   0.515850 0.501508 0.083436 0.065526
C34   C     C_3   0.514762 0.498213 0.916035 0.082873
H1    H     H_    0.406909 0.581414 0.933844 0.148456
H2    H     H_    0.389773 0.449097 0.933756 0.148034
H3    H     H_    0.605401 0.917771 0.576488 0.146011
H4    H     H_    0.604458 0.080262 0.577527 0.149565
N1    N     N_1   0.500020 0.270550 0.499980 -0.088226
N2    N     N_1   0.500020 0.729450 0.499980 -0.086698
O1    O     O_R   0.378020 0.573650 0.500000 -0.599464
O2    O     O_R   0.378020 0.426350 0.500000 -0.613680
O3    O     O_R   0.500000 0.573700 0.377120 -0.618062
O4    O     O_R   0.500000 0.426300 0.377120 -0.612958
O5    O     O_R   0.621980 0.573680 0.499960 -0.609385
O6    O     O_R   0.621980 0.426320 0.499960 -0.604877
O7    O     O_R   0.500000 0.573630 0.622840 -0.609844
O8    O     O_R   0.500000 0.426370 0.622840 -0.613400
Zn1   Zn    Zn3+2 0.500000 0.598370 0.499970 0.986487
Zn2   Zn    Zn3+2 0.500000 0.401630 0.499970 0.981499
C35   C     C_1   0.395775 0.616407 0.079745 0.111641
N3    N     N_1   0.328766 0.632769 0.104421 -0.209607
C36   C     C_1   0.368168 0.431086 0.081203 0.109621
N4    N     N_1   0.299054 0.438546 0.103891 -0.197325
C37   C     C_R   0.483906 0.327515 0.092887 0.103651
C38   C     C_R   0.462266 0.307852 0.178407 -0.127278
C39   C     C_R   0.488104 0.229513 0.218475 -0.110547
C40   C     C_R   0.532797 0.165740 0.173897 -0.125821
C41   C     C_R   0.553975 0.181598 0.089742 -0.120401
C42   C     C_R   0.531319 0.261607 0.050279 -0.106440
H5    H     H_    0.424961 0.353269 0.215461 0.147238
H6    H     H_    0.472995 0.218396 0.284442 0.156389
H7    H     H_    0.551919 0.104551 0.204872 0.127601
H8    H     H_    0.590566 0.132939 0.055538 0.136859
H9    H     H_    0.556462 0.272458 0.988346 0.156426
C43   C     C_R   0.535661 0.677912 0.082042 0.113268
C44   C     C_R   0.525167 0.706900 0.166923 -0.137215
C45   C     C_R   0.571896 0.777267 0.199679 -0.132796
C46   C     C_R   0.628880 0.822787 0.148766 -0.108660
C47   C     C_R   0.641013 0.796474 0.065584 -0.120891
C48   C     C_R   0.596334 0.724540 0.033176 -0.105890
H10   H     H_    0.480157 0.675555 0.208747 0.143901
H11   H     H_    0.564296 0.796421 0.264969 0.127637
H12   H     H_    0.664649 0.877544 0.174199 0.129688
H13   H     H_    0.687093 0.830270 0.026555 0.137929
H14   H     H_    0.614490 0.703477 0.971566 0.154506
C49   C     C_R   0.438730 0.332857 0.904768 0.099990
C50   C     C_R   0.368570 0.280714 0.929371 -0.139575
C51   C     C_R   0.351145 0.199722 0.890868 -0.127753
C52   C     C_R   0.402249 0.169104 0.825723 -0.116631
C53   C     C_R   0.470476 0.219805 0.798609 -0.132595
C54   C     C_R   0.488447 0.300772 0.837091 -0.119267
H15   H     H_    0.326647 0.302396 0.978884 0.141579
H16   H     H_    0.297575 0.160816 0.911487 0.132162
H17   H     H_    0.388641 0.106401 0.795830 0.125457
H18   H     H_    0.509660 0.196428 0.747301 0.136461
H19   H     H_    0.541477 0.336223 0.812316 0.159162
C55   C     C_R   0.481605 0.678466 0.895611 0.101867
C56   C     C_R   0.537736 0.693210 0.827237 -0.121010
C57   C     C_R   0.538185 0.773732 0.782657 -0.124375
C58   C     C_R   0.482748 0.841536 0.804570 -0.115029
C59   C     C_R   0.426283 0.828812 0.870912 -0.129036
C60   C     C_R   0.425254 0.748359 0.915470 -0.138516
H20   H     H_    0.582266 0.644328 0.806918 0.155787
H21   H     H_    0.581787 0.783471 0.730752 0.135766
H22   H     H_    0.483296 0.903772 0.769880 0.127741
H23   H     H_    0.382732 0.881243 0.887665 0.130041
H24   H     H_    0.379424 0.740945 0.965431 0.142221
C61   C     C_1   0.670296 0.552131 0.087114 0.189146
N5    N     N_1   0.718469 0.601472 0.115363 -0.177742
C62   C     C_1   0.649596 0.405483 0.091137 0.189379
N6    N     N_1   0.682364 0.344706 0.122513 -0.179525
C63   C     C_1   0.667663 0.550917 0.913929 0.136561
N7    N     N_1   0.715258 0.601351 0.885925 -0.215973
C64   C     C_1   0.646879 0.400699 0.918268 0.138802
N8    N     N_1   0.678661 0.336581 0.893779 -0.215992
C65   C     C_1   0.089940 0.664728 0.524139 0.189318
N9    N     N_1   0.126645 0.730913 0.522421 -0.205313
C66   C     C_1   0.090823 0.336642 0.549198 0.176032
N10   N     N_1   0.127558 0.270669 0.557645 -0.217371
C67   C     C_1   0.909459 0.664655 0.518182 0.190449
N11   N     N_1   0.872509 0.730828 0.512874 -0.197578
C68   C     C_1   0.910312 0.336252 0.543078 0.197488
N12   N     N_1   0.873671 0.270124 0.547813 -0.191791
C69   C     C_R   0.368611 0.098241 0.399600 0.080265
C70   C     C_R   0.316740 0.163954 0.435115 -0.139982
C71   C     C_R   0.260358 0.212133 0.384074 -0.108877
C72   C     C_R   0.253977 0.194047 0.297713 -0.123554
C73   C     C_R   0.304072 0.127835 0.262101 -0.125595
C74   C     C_R   0.361428 0.080397 0.312578 -0.150013
H25   H     H_    0.320119 0.178060 0.502148 0.140962
H26   H     H_    0.221640 0.263654 0.411360 0.153047
H27   H     H_    0.210299 0.231438 0.258367 0.139257
H28   H     H_    0.299406 0.114128 0.195103 0.139374
H29   H     H_    0.401265 0.030793 0.283515 0.132228
C75   C     C_R   0.359502 0.903816 0.413548 0.100997
C76   C     C_R   0.375891 0.843498 0.348303 -0.157916
C77   C     C_R   0.309613 0.799194 0.308419 -0.122421
C78   C     C_R   0.226298 0.815392 0.332816 -0.099145
C79   C     C_R   0.209264 0.875686 0.397308 -0.101405
C80   C     C_R   0.275512 0.919256 0.438045 -0.115388
H30   H     H_    0.439836 0.831536 0.327955 0.117784
H31   H     H_    0.322854 0.752753 0.258264 0.146743
H32   H     H_    0.174944 0.781369 0.301679 0.137394
H33   H     H_    0.144683 0.888504 0.415919 0.146387
H34   H     H_    0.261399 0.965482 0.488205 0.133590

loop_
_geom_bond_atom_site_label_1
_geom_bond_atom_site_label_2
_ccdc_geom_bond_type
C27   O8    A    
C37   C38   A    
C62   N6    T    
C79   H33   S    
C77   C78   A    
C53   C54   A    
C57   C58   A    
C39   H6    S    
O7    Zn1   S    
C73   H28   S    
C38   C39   A    
C7    C11   A    
C41   H8    S    
C29   C30   S    
C17   C26   S    
C49   C54   A    
C19   C21   A    
C18   C19   A    
C5    C6    T    
C28   C35   S    
C3    C33   S    
C27   O7    A    
N2    Zn1   S    
C29   C33   S    
C70   C71   A    
C10   C66   S    
C44   H10   S    
C56   H20   S    
C9    C13   S    
C76   H30   S    
C26   O5    A    
C58   H22   S    
C72   C73   A    
C30   C49   S    
C50   H15   S    
C20   C24   S    
C8    C9    A    
C5    C33   S    
C65   N9    T    
C47   C48   A    
O5    Zn1   S    
C53   H18   S    
C3    C62   S    
O8    Zn2   S    
C43   C44   A    
C41   C42   A    
C37   C42   A    
C51   H16   S    
O1    Zn1   S    
C59   H23   S    
C4    C34   S    
C70   H25   S    
C30   C34   S    
C35   N3    T    
C45   H11   S    
C57   H21   S    
C80   H34   S    
C58   C59   A    
C74   H29   S    
C45   C46   A    
C29   C37   S    
C40   C41   A    
C49   C50   A    
C22   H3    S    
C44   C45   A    
C28   C43   S    
C71   H26   S    
C52   H17   S    
C6    C14   S    
C43   C48   A    
C12   C15   S    
C19   C69   S    
C11   C12   A    
C31   C34   S    
C46   H12   S    
C38   H5    S    
C1    C16   S    
C4    C32   T    
C10   C12   A    
C8    C68   S    
O2    Zn2   S    
C1    O1    A    
C20   C22   A    
C42   H9    S    
C21   C23   A    
C11   C65   S    
C31   H1    S    
C76   C77   A    
C47   H13   S    
C14   O4    A    
C68   N12   T    
O4    Zn2   S    
C40   H7    S    
C7    C9    A    
C21   C25   S    
C55   C60   A    
C31   C55   S    
C67   N11   T    
C27   C32   S    
C50   C51   A    
C28   C31   S    
O3    Zn1   S    
C52   C53   A    
C28   C33   S    
C73   C74   A    
C36   N4    T    
C30   H2    S    
C23   H4    S    
C64   N8    T    
O6    Zn2   S    
C2    C64   S    
C71   C72   A    
C61   N5    T    
C13   C17   T    
C2    C3    S    
C78   C79   A    
C77   H31   S    
C25   N1    T    
C2    C34   S    
C39   C40   A    
C48   H14   S    
C29   C36   S    
C75   C80   A    
C75   C76   A    
C15   C16   T    
C59   C60   A    
C24   N2    T    
C7    C67   S    
C79   C80   A    
C18   C20   A    
C72   H27   S    
C46   C47   A    
C2    C63   S    
C78   H32   S    
C26   O6    A    
C51   C52   A    
C3    C61   S    
C1    O2    A    
N1    Zn2   S    
C55   C56   A    
C8    C10   A    
C69   C74   A    
C63   N7    T    
C22   C23   A    
C69   C70   A    
C56   C57   A    
C66   N10   T    
C60   H24   S    
C18   C75   S    
C54   H19   S    
C14   O3    A    
