data_mof_unit_12493.cif
_audit_creation_date              2012-12-10T17:55:05-0500
_audit_creation_method            fapswitch 2.2
_symmetry_space_group_name_H-M    P1
_symmetry_Int_Tables_number       1
_space_group_crystal_system       triclinic
_cell_length_a                    8.795549
_cell_length_b                    10.832196
_cell_length_c                    9.596515
_cell_angle_alpha                 89.327713
_cell_angle_beta                  97.532712
_cell_angle_gamma                 92.013582
_cell_volume                      905.835575656

loop_
_atom_site_label
_atom_site_type_symbol
_atom_type_description
_atom_site_fract_x
_atom_site_fract_y
_atom_site_fract_z
_atom_type_partial_charge
C1    C     C_R   0.499702 0.262297 0.500392 0.778989
C2    C     C_R   0.500298 0.737703 0.499608 0.778986
C3    C     C_R   0.204407 0.496624 0.464525 0.798599
C4    C     C_R   0.795593 0.503375 0.535475 0.798598
C5    C     C_2   0.038554 0.482381 0.447390 0.187417
C6    C     C_2   0.961446 0.517617 0.552610 0.187408
C7    C     C_R   0.500942 0.065310 0.373745 -0.149176
C8    C     C_R   0.499058 0.934690 0.626255 -0.149177
C9    C     C_R   0.501308 0.937574 0.373272 -0.183913
C10   C     C_R   0.498692 0.062426 0.626728 -0.183913
C11   C     C_R   0.500292 0.871689 0.499495 -0.018162
C12   C     C_R   0.499708 0.128311 0.500505 -0.018162
C13   C     C_R   0.391924 0.431902 0.064763 0.461076
C14   C     C_R   0.608076 0.568098 0.935237 0.461078
C15   C     C_R   0.390624 0.432343 0.915631 0.313266
C16   C     C_R   0.609376 0.567657 0.084369 0.313264
Cu1   Cu    Cu3+1 0.500000 0.500020 0.640660 1.021821
Cu2   Cu    Cu3+1 0.500000 0.499980 0.359340 1.021820
H1    H     H_    0.501695 0.114419 0.274836 0.170143
H2    H     H_    0.498305 0.885580 0.725164 0.170143
H3    H     H_    0.502368 0.890733 0.274308 0.159198
H4    H     H_    0.497632 0.109267 0.725692 0.159198
N1    N     N_R   0.500040 0.500030 0.852080 -0.260307
N2    N     N_R   0.499960 0.499970 0.147920 -0.260306
O1    O     O_R   0.499990 0.319660 0.618740 -0.629243
O2    O     O_R   0.500010 0.680340 0.381260 -0.629242
O3    O     O_R   0.499990 0.319630 0.381170 -0.540056
O4    O     O_R   0.500010 0.680370 0.618830 -0.540057
O5    O     O_R   0.274840 0.500010 0.591370 -0.526433
O6    O     O_R   0.725160 0.499990 0.408630 -0.526435
O7    O     O_R   0.274830 0.499980 0.353800 -0.544601
O8    O     O_R   0.725170 0.500020 0.646200 -0.544597
O9    O     O_3   0.961719 0.426664 0.327555 -0.704878
H5    H     H_    0.036774 0.397712 0.267845 0.360820
O10   O     O_3   0.038280 0.573334 0.672445 -0.704879
H6    H     H_    0.963223 0.602299 0.732142 0.360818
O11   O     O_3   0.287991 0.360758 0.129726 -0.697652
H7    H     H_    0.219009 0.312050 0.059634 0.350269
O12   O     O_3   0.712009 0.639242 0.870274 -0.697650
H8    H     H_    0.780991 0.687950 0.940366 0.350269
O13   O     O_3   0.273601 0.365761 0.838151 -0.718777
H9    H     H_    0.310168 0.337044 0.752622 0.371608
O14   O     O_3   0.726399 0.634239 0.161849 -0.718781
H10   H     H_    0.689832 0.662955 0.247378 0.371609

loop_
_geom_bond_atom_site_label_1
_geom_bond_atom_site_label_2
_ccdc_geom_bond_type
C14   N1    A    
C1    O1    A    
O14   H10   S    
O11   H7    S    
Cu2   O6    S    
C1    O3    A    
Cu1   O5    S    
O13   H9    S    
C13   O11   S    
O10   H6    S    
Cu2   O2    S    
Cu1   O1    S    
C15   N1    A    
O9    H5    S    
C16   N2    A    
C4    O8    A    
C10   H4    S    
C3    O7    A    
C9    C11   A    
C16   O14   S    
C9    H3    S    
Cu1   N1    S    
C1    C12   S    
C10   C12   A    
C8    H2    S    
C8    C11   A    
Cu2   N2    S    
C2    C11   S    
C8    C10   A    
Cu1   Cu2   S    
C7    H1    S    
C13   C15   A    
C5    C6    D    
C14   C16   A    
C7    C12   A    
C4    C6    S    
C7    C9    A    
C6    O10   S    
C15   O13   S    
C2    O2    A    
O12   H8    S    
C3    O5    A    
Cu1   O8    S    
C2    O4    A    
Cu2   O7    S    
C14   O12   S    
Cu1   O4    S    
C4    O6    A    
Cu2   O3    S    
C13   N2    A    
C3    C5    S    
C5    O9    S    
