data_mof_unit_20980.cif
_audit_creation_date              2012-12-10T17:17:54-0500
_audit_creation_method            fapswitch 2.2
_symmetry_space_group_name_H-M    P1
_symmetry_Int_Tables_number       1
_space_group_crystal_system       triclinic
_cell_length_a                    14.670337
_cell_length_b                    15.911992
_cell_length_c                    9.619908
_cell_angle_alpha                 89.889258
_cell_angle_beta                  89.599997
_cell_angle_gamma                 89.881693
_cell_volume                      2245.55270126

loop_
_atom_site_label
_atom_site_type_symbol
_atom_type_description
_atom_site_fract_x
_atom_site_fract_y
_atom_site_fract_z
_atom_type_partial_charge
C1    C     C_R   0.376627 0.885213 0.501350 0.760802
C2    C     C_R   0.379930 0.117501 0.500094 0.752278
C3    C     C_R   0.876627 0.385213 0.501350 0.760802
C4    C     C_R   0.879930 0.617501 0.500094 0.752278
C5    C     C_R   0.329792 0.258329 0.436185 -0.214051
C6    C     C_R   0.297115 0.768973 0.391874 -0.198698
C7    C     C_R   0.829792 0.758328 0.436185 -0.214054
C8    C     C_R   0.797116 0.268973 0.391875 -0.198697
C9    C     C_R   0.766000 0.822490 0.436032 -0.220347
C10   C     C_R   0.732076 0.206726 0.388775 -0.218783
C11   C     C_R   0.266000 0.322490 0.436032 -0.220348
C12   C     C_R   0.232075 0.706727 0.388774 -0.218784
C13   C     C_R   0.681301 0.811093 0.500178 -0.079990
C14   C     C_R   0.669311 0.198325 0.497656 -0.120299
C15   C     C_R   0.181301 0.311093 0.500178 -0.079991
C16   C     C_R   0.169310 0.698325 0.497656 -0.120300
C17   C     C_R   0.663312 0.979029 0.146711 -0.206903
C18   C     C_R   0.163312 0.479031 0.146712 -0.206906
C19   C     C_R   0.734427 0.935476 0.086423 -0.397300
C20   C     C_R   0.234428 0.435480 0.086425 -0.397296
C21   C     C_R   0.729884 0.914726 0.946038 0.337756
C22   C     C_R   0.229886 0.414729 0.946041 0.337751
C23   C     C_R   0.668554 0.962655 0.863600 0.432871
C24   C     C_R   0.168555 0.462656 0.863601 0.432864
C25   C     C_R   0.581919 0.985001 0.926112 0.068904
C26   C     C_R   0.081919 0.485001 0.926112 0.068903
C27   C     C_R   0.580770 0.988691 0.075415 0.162066
C28   C     C_R   0.080770 0.488692 0.075415 0.162065
C29   C     C_R   0.422594 0.011097 0.074469 -0.054534
C30   C     C_R   0.922594 0.511097 0.074469 -0.054531
C31   C     C_R   0.612296 0.123445 0.499421 0.813134
C32   C     C_R   0.618153 0.881015 0.499866 0.808528
C33   C     C_R   0.112296 0.623445 0.499421 0.813135
C34   C     C_R   0.118153 0.381015 0.499866 0.808529
C35   C     C_R   0.422803 0.012018 0.926866 -0.080970
C36   C     C_R   0.922803 0.512019 0.926866 -0.080969
C37   C     C_R   0.197950 0.088434 0.615188 -0.200845
C38   C     C_R   0.233824 0.875619 0.728891 -0.192325
C39   C     C_R   0.697951 0.588436 0.615193 -0.200846
C40   C     C_R   0.733824 0.375618 0.728891 -0.192327
C41   C     C_R   0.112170 0.075910 0.675110 -0.150277
C42   C     C_R   0.165981 0.871054 0.830580 -0.171291
C43   C     C_R   0.612172 0.575912 0.675115 -0.150277
C44   C     C_R   0.665980 0.371053 0.830579 -0.171291
C45   C     C_R   0.549542 0.641489 0.680699 -0.147960
C46   C     C_R   0.595523 0.313949 0.817618 -0.137529
C47   C     C_R   0.049541 0.141488 0.680696 -0.147964
C48   C     C_R   0.095524 0.813949 0.817619 -0.137533
C49   C     C_R   0.571509 0.719408 0.623634 -0.173499
C50   C     C_R   0.594570 0.258972 0.705620 -0.156797
C51   C     C_R   0.071509 0.219407 0.623633 -0.173502
C52   C     C_R   0.094571 0.758971 0.705622 -0.156798
C53   C     C_R   0.658212 0.733591 0.562867 0.107487
C54   C     C_R   0.666255 0.258132 0.606255 0.098991
C55   C     C_R   0.158212 0.233591 0.562866 0.107481
C56   C     C_R   0.166255 0.758132 0.606255 0.098992
C57   C     C_R   0.222821 0.167513 0.560718 0.100230
C58   C     C_R   0.235570 0.819882 0.613846 0.102008
C59   C     C_R   0.722821 0.667514 0.560721 0.100239
C60   C     C_R   0.735570 0.319882 0.613846 0.102008
C61   C     C_R   0.309493 0.181651 0.499832 -0.084309
C62   C     C_R   0.302083 0.824138 0.504522 -0.117073
C63   C     C_R   0.809493 0.681651 0.499833 -0.084313
C64   C     C_R   0.802083 0.324138 0.504522 -0.117072
Cu1   Cu    Cu3+1 0.499990 1.000000 0.640660 0.963709
Cu2   Cu    Cu3+1 0.999990 0.500000 0.640660 0.963707
Cu3   Cu    Cu3+1 0.500010 1.000000 0.359340 0.936633
Cu4   Cu    Cu3+1 0.000010 0.500000 0.359340 0.936632
H1    H     H_    0.395935 0.268931 0.388430 0.140477
H2    H     H_    0.346450 0.771612 0.307595 0.169410
H3    H     H_    0.895935 0.768931 0.388428 0.140477
H4    H     H_    0.846451 0.271611 0.307596 0.169410
H5    H     H_    0.359611 0.023229 0.872922 0.124127
H6    H     H_    0.859612 0.523230 0.872922 0.124126
H7    H     H_    0.243889 0.035686 0.608792 0.127507
H8    H     H_    0.282241 0.924837 0.743268 0.156618
H9    H     H_    0.743891 0.535688 0.608800 0.127508
H10   H     H_    0.782242 0.424835 0.743270 0.156618
H11   H     H_    0.093546 0.014997 0.715956 0.151412
H12   H     H_    0.166366 0.914359 0.917277 0.132854
H13   H     H_    0.593547 0.514998 0.715964 0.151412
H14   H     H_    0.666366 0.414359 0.917277 0.132854
H15   H     H_    0.483113 0.631603 0.727473 0.140418
H16   H     H_    0.540870 0.312924 0.893746 0.142131
H17   H     H_    0.983113 0.131603 0.727470 0.140419
H18   H     H_    0.040872 0.812924 0.893748 0.142128
H19   H     H_    0.519467 0.767500 0.626034 0.148428
H20   H     H_    0.535812 0.218938 0.696358 0.150014
H21   H     H_    0.019467 0.267500 0.626034 0.148429
H22   H     H_    0.035814 0.718938 0.696361 0.150016
H23   H     H_    0.783648 0.882261 0.389268 0.131064
H24   H     H_    0.733916 0.162213 0.303658 0.161780
H25   H     H_    0.283648 0.382262 0.389269 0.131064
H26   H     H_    0.233914 0.662214 0.303657 0.161781
H27   H     H_    0.358972 0.020367 0.129895 0.134595
H28   H     H_    0.858972 0.520367 0.129895 0.134596
H29   H     H_    0.673468 0.998828 0.251211 0.215618
H30   H     H_    0.173467 0.498830 0.251212 0.215620
H31   H     H_    0.792453 0.918241 0.149058 0.159905
H32   H     H_    0.292455 0.418247 0.149059 0.159910
N1    N     N_R   0.501200 1.000000 0.147910 -0.178083
N2    N     N_R   0.001200 0.500000 0.147910 -0.178084
N3    N     N_R   0.501270 0.000000 0.852040 -0.175753
N4    N     N_R   0.001270 0.500000 0.852040 -0.175753
O1    O     O_R   0.409820 0.909830 0.618810 -0.602284
O2    O     O_R   0.409820 0.090170 0.618810 -0.602643
O3    O     O_R   0.909820 0.409830 0.618810 -0.602284
O4    O     O_R   0.909820 0.590170 0.618810 -0.602645
O5    O     O_R   0.409840 0.909830 0.381240 -0.572624
O6    O     O_R   0.409840 0.090170 0.381240 -0.580039
O7    O     O_R   0.909840 0.409830 0.381240 -0.572624
O8    O     O_R   0.909840 0.590170 0.381240 -0.580038
O9    O     O_R   0.590170 0.090170 0.618760 -0.510488
O10   O     O_R   0.590170 0.909830 0.618760 -0.536953
O11   O     O_R   0.090170 0.590170 0.618760 -0.510488
O12   O     O_R   0.090170 0.409830 0.618760 -0.536954
O13   O     O_R   0.590190 0.090180 0.381190 -0.612387
O14   O     O_R   0.590190 0.909820 0.381190 -0.590005
O15   O     O_R   0.090190 0.590180 0.381190 -0.612388
O16   O     O_R   0.090190 0.409820 0.381190 -0.590005
O17   O     O_3   0.790576 0.859231 0.882342 -0.610865
C65   C     C_3   0.821351 0.795079 0.972309 0.060850
H33   H     H_    0.766799 0.772311 0.044380 0.163010
H34   H     H_    0.880317 0.818407 0.033043 0.141733
C66   C     C_3   0.852957 0.720908 0.885555 -0.768479
H35   H     H_    0.893376 0.743095 0.794971 0.254980
H36   H     H_    0.896011 0.679257 0.950146 0.201241
H37   H     H_    0.793228 0.685224 0.847393 0.245647
O18   O     O_3   0.290583 0.359237 0.882349 -0.610867
C67   C     C_3   0.321342 0.295077 0.972313 0.060851
H38   H     H_    0.266783 0.272311 0.044371 0.163007
H39   H     H_    0.380307 0.318395 0.033061 0.141742
C68   C     C_3   0.352946 0.220907 0.885557 -0.768496
H40   H     H_    0.393380 0.243092 0.794988 0.254978
H41   H     H_    0.395984 0.179246 0.950153 0.201241
H42   H     H_    0.293216 0.185234 0.847373 0.245656
O19   O     O_3   0.696795 0.000432 0.739084 -0.540077
C69   C     C_3   0.791277 0.992958 0.707396 0.108099
H43   H     H_    0.806642 0.928624 0.669427 0.205961
H44   H     H_    0.834396 0.009541 0.798139 0.149208
C70   C     C_3   0.817892 0.051921 0.590121 -0.865112
H45   H     H_    0.809508 0.117977 0.624458 0.262182
H46   H     H_    0.890529 0.041646 0.561640 0.209897
H47   H     H_    0.776014 0.038969 0.497052 0.235019
O20   O     O_3   0.196795 0.500432 0.739083 -0.540076
C71   C     C_3   0.291278 0.492958 0.707394 0.108105
H48   H     H_    0.306643 0.428624 0.669426 0.205962
H49   H     H_    0.334396 0.509543 0.798135 0.149214
C72   C     C_3   0.317891 0.551920 0.590117 -0.865117
H50   H     H_    0.309508 0.617977 0.624453 0.262183
H51   H     H_    0.390529 0.541645 0.561635 0.209898
H52   H     H_    0.276013 0.538968 0.497049 0.235019

loop_
_geom_bond_atom_site_label_1
_geom_bond_atom_site_label_2
_ccdc_geom_bond_type
C58   C62   A    
Cu2   Cu4   S    
C42   H12   S    
C40   C60   A    
Cu1   O10   S    
C49   H19   S    
C13   C32   S    
C52   H22   S    
C14   C31   S    
C1    C62   S    
C9    H23   S    
O20   C71   S    
C53   C59   A    
C54   C60   A    
C3    C64   S    
C4    O4    A    
C4    C63   S    
C50   C54   A    
Cu2   O12   S    
C37   C41   A    
C47   H17   S    
C19   C21   A    
C24   C26   A    
C5    C11   A    
C35   N3    A    
C24   O20   S    
C70   H46   S    
Cu4   O15   S    
C6    C12   A    
C34   O12   A    
C18   C20   A    
C6    H2    S    
Cu4   O8    S    
C9    C13   A    
C31   O13   A    
C5    H1    S    
C1    O5    A    
C38   C58   A    
C11   C15   A    
Cu3   O5    S    
C2    O6    A    
C12   C16   A    
C3    O7    A    
Cu1   Cu3   S    
C66   H37   S    
C30   H28   S    
C40   C44   A    
Cu4   N2    S    
Cu2   O3    S    
C15   C34   S    
C71   H49   S    
C2    C61   S    
C50   H20   S    
C26   N4    A    
C11   H25   S    
C4    O8    A    
C10   H24   S    
C38   H8    S    
C21   O17   S    
C72   H51   S    
C12   H26   S    
C45   H15   S    
Cu1   O1    S    
C44   C46   A    
C44   H14   S    
C13   C53   A    
C56   C58   A    
C34   O16   A    
C8    H4    S    
C33   O11   A    
Cu2   O11   S    
C5    C61   A    
C17   C27   A    
Cu2   N4    S    
C18   C28   A    
C10   C14   A    
C72   H52   S    
C32   O14   A    
C29   H27   S    
C19   H31   S    
C25   N3    A    
C39   C43   A    
C51   C55   A    
C3    O3    A    
C2    O2    A    
Cu4   O7    S    
C15   C55   A    
C67   H39   S    
C16   C56   A    
C16   C33   S    
C68   H42   S    
C71   C72   S    
C43   C45   A    
Cu3   O6    S    
C20   H32   S    
C45   C49   A    
C39   C59   A    
C30   N2    A    
C41   C47   A    
C29   N1    A    
C42   C48   A    
Cu3   O13   S    
C7    C63   A    
O17   C65   S    
C36   H6    S    
C8    C64   A    
C46   H16   S    
C40   H10   S    
C14   C54   A    
C20   C22   A    
C33   O15   A    
C55   C57   A    
C22   O18   S    
C66   H35   S    
C43   H13   S    
C22   C24   A    
C59   C63   A    
C70   H47   S    
C67   C68   S    
Cu1   N3    S    
C65   H34   S    
C39   H9    S    
Cu1   O2    S    
Cu3   N1    S    
C68   H41   S    
C71   H48   S    
C7    C9    A    
C46   C50   A    
C35   H5    S    
Cu1   O9    S    
C23   O19   S    
Cu2   O4    S    
C69   C70   S    
C41   H11   S    
C47   C51   A    
C57   C61   A    
C69   H44   S    
C25   C27   A    
O19   C69   S    
C29   C35   A    
C26   C28   A    
C30   C36   A    
C60   C64   A    
C6    C62   A    
C65   C66   S    
C21   C23   A    
C67   H38   S    
O18   C67   S    
C70   H45   S    
Cu4   O16   S    
C7    H3    S    
C36   N4    A    
C68   H40   S    
C49   C53   A    
C17   C19   A    
C27   N1    A    
C48   H18   S    
C23   C25   A    
C37   H7    S    
Cu3   O14   S    
C37   C57   A    
C69   H43   S    
C38   C42   A    
C28   N2    A    
C48   C52   A    
C8    C10   A    
C66   H36   S    
C18   H30   S    
C32   O10   A    
C65   H33   S    
C72   H50   S    
C17   H29   S    
C31   O9    A    
C51   H21   S    
C52   C56   A    
C1    O1    A    
