data_mof_unit_41877.cif
_audit_creation_date              2013-03-05T16:11:04-0500
_audit_creation_method            fapswitch 2.2
_symmetry_space_group_name_H-M    P1
_symmetry_Int_Tables_number       1
_space_group_crystal_system       triclinic
_cell_length_a                    10.810895
_cell_length_b                    9.494946
_cell_length_c                    10.67916
_cell_angle_alpha                 89.280599
_cell_angle_beta                  85.25896
_cell_angle_gamma                 90.702633
_cell_volume                      1092.26949755

loop_
_atom_site_label
_atom_site_type_symbol
_atom_site_description
_atom_site_fract_x
_atom_site_fract_y
_atom_site_fract_z
_atom_type_partial_charge
O1    O     O_R   0.317570 0.620260 0.500070 -0.610133
O2    O     O_R   0.317570 0.379740 0.500070 -0.608295
C1    C     C_R   0.260405 0.498894 0.514445 0.751041
O3    O     O_R   0.499850 0.620240 0.316900 -0.549407
O4    O     O_R   0.499850 0.379760 0.316900 -0.565462
C2    C     C_R   0.496584 0.500410 0.259404 0.895822
Cu1   Cu    Cu3+1 0.499860 0.642410 0.500060 0.979398
Cu2   Cu    Cu3+1 0.499860 0.357590 0.500060 0.967429
O5    O     O_R   0.682190 0.620260 0.500030 -0.552670
O6    O     O_R   0.682190 0.379740 0.500030 -0.561237
O7    O     O_R   0.499910 0.620280 0.683200 -0.601877
O8    O     O_R   0.499910 0.379720 0.683200 -0.600819
C3    C     C_R   0.741216 0.500718 0.496312 0.850396
C4    C     C_R   0.491866 0.499144 0.740428 0.794990
C5    C     C_3   0.396700 0.583287 0.049304 -0.199030
C6    C     C_3   0.467184 0.367143 0.045078 -0.132460
C7    C     C_3   0.374895 0.450596 0.969824 -0.170654
H1    H     H_    0.283837 0.411072 0.943036 0.160487
H2    H     H_    0.323207 0.652372 0.092298 0.176515
H3    H     H_    0.448341 0.259104 0.083250 0.186426
C8    C     C_3   0.484498 0.497740 0.877036 -0.078739
C9    C     C_3   0.505025 0.630857 0.952977 -0.167146
C10   C     C_3   0.576107 0.413497 0.949133 -0.180706
C11   C     C_3   0.594676 0.545512 0.025461 0.384717
C12   C     C_3   0.489791 0.500223 0.122154 -0.098600
H4    H     H_    0.522642 0.739120 0.914496 0.172136
H5    H     H_    0.650873 0.345452 0.907008 0.170871
C13   C     C_3   0.066587 0.631700 0.575341 -0.363175
C14   C     C_3   0.062273 0.366175 0.582852 -0.375870
H6    H     H_    0.100470 0.727266 0.521074 0.207321
H7    H     H_    0.102351 0.267310 0.543148 0.194169
H8    H     H_    0.095829 0.642416 0.672328 0.172556
H9    H     H_    0.080093 0.368305 0.683978 0.176979
C15   C     C_3   0.923852 0.624906 0.580077 -0.365809
C16   C     C_3   0.920735 0.365102 0.569673 -0.402462
H10   H     H_    0.885886 0.608386 0.679411 0.199045
H11   H     H_    0.870428 0.357496 0.664877 0.176866
H12   H     H_    0.886726 0.728032 0.552624 0.224243
H13   H     H_    0.895205 0.268592 0.519456 0.236868
H14   H     H_    0.147869 0.579973 0.323569 0.170358
H15   H     H_    0.138590 0.396050 0.332345 0.191021
C17   C     C_3   0.096288 0.491745 0.375483 -0.416878
C18   C     C_3   0.123621 0.497092 0.513735 0.061413
C19   C     C_3   0.881295 0.500852 0.498805 -0.054218
C20   C     C_3   0.954405 0.501726 0.361694 0.534696
C21   C     C_3   0.592456 0.083240 0.584744 -0.191883
C22   C     C_3   0.599130 0.917694 0.576472 -0.194432
H16   H     H_    0.566820 0.111629 0.684300 0.151058
H17   H     H_    0.590127 0.872610 0.673438 0.153885
H18   H     H_    0.685659 0.131100 0.565329 0.192742
H19   H     H_    0.692921 0.887587 0.538335 0.204833
H20   H     H_    0.353127 0.124607 0.650317 0.178194
H21   H     H_    0.367955 0.878430 0.663155 0.175202
C23   C     C_3   0.378793 0.081569 0.555403 -0.307683
C24   C     C_3   0.381761 0.914116 0.563241 -0.293609
C25   C     C_3   0.521968 0.086471 0.373344 0.262974
C26   C     C_3   0.511187 0.920703 0.372642 0.251058
N1    N     N_3   0.500250 0.143650 0.502780 -0.193134
N2    N     N_3   0.500250 0.856350 0.502780 -0.187788
H22   H     H_    0.445989 0.125213 0.317838 0.059969
H23   H     H_    0.423478 0.894414 0.329042 0.054748
H24   H     H_    0.303553 0.113404 0.496321 0.161118
H25   H     H_    0.300885 0.872541 0.517059 0.167678
N3    N     N_R   0.939898 0.631355 0.287024 0.160879
O9    O     O_R   0.974311 0.626206 0.167283 -0.260465
O10   O     O_R   0.947903 0.753825 0.338821 -0.329665
N4    N     N_R   0.911010 0.380638 0.290328 0.127361
O11   O     O_R   0.971761 0.263065 0.281358 -0.325483
O12   O     O_R   0.806220 0.387910 0.239452 -0.259774
N5    N     N_R   0.639239 0.138646 0.307636 0.201151
O13   O     O_R   0.640220 0.175299 0.189777 -0.307850
O14   O     O_R   0.745265 0.117145 0.353277 -0.277915
N6    N     N_R   0.610083 0.861957 0.288361 0.188259
O15   O     O_R   0.598393 0.868323 0.168040 -0.330506
O16   O     O_R   0.719098 0.839640 0.326141 -0.225290
N7    N     N_R   0.715782 0.599352 0.049058 0.175243
O17   O     O_R   0.797810 0.628190 0.955986 -0.343353
O18   O     O_R   0.735882 0.636382 0.161555 -0.217638

loop_
_geom_bond_atom_site_label_1
_geom_bond_atom_site_label_2
_geom_bond_distance
_ccdc_geom_bond_type
C24   N2    1.499336 S    
H15   C17   1.110330 S    
Cu1   Cu2   2.704350 S    
C22   H17   1.111844 S    
C5    H2    1.110142 S    
C1    C18   1.479298 S    
C4    C8    1.454336 S    
C16   H11   1.113761 S    
N7    O18   1.290737 A    
O4    C2    1.295179 A    
O7    C4    1.294252 A    
C5    C12   1.540642 S    
C2    C12   1.473629 S    
C14   H9    1.112930 S    
C25   C26   1.577004 S    
C5    C7    1.554339 S    
N6    O15   1.302210 A    
C26   N6    1.460295 S    
O5    C3    1.308364 A    
Cu2   N1    2.031253 S    
C21   C22   1.577646 S    
C5    C9    1.552387 S    
C6    C7    1.550845 S    
C24   H25   1.109614 S    
C20   N4    1.480085 S    
C10   C11   1.523963 S    
N5    O13   1.300805 A    
C10   H5    1.110461 S    
Cu2   O8    1.969703 S    
H14   C17   1.116183 S    
C13   C15   1.540272 S    
O1    Cu1   1.979332 S    
C8    C9    1.533977 S    
C14   C18   1.551021 S    
N6    O16   1.295853 A    
O3    Cu1   1.969924 S    
Cu1   N2    2.031879 S    
H20   C23   1.112679 S    
Cu1   O7    1.964458 S    
H21   C24   1.113071 S    
C21   H16   1.113614 S    
N4    O11   1.302710 A    
C13   H8    1.113115 S    
C15   C19   1.559093 S    
C11   C12   1.523237 S    
O3    C2    1.301123 A    
C11   N7    1.442355 S    
C22   H19   1.103395 S    
C23   H24   1.112292 S    
C7    C8    1.538843 S    
C25   H22   1.115256 S    
N4    O12   1.298493 A    
C17   C20   1.556928 S    
N3    O10   1.298950 A    
C16   H13   1.110890 S    
C6    H3    1.109344 S    
C7    H1    1.109925 S    
N7    O17   1.300307 A    
C16   C19   1.567885 S    
O8    C4    1.295329 A    
C6    C10   1.551352 S    
C25   N5    1.474425 S    
C8    C10   1.530834 S    
C9    C11   1.524048 S    
C17   C18   1.530794 S    
C19   C20   1.605293 S    
C23   N1    1.496030 S    
C6    C12   1.544571 S    
Cu1   O5    1.984875 S    
C21   H18   1.103015 S    
C23   C24   1.591973 S    
C20   N3    1.475175 S    
C15   H12   1.108021 S    
O2    Cu2   1.984462 S    
O6    C3    1.305728 A    
O4    Cu2   1.964669 S    
C26   H23   1.117271 S    
C14   C16   1.548080 S    
C13   C18   1.555614 S    
N3    O9    1.303592 A    
C13   H6    1.112181 S    
O2    C1    1.300499 A    
C14   H7    1.112788 S    
C25   N1    1.492935 S    
C15   H10   1.113837 S    
C26   N2    1.506163 S    
C22   N2    1.495527 S    
Cu2   O6    1.979746 S    
C9    H4    1.110623 S    
N5    O14   1.299493 A    
O1    C1    1.302244 A    
C3    C19   1.516796 S    
C21   N1    1.494814 S    
