data_mof_unit_14268.cif
_audit_creation_date              2012-12-11T16:09:34-0500
_audit_creation_method            fapswitch 2.2
_symmetry_space_group_name_H-M    P1
_symmetry_Int_Tables_number       1
_space_group_crystal_system       triclinic
_cell_length_a                    6.967188
_cell_length_b                    21.339143
_cell_length_c                    23.619533
_cell_angle_alpha                 90.08088
_cell_angle_beta                  89.819704
_cell_angle_gamma                 89.875179
_cell_volume                      3511.5769703

loop_
_atom_site_label
_atom_site_type_symbol
_atom_type_description
_atom_site_fract_x
_atom_site_fract_y
_atom_site_fract_z
_atom_type_partial_charge
O1    O     O_R   0.494270 0.443530 0.442350 -0.534675
O2    O     O_R   0.824060 0.436290 0.557250 -0.537786
O3    O     O_R   0.994370 0.556470 0.557650 -0.533978
C1    C     C_R   0.655179 0.421185 0.576612 0.730418
O4    O     O_R   0.823990 0.436120 0.442760 -0.538120
O5    O     O_R   0.994300 0.556300 0.442340 -0.534993
C2    C     C_R   0.655658 0.420948 0.423309 0.724688
O6    O     O_R   0.494350 0.443700 0.557660 -0.534878
O7    O     O_3   0.660800 0.539430 0.500000 -0.367492
V1    V     V_3+5 0.935650 0.492690 0.500000 1.415197
O8    O     O_R   0.324020 0.563710 0.442750 -0.537686
C3    C     C_R   0.155277 0.578833 0.423361 0.725329
O9    O     O_R   0.324090 0.563880 0.557240 -0.537950
C4    C     C_R   0.154987 0.578996 0.576605 0.727327
V2    V     V_3+5 0.435660 0.507310 0.500000 1.414975
O10   O     O_3   0.160640 0.460570 0.500000 -0.367991
C5    C     C_3   0.050872 0.720201 0.797225 -0.138148
C6    C     C_3   0.235072 0.704894 0.763125 0.158332
H1    H     H_    0.002642 0.696073 0.836356 0.117772
H2    H     H_    0.428217 0.796518 0.766135 0.110812
C7    C     C_1   0.144422 0.624681 0.622050 -0.189051
C8    C     C_1   0.075224 0.874432 0.877251 -0.191034
C9    C     C_3   0.936723 0.724006 0.740868 -0.199329
C10   C     C_3   0.121759 0.708474 0.707477 0.069198
C11   C     C_3   0.983595 0.795014 0.736403 -0.140647
C12   C     C_3   0.098854 0.790574 0.791996 0.115642
C13   C     C_3   0.168745 0.778648 0.703188 0.159835
C14   C     C_3   0.284943 0.775360 0.758818 -0.148631
C15   C     C_1   0.134398 0.662535 0.660399 -0.069187
C16   C     C_1   0.085482 0.836495 0.838963 -0.045447
H3    H     H_    0.879606 0.832537 0.725422 0.112941
H4    H     H_    0.793793 0.702942 0.733163 0.132140
C17   C     C_3   0.243644 0.810874 0.251592 -0.330992
C18   C     C_3   0.894391 0.780045 0.236014 0.025931
C19   C     C_3   0.914377 0.735190 0.287821 -0.312511
H5    H     H_    0.235713 0.784003 0.340977 0.157743
H6    H     H_    0.202693 0.856766 0.270249 0.140138
H7    H     H_    0.797215 0.756941 0.205032 0.109058
H8    H     H_    0.885062 0.760959 0.327961 0.169673
H9    H     H_    0.804169 0.697686 0.285252 0.113266
C20   C     C_1   0.145361 0.624144 0.377600 -0.195489
C21   C     C_3   0.094798 0.789852 0.206452 0.198567
C22   C     C_3   0.262384 0.761165 0.299284 -0.372047
C23   C     C_3   0.119135 0.706294 0.290453 0.165810
C24   C     C_3   0.168593 0.674269 0.232249 -0.033991
C25   C     C_3   0.157756 0.724256 0.182976 0.040275
C26   C     C_1   0.134633 0.661368 0.338761 -0.079629
C27   C     C_1   0.082840 0.836544 0.159412 -0.029048
C28   C     C_1   0.073696 0.874616 0.121214 -0.185373
H10   H     H_    0.046319 0.709986 0.151790 0.125198
H11   H     H_    0.318328 0.656280 0.235846 0.137204
H12   H     H_    0.386192 0.818782 0.231671 0.181634
H13   H     H_    0.412033 0.742791 0.300012 0.155332
C29   C     C_3   0.405473 0.268915 0.716625 0.084882
C30   C     C_3   0.745518 0.231902 0.695148 -0.011097
C31   C     C_3   0.719617 0.181976 0.742796 -0.331034
H14   H     H_    0.318574 0.180436 0.756689 0.119732
H15   H     H_    0.357416 0.242112 0.678905 0.101072
H16   H     H_    0.898173 0.246764 0.695671 0.125258
H17   H     H_    0.649881 0.139003 0.725846 0.169125
H18   H     H_    0.863274 0.167560 0.758756 0.131082
C32   C     C_1   0.574080 0.123985 0.877371 -0.192844
C33   C     C_3   0.617337 0.291401 0.707589 0.195226
C34   C     C_3   0.393765 0.224307 0.769101 -0.341038
C35   C     C_3   0.596544 0.208424 0.792180 0.167533
C36   C     C_3   0.690341 0.270073 0.813001 -0.339472
C37   C     C_3   0.694914 0.320151 0.764729 0.065306
C38   C     C_1   0.583716 0.162027 0.839194 -0.060791
C39   C     C_1   0.633669 0.337638 0.660247 -0.090439
C40   C     C_1   0.644864 0.375506 0.621976 -0.199497
H19   H     H_    0.846706 0.333579 0.757934 0.117614
H20   H     H_    0.611166 0.287992 0.850712 0.164090
H21   H     H_    0.307169 0.246113 0.803620 0.159036
H22   H     H_    0.839621 0.260282 0.827237 0.123531
C41   C     C_3   0.408999 0.280900 0.276292 -0.339516
C42   C     C_3   0.732352 0.313871 0.238545 -0.341569
C43   C     C_3   0.717931 0.265039 0.189497 -0.395149
H23   H     H_    0.347020 0.267311 0.187903 0.083928
H24   H     H_    0.340654 0.326820 0.266476 0.115315
H25   H     H_    0.886025 0.321877 0.248980 0.142332
H26   H     H_    0.671764 0.359465 0.224291 0.143459
H27   H     H_    0.656793 0.288139 0.151358 0.140514
H28   H     H_    0.863832 0.248685 0.177274 0.146336
C44   C     C_1   0.571485 0.124239 0.121420 -0.195900
C45   C     C_3   0.622697 0.290971 0.292044 0.262712
C46   C     C_3   0.390358 0.236564 0.223840 0.047005
C47   C     C_3   0.590886 0.208421 0.207288 0.286365
C48   C     C_3   0.689159 0.178622 0.259847 -0.321241
C49   C     C_3   0.707079 0.226540 0.309251 -0.336449
C50   C     C_1   0.578937 0.162232 0.159824 -0.091034
C51   C     C_1   0.638339 0.337193 0.339320 -0.088064
C52   C     C_1   0.647305 0.375147 0.377740 -0.191829
H29   H     H_    0.630025 0.208325 0.347123 0.139728
H30   H     H_    0.860572 0.231776 0.321169 0.144850
H31   H     H_    0.615829 0.136042 0.274873 0.148935
H32   H     H_    0.330862 0.261717 0.313545 0.150564
H33   H     H_    0.832570 0.161528 0.247247 0.140171
O11   O     O_R   0.724990 0.055630 0.941600 -0.535292
O12   O     O_R   0.395220 0.063160 0.056480 -0.538769
O13   O     O_R   0.225040 0.942970 0.056870 -0.531575
C53   C     C_R   0.563507 0.078380 0.075913 0.725602
O14   O     O_R   0.395270 0.063000 0.941990 -0.538204
O15   O     O_R   0.225080 0.942800 0.941570 -0.533973
C54   C     C_R   0.564131 0.078165 0.922657 0.723743
O16   O     O_R   0.724940 0.055790 0.056910 -0.535509
O17   O     O_3   0.558580 0.959880 0.999250 -0.365172
V3    V     V_3+5 0.283680 0.006590 0.999220 1.421338
O18   O     O_R   0.895380 0.935350 0.941950 -0.537195
C55   C     C_R   0.064523 0.920215 0.922627 0.727712
O19   O     O_R   0.895330 0.935520 0.056440 -0.538539
C56   C     C_R   0.064048 0.920428 0.075853 0.725482
V4    V     V_3+5 0.783690 0.991900 0.999180 1.421863
O20   O     O_3   0.058660 0.038680 0.999200 -0.369463
C57   C     C_3   0.377039 0.652668 0.777403 -0.362651
C58   C     C_3   0.480355 0.665536 0.833036 -0.759690
H34   H     H_    0.564967 0.709468 0.830037 0.225251
H35   H     H_    0.375171 0.669715 0.868280 0.229195
H36   H     H_    0.580156 0.626293 0.842403 0.221159
H37   H     H_    0.298260 0.607605 0.780542 0.187085
H38   H     H_    0.484260 0.648598 0.742719 0.174621
N1    N     N_3   0.800466 0.838717 0.253399 -0.685736
H39   H     H_    0.888763 0.864418 0.280399 0.238088
H40   H     H_    0.771311 0.866042 0.217746 0.232091
N2    N     N_3   0.340309 0.728257 0.151841 -0.670795
H41   H     H_    0.454897 0.731708 0.180096 0.223586
H42   H     H_    0.360388 0.686523 0.129336 0.230932
C59   C     C_3   0.039470 0.616623 0.219573 -0.373192
C60   C     C_3   0.118286 0.576372 0.171154 -0.790515
H43   H     H_    0.116403 0.602576 0.130631 0.226936
H44   H     H_    0.267348 0.561065 0.180456 0.224165
H45   H     H_    0.027435 0.534047 0.166128 0.220902
H46   H     H_    0.029307 0.586045 0.257444 0.194866
H47   H     H_    0.891478 0.631871 0.208757 0.174550
N3    N     N_3   0.712933 0.203313 0.639340 -0.670771
H48   H     H_    0.572358 0.187202 0.635414 0.230859
H49   H     H_    0.739172 0.235965 0.607331 0.236664
N4    N     N_3   0.595899 0.377718 0.782927 -0.655871
H50   H     H_    0.461058 0.367731 0.800052 0.277706
H51   H     H_    0.578791 0.408422 0.748901 0.250741
N5    N     N_3   0.273589 0.321997 0.723141 -0.683900
H52   H     H_    0.139230 0.304403 0.733951 0.207217
H53   H     H_    0.256163 0.343647 0.683789 0.235241
C61   C     C_3   0.235830 0.811056 0.649070 -0.364794
C62   C     C_3   0.272937 0.880604 0.659028 -0.759606
H54   H     H_    0.139718 0.904366 0.673668 0.226401
H55   H     H_    0.387130 0.887017 0.691216 0.223095
H56   H     H_    0.320615 0.902706 0.618867 0.218928
H57   H     H_    0.370043 0.788257 0.633950 0.178897
H58   H     H_    0.124122 0.805520 0.616001 0.182027
C63   C     C_3   0.220076 0.190488 0.229389 -0.367218
C64   C     C_3   0.245238 0.136030 0.270749 -0.750971
H59   H     H_    0.334654 0.098710 0.251213 0.221016
H60   H     H_    0.307376 0.151950 0.311458 0.223978
H61   H     H_    0.104060 0.114555 0.280199 0.204574
H62   H     H_    0.095599 0.218730 0.243647 0.176258
H63   H     H_    0.183536 0.171124 0.187055 0.179564

loop_
_geom_bond_atom_site_label_1
_geom_bond_atom_site_label_2
_ccdc_geom_bond_type
C11   H3    S    
C47   C48   S    
C30   H16   S    
O2    C1    A    
C18   C21   S    
C10   C13   S    
C1    O6    A    
C60   H43   S    
C6    C57   S    
C1    C40   S    
C57   C58   S    
C45   C51   S    
O17   V4    S    
C24   C25   S    
C17   H12   S    
C29   N5    S    
N4    H51   S    
C5    C9    S    
C6    C10   S    
C5    C12   S    
C4    C7    S    
N5    H53   S    
C46   C63   S    
O5    C3    A    
O17   V3    S    
C24   H11   S    
C61   C62   S    
C36   H22   S    
O18   C55   A    
C18   C19   S    
C21   C25   S    
C64   H61   S    
C49   H30   S    
C59   H46   S    
V3    O20   S    
O1    C2    A    
O19   C56   A    
O8    V2    S    
C22   H13   S    
C36   H20   S    
C33   C39   S    
C58   H35   S    
C30   C33   S    
C13   C61   S    
C34   H21   S    
O1    V2    S    
O7    V1    S    
C57   H37   S    
C23   C26   S    
C28   C56   S    
H23   C46   S    
C64   H60   S    
C36   C37   S    
C48   H31   S    
C63   H63   S    
O9    C4    A    
C44   C53   S    
C25   N2    S    
C44   C50   T    
C62   H56   S    
V4    O20   S    
C41   C45   S    
C41   H32   S    
C32   C54   S    
C53   O16   A    
C61   H57   S    
C33   C37   S    
O11   V4    S    
V2    O10   S    
C17   C22   S    
C42   H25   S    
C35   C38   S    
C6    C14   S    
C42   C43   S    
C62   H55   S    
C51   C52   T    
O4    C2    A    
C45   C49   S    
C46   C47   S    
N3    H49   S    
H2    C14   S    
C11   C12   S    
C7    C15   T    
C17   H6    S    
C31   H17   S    
C19   H8    S    
C22   C23   S    
C3    C20   S    
C41   C46   S    
C61   H58   S    
C64   H59   S    
C58   H36   S    
C30   C31   S    
C5    C6    S    
C20   C26   T    
O14   V3    S    
C21   C27   S    
N5    H52   S    
O14   C54   A    
C19   C23   S    
N1    H39   S    
O3    C4    A    
C27   C28   T    
O12   C53   A    
O16   V4    S    
C12   C16   S    
O6    V2    S    
C63   H62   S    
O9    V2    S    
C11   C13   S    
C17   C21   S    
C59   C60   S    
O2    V1    S    
C60   H45   S    
C23   C24   S    
H14   C34   S    
N2    H42   S    
C29   H15   S    
O13   V3    S    
C8    C16   T    
C18   H7    S    
C59   H47   S    
C62   H54   S    
C60   H44   S    
C42   H26   S    
O5    V1    S    
O8    C3    A    
N3    H48   S    
C18   N1    S    
C30   N3    S    
O12   V3    S    
N4    H50   S    
C25   H10   S    
C12   C14   S    
C63   C64   S    
C32   C38   T    
O15   C55   A    
C8    C55   S    
C34   C35   S    
C19   H9    S    
O7    V2    S    
C48   H33   S    
O4    V1    S    
O3    V1    S    
V1    O10   S    
C9    H4    S    
C58   H34   S    
C29   C34   S    
C43   H27   S    
C24   C59   S    
O11   C54   A    
C2    C52   S    
C5    H1    S    
C37   H19   S    
C9    C11   S    
C49   H29   S    
C39   C40   T    
C37   N4    S    
O19   V4    S    
N1    H40   S    
C9    C10   S    
O18   V4    S    
C10   C15   S    
C48   C49   S    
C43   C47   S    
O13   C56   A    
C35   C36   S    
C29   C33   S    
C47   C50   S    
C13   C14   S    
C43   H28   S    
C31   H18   S    
H5    C22   S    
O15   V3    S    
C41   H24   S    
C42   C45   S    
C57   H38   S    
C31   C35   S    
N2    H41   S    
