data_mof_unit_22716.cif
_audit_creation_date              2012-12-10T16:54:30-0500
_audit_creation_method            fapswitch 2.2
_symmetry_space_group_name_H-M    P1
_symmetry_Int_Tables_number       1
_space_group_crystal_system       triclinic
_cell_length_a                    15.048145
_cell_length_b                    10.913174
_cell_length_c                    9.695156
_cell_angle_alpha                 89.814699
_cell_angle_beta                  89.821269
_cell_angle_gamma                 90.045445
_cell_volume                      1592.151257

loop_
_atom_site_label
_atom_site_type_symbol
_atom_type_description
_atom_site_fract_x
_atom_site_fract_y
_atom_site_fract_z
_atom_type_partial_charge
C1    C     C_R   0.494428 0.265400 0.500293 0.818476
C2    C     C_R   0.905119 0.583594 0.429701 0.131572
C3    C     C_R   0.955294 0.265607 0.547742 -0.118198
C4    C     C_R   0.049317 0.268773 0.548110 -0.059952
C5    C     C_R   0.094306 0.382597 0.530352 0.083381
C6    C     C_R   0.046414 0.483845 0.478221 0.021903
C7    C     C_R   0.091703 0.589518 0.428645 0.043296
C8    C     C_R   0.041929 0.689386 0.378271 -0.198055
C9    C     C_R   0.949912 0.685997 0.378428 -0.179830
C10   C     C_R   0.186168 0.397364 0.557240 -0.067890
C11   C     C_R   0.231806 0.498241 0.499232 -0.165614
C12   C     C_R   0.328916 0.499736 0.500186 0.846647
C13   C     C_R   0.185274 0.593830 0.432626 -0.061807
C14   C     C_2   0.492573 0.933149 0.388093 -0.072520
C15   C     C_2   0.511389 0.866384 0.500098 -0.228503
C16   C     C_2   0.498496 0.066809 0.391545 -0.142231
C17   C     C_2   0.474390 0.134896 0.501421 -0.140837
C18   C     C_2   0.448411 0.429807 0.922562 -0.040169
C19   C     C_2   0.449342 0.428517 0.078299 -0.046321
C20   C     C_R   0.503197 0.734557 0.499751 0.897933
C21   C     C_R   0.670925 0.496501 0.499633 0.872499
C22   C     C_R   0.813022 0.583705 0.433689 -0.276115
C23   C     C_R   0.767283 0.487821 0.496583 -0.099007
C24   C     C_R   0.813202 0.385025 0.549763 -0.027259
C25   C     C_R   0.906628 0.376144 0.527925 0.010619
C26   C     C_R   0.952740 0.480741 0.478109 0.054687
Cu1   Cu    Cu3+1 0.500020 0.500020 0.638630 0.989196
Cu2   Cu    Cu3+1 0.499980 0.499980 0.361370 0.980838
H1    H     H_    0.776445 0.661685 0.393437 0.142582
H2    H     H_    0.532360 0.909487 0.595434 0.144719
H3    H     H_    0.528359 0.110013 0.301503 0.159946
H4    H     H_    0.402378 0.368399 0.871568 0.153914
H5    H     H_    0.543814 0.555837 0.893503 0.194067
H6    H     H_    0.405048 0.364693 0.130115 0.162722
H7    H     H_    0.540261 0.560691 0.105652 0.193466
H8    H     H_    0.073021 0.772625 0.341377 0.151844
H9    H     H_    0.913603 0.765017 0.340726 0.160375
H10   H     H_    0.476901 0.889773 0.290447 0.165794
N1    N     N_2   0.499020 0.498660 0.846910 -0.281250
N2    N     N_2   0.499000 0.498630 0.153040 -0.285992
O1    O     O_R   0.500020 0.321960 0.617040 -0.575836
O2    O     O_R   0.499980 0.321920 0.382900 -0.575429
O3    O     O_R   0.370270 0.499990 0.617090 -0.582055
O4    O     O_R   0.370240 0.499950 0.382940 -0.568621
O5    O     O_R   0.500020 0.678080 0.617100 -0.569992
O6    O     O_R   0.499980 0.678040 0.382960 -0.579792
O7    O     O_R   0.629760 0.500050 0.617060 -0.570175
O8    O     O_R   0.629730 0.500010 0.382910 -0.575538
C27   C     C_2   0.419291 0.088135 0.618436 0.358999
H11   H     H_    0.424337 0.130565 0.719194 0.073300
O9    O     O_2   0.364232 0.007294 0.601682 -0.460629
C28   C     C_2   0.765912 0.293971 0.638021 0.431313
H12   H     H_    0.798941 0.256230 0.727976 0.047836
O10   O     O_2   0.691891 0.256788 0.608676 -0.534617
C29   C     C_2   0.910141 0.144170 0.545444 0.334953
H13   H     H_    0.928207 0.073343 0.618837 0.052190
O11   O     O_2   0.854219 0.121400 0.458149 -0.504410
C30   C     C_2   0.099068 0.150617 0.543685 0.446404
H14   H     H_    0.079526 0.074371 0.609010 0.067610
O12   O     O_2   0.160911 0.136597 0.463382 -0.520239
C31   C     C_2   0.233853 0.313986 0.653879 0.450720
H15   H     H_    0.302281 0.288523 0.634743 0.046817
O13   O     O_2   0.197413 0.276046 0.758352 -0.551330
C32   C     C_2   0.233927 0.700516 0.372388 0.404537
H16   H     H_    0.214275 0.737859 0.273251 0.067923
O14   O     O_2   0.294869 0.749197 0.434448 -0.502867

loop_
_geom_bond_atom_site_label_1
_geom_bond_atom_site_label_2
_ccdc_geom_bond_type
C2    C22   A    
C29   H13   S    
C24   C28   S    
C6    C7    A    
C22   H1    S    
C8    C9    A    
C14   H10   S    
C5    C10   A    
Cu1   O1    S    
C1    C17   S    
C31   H15   S    
C7    C13   A    
C23   C24   A    
C21   O8    A    
C32   H16   S    
Cu1   O5    S    
C9    H9    S    
H7    N2    S    
C30   H14   S    
C7    C8    A    
C2    C26   A    
C29   O11   D    
C6    C26   A    
C21   O7    A    
C24   C25   A    
C16   H3    S    
C11   C13   A    
Cu2   O6    S    
H5    N1    S    
C13   C32   S    
C3    C29   S    
C5    C6    A    
C1    O1    A    
C28   O10   D    
C27   H11   S    
C12   O3    A    
C21   C23   S    
C8    H8    S    
C15   C20   S    
C14   C16   S    
C10   C31   S    
C18   H4    S    
C10   C11   A    
Cu2   N2    S    
C17   C27   S    
C3    C4    A    
C11   C12   S    
Cu1   O3    S    
C1    O2    A    
C3    C25   A    
C28   H12   S    
C15   H2    S    
C12   O4    A    
C18   C19   S    
C19   N2    D    
Cu1   O7    S    
Cu1   Cu2   S    
C31   O13   D    
C18   N1    D    
C14   C15   D    
Cu2   O8    S    
Cu2   O2    S    
C4    C30   S    
C25   C26   A    
C22   C23   A    
C2    C9    A    
C30   O12   D    
Cu2   O4    S    
C20   O6    A    
C20   O5    A    
C16   C17   D    
Cu1   N1    S    
C4    C5    A    
C27   O9    D    
C19   H6    S    
C32   O14   D    
