data_mof_unit_63113.cif
_audit_creation_date              2012-12-11T17:27:17-0500
_audit_creation_method            fapswitch 2.2
_symmetry_space_group_name_H-M    P1
_symmetry_Int_Tables_number       1
_space_group_crystal_system       triclinic
_cell_length_a                    6.956154
_cell_length_b                    21.240107
_cell_length_c                    22.906802
_cell_angle_alpha                 92.959651
_cell_angle_beta                  89.110138
_cell_angle_gamma                 89.50062
_cell_volume                      3379.39197032

loop_
_atom_site_label
_atom_site_type_symbol
_atom_type_description
_atom_site_fract_x
_atom_site_fract_y
_atom_site_fract_z
_atom_type_partial_charge
O1    O     O_R   0.494570 0.443040 0.441850 -0.533082
O2    O     O_R   0.823720 0.437670 0.557760 -0.535733
O3    O     O_R   0.994070 0.556960 0.558150 -0.522952
C1    C     C_R   0.654389 0.422762 0.577136 0.726516
O4    O     O_R   0.824280 0.435690 0.442260 -0.537377
O5    O     O_R   0.994640 0.554970 0.441830 -0.532227
C2    C     C_R   0.657175 0.420319 0.422969 0.743267
O6    O     O_R   0.494000 0.445030 0.558170 -0.533606
O7    O     O_3   0.660820 0.539140 0.499990 -0.364407
V1    V     V_3+5 0.935650 0.492740 0.500000 1.423521
O8    O     O_R   0.324360 0.562330 0.442240 -0.535461
C3    C     C_R   0.155956 0.577032 0.422508 0.729367
O9    O     O_R   0.323800 0.564310 0.557740 -0.524692
C4    C     C_R   0.153213 0.582222 0.579996 0.699676
V2    V     V_3+5 0.435660 0.507260 0.500000 1.423957
O10   O     O_3   0.160620 0.460860 0.500010 -0.361760
C5    C     C_1   0.139832 0.633383 0.631291 -0.205574
C6    C     C_1   0.128946 0.675074 0.673605 0.011771
C7    C     C_1   0.115962 0.724844 0.724347 -0.001765
C8    C     C_1   0.105116 0.766412 0.766768 -0.001777
C9    C     C_1   0.092111 0.816182 0.817511 0.011711
C10   C     C_1   0.081168 0.857871 0.859825 -0.205584
H1    H     H_    0.407645 0.787450 0.201252 0.112604
C11   C     C_R   0.290312 0.727111 0.265413 -0.152241
H2    H     H_    0.430825 0.713244 0.280248 0.111740
C12   C     C_R   0.123534 0.702950 0.291056 0.135295
C13   C     C_R   0.943336 0.721811 0.270803 -0.151613
H3    H     H_    0.812767 0.703784 0.289870 0.112607
C14   C     C_R   0.930101 0.764123 0.225709 -0.152242
H4    H     H_    0.789587 0.777990 0.210874 0.111738
C15   C     C_R   0.096878 0.788284 0.200066 0.135296
C16   C     C_R   0.277077 0.769423 0.220319 -0.151616
C17   C     C_1   0.136942 0.658823 0.337727 -0.054404
C18   C     C_1   0.083466 0.832412 0.153395 -0.054418
C19   C     C_1   0.073652 0.869457 0.114626 -0.188361
C20   C     C_1   0.146743 0.621778 0.376497 -0.188372
H5    H     H_    0.311146 0.290184 0.705832 0.112634
C21   C     C_R   0.430548 0.225933 0.765633 -0.152511
H6    H     H_    0.290571 0.211010 0.780666 0.112016
C22   C     C_R   0.598368 0.200377 0.788590 0.136430
C23   C     C_R   0.778038 0.220543 0.768381 -0.152069
H7    H     H_    0.909157 0.201398 0.785565 0.112640
C24   C     C_R   0.789755 0.265654 0.725768 -0.152515
H8    H     H_    0.929732 0.280572 0.710731 0.112013
C25   C     C_R   0.621935 0.291207 0.702809 0.136439
C26   C     C_R   0.442265 0.271044 0.723020 -0.152078
C27   C     C_1   0.586365 0.153747 0.832791 -0.056105
C28   C     C_1   0.633939 0.337811 0.658585 -0.056098
C29   C     C_1   0.643554 0.376629 0.621544 -0.184920
C30   C     C_1   0.576756 0.114891 0.869798 -0.184784
H9    H     H_    0.314796 0.290192 0.295138 0.113899
C31   C     C_R   0.427114 0.226690 0.227071 -0.157301
H10   H     H_    0.285987 0.211848 0.212810 0.112868
C32   C     C_R   0.593562 0.202035 0.199424 0.146617
C33   C     C_R   0.776012 0.220763 0.217643 -0.156257
H11   H     H_    0.904633 0.201302 0.196050 0.113941
C34   C     C_R   0.792312 0.264806 0.264112 -0.157314
H12   H     H_    0.933441 0.279643 0.278376 0.112859
C35   C     C_R   0.625868 0.289458 0.291762 0.146652
C36   C     C_R   0.443414 0.270735 0.273541 -0.156296
C37   C     C_1   0.577966 0.156588 0.152795 -0.065985
C38   C     C_1   0.641507 0.334879 0.338412 -0.066007
C39   C     C_1   0.650978 0.373728 0.377382 -0.191734
C40   C     C_1   0.568638 0.117710 0.113844 -0.191225
O11   O     O_R   0.726340 0.046440 0.933120 -0.533673
O12   O     O_R   0.395690 0.055650 0.048950 -0.537263
O13   O     O_R   0.225700 0.936320 0.049330 -0.532241
C41   C     C_R   0.562697 0.071089 0.068278 0.743594
O14   O     O_R   0.396600 0.053690 0.933450 -0.535731
O15   O     O_R   0.226620 0.934340 0.933010 -0.523008
C42   C     C_R   0.565938 0.068690 0.914145 0.726482
O16   O     O_R   0.725420 0.048420 0.049440 -0.533401
O17   O     O_3   0.559650 0.952270 0.991250 -0.364512
V3    V     V_3+5 0.284670 0.998570 0.991180 1.423567
O18   O     O_R   0.896930 0.926880 0.933340 -0.525102
C43   C     C_R   0.067601 0.909027 0.911122 0.699317
O19   O     O_R   0.896010 0.928840 0.048840 -0.535556
C44   C     C_R   0.064409 0.914204 0.068617 0.729325
V4    V     V_3+5 0.784710 0.983880 0.991060 1.424216
O20   O     O_3   0.059600 0.030370 0.991120 -0.361624

loop_
_geom_bond_atom_site_label_1
_geom_bond_atom_site_label_2
_ccdc_geom_bond_type
C22   C27   S    
O12   C41   A    
C33   H11   S    
O11   V4    S    
C13   C14   A    
C23   H7    S    
C7    C8    T    
C10   C43   S    
C24   H8    S    
O19   C44   A    
C12   C13   A    
C14   H4    S    
C40   C41   S    
C11   C12   A    
C6    C7    S    
O16   V4    S    
O5    C3    A    
C21   H6    S    
C34   C35   A    
V2    O10   S    
O12   V3    S    
C17   C20   T    
C18   C19   T    
O17   V3    S    
O14   C42   A    
C31   C36   A    
O8    V2    S    
O15   V3    S    
O1    V2    S    
C3    C20   S    
O7    V1    S    
C1    O6    A    
C35   C36   A    
V3    O20   S    
O9    C4    A    
C23   C24   A    
C4    C5    S    
O13   C44   A    
C31   C32   A    
C27   C30   T    
O19   V4    S    
C11   H2    S    
O13   V3    S    
O11   C42   A    
C37   C40   T    
O2    C1    A    
O18   C43   A    
C11   C16   A    
C38   C39   T    
C12   C17   S    
C15   C16   A    
C41   O16   A    
C5    C6    T    
O17   V4    S    
C15   C18   S    
O14   V3    S    
C30   C42   S    
C24   C25   A    
C2    C39   S    
O3    C4    A    
C28   C29   T    
O6    V2    S    
C33   C34   A    
O15   C43   A    
O2    V1    S    
C31   H10   S    
O4    C2    A    
C25   C28   S    
C32   C33   A    
C22   C23   A    
C35   C38   S    
O1    C2    A    
O5    V1    S    
O8    C3    A    
C32   C37   S    
C19   C44   S    
C1    C29   S    
H1    C16   S    
O9    V2    S    
O7    V2    S    
O4    V1    S    
C14   C15   A    
O3    V1    S    
V1    O10   S    
C21   C22   A    
C34   H12   S    
C21   C26   A    
V4    O20   S    
C25   C26   A    
C8    C9    S    
C13   H3    S    
H9    C36   S    
H5    C26   S    
C9    C10   T    
O18   V4    S    
