data_mof_unit_23820.cif
_audit_creation_date              2012-12-10T17:18:55-0500
_audit_creation_method            fapswitch 2.2
_symmetry_space_group_name_H-M    P1
_symmetry_Int_Tables_number       1
_space_group_crystal_system       triclinic
_cell_length_a                    10.303148
_cell_length_b                    10.89441
_cell_length_c                    14.088999
_cell_angle_alpha                 94.242149
_cell_angle_beta                  101.351152
_cell_angle_gamma                 94.63557
_cell_volume                      1538.88766397

loop_
_atom_site_label
_atom_site_type_symbol
_atom_type_description
_atom_site_fract_x
_atom_site_fract_y
_atom_site_fract_z
_atom_type_partial_charge
C1    C     C_R   0.052762 0.731846 0.495830 0.888851
C2    C     C_2   0.023677 0.070455 0.535855 -0.221313
C3    C     C_2   0.435444 0.475640 0.523716 -0.055125
C4    C     C_2   0.575655 0.471404 0.501618 -0.054343
C5    C     C_R   0.092487 0.507715 0.683968 0.870582
C6    C     C_R   0.905367 0.486171 0.315916 0.881041
C7    C     C_R   0.139138 0.506250 0.788293 -0.048570
C8    C     C_R   0.852309 0.475579 0.211810 -0.052179
C9    C     C_R   0.125583 0.572848 0.952410 -0.222024
C10   C     C_R   0.871225 0.421565 0.046579 -0.219640
C11   C     C_R   0.067886 0.555836 0.854269 -0.214875
C12   C     C_R   0.948465 0.268431 0.507755 0.886086
C13   C     C_R   0.929287 0.440488 0.144901 -0.205497
C14   C     C_R   0.260583 0.460644 0.822026 -0.238097
C15   C     C_R   0.719664 0.496777 0.179841 -0.260289
C16   C     C_R   0.327778 0.489776 0.918427 0.095056
C17   C     C_R   0.661003 0.484377 0.081192 0.090869
C18   C     C_R   0.257081 0.546225 0.984140 0.177364
C19   C     C_R   0.737188 0.440923 0.014577 0.179516
C20   C     C_R   0.464410 0.471353 0.949910 0.071882
C21   C     C_R   0.526874 0.508183 0.047981 0.051821
C22   C     C_1   0.783805 0.085513 0.507613 0.207286
C23   C     C_R   0.454262 0.569368 0.109606 -0.255563
C24   C     C_1   0.203119 0.910420 0.467542 0.132451
C25   C     C_1   0.600032 0.364594 0.443528 0.285494
C26   C     C_1   0.431765 0.523309 0.621044 0.248663
C27   C     C_R   0.654926 0.667681 0.589363 0.256672
C28   C     C_R   0.739416 0.705304 0.678837 -0.156409
C29   C     C_R   0.718533 0.806564 0.736737 -0.175409
C30   C     C_R   0.613241 0.874276 0.705793 -0.077324
C31   C     C_R   0.525732 0.842012 0.616554 -0.189526
C32   C     C_R   0.542067 0.733130 0.552191 -0.163474
C33   C     C_R   0.319205 0.364159 0.377004 0.238123
C34   C     C_R   0.542662 0.423371 0.886060 -0.207487
C35   C     C_R   0.271132 0.239550 0.375052 -0.115277
C36   C     C_R   0.270583 0.156755 0.294447 -0.142723
C37   C     C_R   0.325319 0.195851 0.217841 -0.113891
C38   C     C_R   0.374033 0.319268 0.219364 -0.135994
C39   C     C_R   0.365889 0.404923 0.296647 -0.203726
C40   C     C_R   0.320529 0.583144 0.079258 -0.237576
C41   C     C_R   0.677526 0.413107 0.917346 -0.249095
C42   C     C_2   0.085850 0.863898 0.500751 -0.159417
C43   C     C_2   0.920594 0.138179 0.518350 -0.175862
C44   C     C_2   0.004834 0.937614 0.535378 -0.195854
H1    H     H_    0.268045 0.628189 0.129489 0.152054
H2    H     H_    0.503745 0.393816 0.810670 0.150825
H3    H     H_    0.124990 0.112797 0.545394 0.177738
H4    H     H_    0.917301 0.899135 0.559364 0.196569
H5    H     H_    0.818611 0.651629 0.706768 0.158121
H6    H     H_    0.783897 0.832079 0.806778 0.138796
H7    H     H_    0.598706 0.953579 0.752354 0.127673
H8    H     H_    0.451253 0.913779 0.611393 0.146094
H9    H     H_    0.458738 0.781459 0.524734 0.181219
H10   H     H_    0.238612 0.205251 0.437033 0.151966
H11   H     H_    0.230382 0.061620 0.291730 0.160193
H12   H     H_    0.734352 0.378789 0.865649 0.148384
H13   H     H_    0.330311 0.130411 0.157362 0.135262
H14   H     H_    0.419319 0.346946 0.160801 0.160195
H15   H     H_    0.403865 0.500513 0.297525 0.128120
H16   H     H_    0.661351 0.517071 0.233558 0.161422
H17   H     H_    0.302567 0.407477 0.770341 0.149799
H18   H     H_    0.032379 0.423635 0.168605 0.173314
H19   H     H_    0.970252 0.585660 0.830217 0.150782
H20   H     H_    0.070790 0.614756 0.002437 0.150335
H21   H     H_    0.930131 0.389106 0.995801 0.153223
H22   H     H_    0.498964 0.609915 0.181869 0.151876
N1    N     N_2   0.322180 0.446120 0.460900 -0.159885
N2    N     N_2   0.677820 0.553880 0.539100 -0.159531
N3    N     N_1   0.674905 0.043337 0.499077 -0.189953
N4    N     N_1   0.297392 0.946471 0.441237 -0.241794
N5    N     N_1   0.617234 0.279014 0.395442 -0.191412
N6    N     N_1   0.434974 0.567358 0.698794 -0.212616
O1    O     O_R   0.935190 0.693030 0.507870 -0.618555
O2    O     O_R   0.064810 0.306970 0.492130 -0.638332
O3    O     O_R   0.142080 0.658430 0.482770 -0.603652
O4    O     O_R   0.857920 0.341570 0.517230 -0.610609
O5    O     O_R   0.969700 0.527180 0.651960 -0.644845
O6    O     O_R   0.030300 0.472820 0.348040 -0.614510
O7    O     O_R   0.176600 0.492580 0.626860 -0.610705
O8    O     O_R   0.823400 0.507420 0.373140 -0.619006
Zn1   Zn    Zn3+2 0.861850 0.523100 0.516760 0.945396
Zn2   Zn    Zn3+2 0.138150 0.476900 0.483240 0.950853

loop_
_geom_bond_atom_site_label_1
_geom_bond_atom_site_label_2
_ccdc_geom_bond_type
C30   H7    S    
C8    C13   A    
C12   O2    A    
C9    H20   S    
C26   N6    T    
C15   H16   S    
C35   C36   A    
C31   H8    S    
C4    C25   S    
C24   N4    T    
C7    C11   A    
C29   C30   A    
N2    Zn1   S    
C23   H22   S    
C28   C29   A    
C12   C43   S    
C11   H19   S    
C30   C31   A    
C6    O6    A    
C23   C40   A    
C24   C42   S    
C18   C40   A    
C27   N2    S    
C17   C19   A    
C38   H14   S    
C7    C14   A    
C13   H18   S    
C22   C43   S    
C2    C44   S    
C34   H2    S    
C5    O7    A    
C2    C43   D    
C22   N3    T    
C20   C34   A    
C35   H10   S    
C34   C41   A    
C42   C44   D    
O2    Zn2   S    
O1    Zn1   S    
C29   H6    S    
C40   H1    S    
C1    O3    A    
C4    N2    D    
C6    C8    S    
C14   H17   S    
C17   C21   A    
C41   H12   S    
C37   C38   A    
C28   H5    S    
O6    Zn2   S    
C6    O8    A    
C31   C32   A    
O5    Zn1   S    
C10   C19   A    
C16   C20   A    
C39   H15   S    
C33   C39   A    
C9    C11   A    
C25   N5    T    
C8    C15   A    
C12   O4    A    
C14   C16   A    
C5    O5    A    
C3    C4    S    
C32   H9    S    
C33   N1    S    
C5    C7    S    
C10   H21   S    
C15   C17   A    
C36   C37   A    
C27   C32   A    
C3    C26   S    
C3    N1    D    
O8    Zn1   S    
C10   C13   A    
O4    Zn1   S    
O7    Zn2   S    
O3    Zn2   S    
C2    H3    S    
C1    O1    A    
C21   C23   A    
C36   H11   S    
C38   C39   A    
C9    C18   A    
C33   C35   A    
C44   H4    S    
C1    C42   S    
C20   C21   A    
N1    Zn2   S    
C16   C18   A    
C27   C28   A    
C37   H13   S    
C19   C41   A    
