data_mof_unit_14021.cif
_audit_creation_date              2012-12-10T19:44:35-0500
_audit_creation_method            fapswitch 2.2
_symmetry_space_group_name_H-M    P1
_symmetry_Int_Tables_number       1
_space_group_crystal_system       triclinic
_cell_length_a                    8.6505
_cell_length_b                    14.780674
_cell_length_c                    14.278358
_cell_angle_alpha                 89.132716
_cell_angle_beta                  98.143865
_cell_angle_gamma                 91.878118
_cell_volume                      1806.15095676

loop_
_atom_site_label
_atom_site_type_symbol
_atom_type_description
_atom_site_fract_x
_atom_site_fract_y
_atom_site_fract_z
_atom_type_partial_charge
C1    C     C_R   0.515697 0.327758 0.501690 0.971732
C2    C     C_R   0.483130 0.672314 0.497977 0.973988
C3    C     C_R   0.373621 0.464876 0.094033 0.266829
C4    C     C_R   0.533183 0.579293 0.896859 0.304538
C5    C     C_R   0.378877 0.459672 0.193862 0.420906
C6    C     C_R   0.548925 0.575571 0.799674 0.430411
C7    C     C_R   0.622775 0.539793 0.213986 0.369987
C8    C     C_R   0.446893 0.425331 0.793372 0.339734
C9    C     C_R   0.629738 0.536751 0.115899 0.286313
C10   C     C_R   0.465363 0.420136 0.893287 0.264971
C11   C     C_R   0.503544 0.499678 0.053614 -0.078753
C12   C     C_R   0.503970 0.499081 0.947192 -0.110897
C13   C     C_R   0.201762 0.498667 0.476012 0.936188
C14   C     C_R   0.798205 0.500012 0.524241 0.895248
C15   C     C_2   0.039116 0.483062 0.466752 0.162190
C16   C     C_2   0.961315 0.513063 0.534912 0.091074
C17   C     C_R   0.567657 0.090029 0.592955 0.364291
C18   C     C_R   0.418503 0.911361 0.409029 0.318620
C19   C     C_R   0.576065 0.184484 0.592841 0.393016
C20   C     C_R   0.430866 0.817306 0.406730 0.345833
C21   C     C_R   0.552381 0.231519 0.505296 -0.418944
C22   C     C_R   0.443852 0.768638 0.493486 -0.355558
C23   C     C_R   0.581110 0.185063 0.423839 0.287041
C24   C     C_R   0.400289 0.812884 0.572854 0.316942
C25   C     C_R   0.580871 0.090761 0.426888 0.382987
C26   C     C_R   0.399946 0.907465 0.572904 0.382251
C27   C     C_R   0.531623 0.045512 0.505647 -0.143770
C28   C     C_R   0.452230 0.954392 0.496599 -0.115731
N1    N     N_R   0.500000 0.499980 0.252470 -0.198257
N2    N     N_R   0.500000 0.500020 0.747530 -0.216180
O1    O     O_R   0.500010 0.369070 0.579480 -0.545090
O2    O     O_R   0.499990 0.630930 0.420520 -0.575851
O3    O     O_R   0.500010 0.369060 0.420520 -0.584090
O4    O     O_R   0.499990 0.630940 0.579480 -0.543273
O5    O     O_R   0.271750 0.500000 0.560890 -0.561116
O6    O     O_R   0.728250 0.500000 0.439110 -0.530647
O7    O     O_R   0.271750 0.499990 0.401930 -0.548101
O8    O     O_R   0.728250 0.500010 0.598070 -0.653860
Zn1   Zn    Zn3+2 0.500000 0.500010 0.606140 1.063390
Zn2   Zn    Zn3+2 0.500000 0.499990 0.393860 1.100307
Cl1   Cl    Cl    0.960430 0.405582 0.377341 -0.509811
Cl2   Cl    Cl    0.041724 0.585279 0.629031 -0.601101
Cl3   Cl    Cl    0.638779 0.031261 0.698427 -0.483691
Cl4   Cl    Cl    0.319475 0.969386 0.309969 -0.474683
O9    O     O_3   0.611144 0.229501 0.677769 -0.503966
C29   C     C_3   0.772102 0.253837 0.690829 0.181874
H1    H     H_    0.800581 0.303050 0.635469 0.121233
H2    H     H_    0.844805 0.193164 0.689092 0.181457
C30   C     C_3   0.815825 0.297804 0.786774 -0.676860
H3    H     H_    0.778650 0.253145 0.843280 0.293764
H4    H     H_    0.944441 0.308964 0.800806 0.225228
H5    H     H_    0.758843 0.363933 0.787634 0.219625
O10   O     O_3   0.401176 0.772321 0.321479 -0.549340
C31   C     C_3   0.523972 0.791296 0.267998 0.204908
H6    H     H_    0.632325 0.759731 0.302349 0.190594
H7    H     H_    0.549444 0.864898 0.260043 0.205491
C32   C     C_3   0.478272 0.753699 0.169238 -0.722941
H8    H     H_    0.386355 0.795677 0.129479 0.256020
H9    H     H_    0.581747 0.754758 0.131233 0.254370
H10   H     H_    0.431329 0.683225 0.172909 0.231781
Cl5   Cl    Cl    0.632536 0.241231 0.321618 -0.478615
Cl6   Cl    Cl    0.322312 0.753186 0.664163 -0.468800
Cl7   Cl    Cl    0.675800 0.032629 0.344711 -0.483429
Cl8   Cl    Cl    0.294388 0.963739 0.651140 -0.424297
O11   O     O_3   0.242929 0.431581 0.036700 -0.559924
C33   C     C_3   0.147773 0.504437 0.004697 0.162249
H11   H     H_    0.212795 0.558276 0.969840 0.099302
H12   H     H_    0.099853 0.534076 0.065105 0.223557
C34   C     C_3   0.014751 0.469939 0.931826 -0.730044
H13   H     H_    0.947353 0.414613 0.962696 0.271034
H14   H     H_    0.935405 0.525717 0.908477 0.217102
H15   H     H_    0.062756 0.444602 0.869408 0.258920
O12   O     O_3   0.552120 0.661581 0.942554 -0.558918
C35   C     C_3   0.413413 0.710727 0.922111 0.079396
H16   H     H_    0.345778 0.702905 0.982334 0.124656
H17   H     H_    0.334925 0.688572 0.857080 0.187572
C36   C     C_3   0.455727 0.810558 0.910070 -0.571594
H18   H     H_    0.520867 0.820193 0.848842 0.295180
H19   H     H_    0.347686 0.850123 0.897215 0.234226
H20   H     H_    0.529700 0.836175 0.974698 0.238872
O13   O     O_3   0.255070 0.419301 0.231961 -0.547995
C37   C     C_3   0.258502 0.323741 0.224933 0.213902
H21   H     H_    0.280510 0.294669 0.297567 0.185985
H22   H     H_    0.350753 0.298606 0.185251 0.177348
C38   C     C_3   0.100611 0.286202 0.178017 -0.609209
H23   H     H_    0.077294 0.308862 0.103149 0.271665
H24   H     H_    0.100357 0.211059 0.179948 0.233058
H25   H     H_    0.005469 0.309020 0.215585 0.302497
O14   O     O_3   0.598546 0.652913 0.756230 -0.544964
C39   C     C_3   0.760975 0.650821 0.753392 0.187681
H26   H     H_    0.782137 0.676585 0.682780 0.216641
H27   H     H_    0.810149 0.581849 0.761974 0.134923
C40   C     C_3   0.849448 0.713880 0.827239 -0.750360
H28   H     H_    0.837140 0.688984 0.899468 0.290891
H29   H     H_    0.975507 0.716500 0.819530 0.237593
H30   H     H_    0.803631 0.783204 0.817541 0.283403
Cl9   Cl    Cl    0.771691 0.601721 0.284474 -0.484136
Cl10  Cl    Cl    0.335537 0.339008 0.729685 -0.433081
Cl11  Cl    Cl    0.799687 0.579081 0.073377 -0.576246
Cl12  Cl    Cl    0.445345 0.313393 0.948712 -0.438662

loop_
_geom_bond_atom_site_label_1
_geom_bond_atom_site_label_2
_ccdc_geom_bond_type
C33   H12   S    
C1    C21   S    
C40   H28   S    
C7    N1    A    
O12   C35   S    
O13   C37   S    
C39   H26   S    
C1    O3    A    
C38   H23   S    
C29   C30   S    
C35   H17   S    
C22   C24   A    
C19   C21   A    
C24   C26   A    
C13   O5    A    
O7    Zn2   S    
C14   O6    A    
O8    Zn1   S    
C32   H9    S    
C33   C34   S    
C15   C16   D    
C1    O1    A    
C2    O2    A    
C25   Cl7   S    
C34   H14   S    
C8    Cl10  S    
C26   Cl8   S    
C31   H6    S    
C30   H4    S    
C35   C36   S    
C2    C22   S    
C4    C12   A    
C5    N1    A    
C2    O4    A    
C38   H24   S    
C33   H11   S    
C40   H29   S    
C3    O11   S    
C29   H2    S    
C36   H19   S    
C31   H7    S    
O3    Zn2   S    
C35   H16   S    
O4    Zn1   S    
C17   C27   A    
O6    Zn2   S    
C18   C28   A    
C15   Cl1   S    
C4    C6    A    
C32   H10   S    
C36   H18   S    
C37   H21   S    
C34   H15   S    
O5    Zn1   S    
C17   Cl3   S    
C18   Cl4   S    
C14   O8    A    
C5    O13   S    
C39   H27   S    
C30   H5    S    
C10   Cl12  S    
C9    C11   A    
C4    O12   S    
C10   C12   A    
C8    C10   A    
C6    N2    A    
C20   C22   A    
O11   C33   S    
C40   H30   S    
C37   H22   S    
C13   C15   S    
C14   C16   S    
C6    O14   S    
C16   Cl2   S    
C39   C40   S    
C38   H25   S    
C7    C9    A    
C29   H1    S    
C24   Cl6   S    
C7    Cl9   S    
C13   O7    A    
C20   O10   S    
C3    C5    A    
C11   C12   S    
C19   O9    S    
O10   C31   S    
C25   C27   A    
C37   C38   S    
C26   C28   A    
C8    N2    A    
C21   C23   A    
C36   H20   S    
C32   H8    S    
N1    Zn2   S    
C17   C19   A    
O1    Zn1   S    
N2    Zn1   S    
C18   C20   A    
O2    Zn2   S    
C34   H13   S    
C3    C11   A    
O9    C29   S    
C23   Cl5   S    
C23   C25   A    
C9    Cl11  S    
C30   H3    S    
C27   C28   S    
O14   C39   S    
C31   C32   S    
