data_mof_unit_27949.cif
_audit_creation_date              2012-12-10T19:42:56-0500
_audit_creation_method            fapswitch 2.2
_symmetry_space_group_name_H-M    P1
_symmetry_Int_Tables_number       1
_space_group_crystal_system       triclinic
_cell_length_a                    10.907291
_cell_length_b                    13.064039
_cell_length_c                    11.647239
_cell_angle_alpha                 99.111457
_cell_angle_beta                  95.20383
_cell_angle_gamma                 89.549733
_cell_volume                      1631.92207512

loop_
_atom_site_label
_atom_site_type_symbol
_atom_type_description
_atom_site_fract_x
_atom_site_fract_y
_atom_site_fract_z
_atom_type_partial_charge
C1    C     C_R   0.501092 0.299462 0.479716 0.852507
C2    C     C_R   0.498910 0.700538 0.520284 0.852508
C3    C     C_R   0.872162 0.499113 0.503795 -0.075186
C4    C     C_R   0.127837 0.500881 0.496203 -0.075186
C5    C     C_R   0.950628 0.506470 0.608634 -0.001685
C6    C     C_R   0.049371 0.493520 0.391363 -0.001682
C7    C     C_R   0.503880 0.812926 0.530293 -0.089653
C8    C     C_R   0.496130 0.187074 0.469706 -0.089652
C9    C     C_R   0.409065 0.026249 0.364954 -0.156940
C10   C     C_R   0.590961 0.973749 0.635040 -0.156933
C11   C     C_R   0.425392 0.132051 0.374171 -0.267110
C12   C     C_R   0.574632 0.867947 0.625824 -0.267108
C13   C     C_R   0.555414 0.134909 0.556210 0.188678
C14   C     C_R   0.444594 0.865091 0.443790 0.188674
C15   C     C_R   0.537184 0.027470 0.548233 0.082153
C16   C     C_R   0.462834 0.972529 0.451764 0.082148
C17   C     C_R   0.423588 0.379374 0.020075 -0.330869
C18   C     C_R   0.576409 0.620627 0.979925 -0.330881
C19   C     C_R   0.425555 0.393794 0.142472 0.119247
C20   C     C_R   0.574443 0.606206 0.857528 0.119245
C21   C     C_R   0.527058 0.555554 0.157937 0.058300
C22   C     C_R   0.472940 0.444446 0.842063 0.058317
C23   C     C_R   0.261852 0.500559 0.498677 0.805212
C24   C     C_R   0.738147 0.499439 0.501323 0.805210
C25   C     C_R   0.526056 0.544743 0.034865 0.051222
C26   C     C_R   0.473942 0.455258 0.965135 0.051221
C27   C     C_R   0.147300 0.578309 0.117963 -0.100062
C28   C     C_R   0.852732 0.421673 0.882042 -0.100059
C29   C     C_R   0.117817 0.581228 0.232810 -0.088841
C30   C     C_R   0.882217 0.418753 0.767196 -0.088880
C31   C     C_R   0.092277 0.489133 0.273947 0.122292
C32   C     C_R   0.907721 0.510854 0.726049 0.122321
C33   C     C_R   0.093754 0.394237 0.198267 -0.162995
C34   C     C_R   0.906205 0.605756 0.801717 -0.162964
C35   C     C_R   0.121658 0.391699 0.082987 -0.167569
C36   C     C_R   0.878300 0.608295 0.916996 -0.167563
C37   C     C_R   0.148733 0.483656 0.042955 -0.092208
C38   C     C_R   0.851260 0.516332 0.957039 -0.092170
C39   C     C_R   0.923038 0.492546 0.396868 -0.238332
C40   C     C_R   0.076961 0.507446 0.603130 -0.238336
Cu1   Cu    Cu3+1 0.509250 0.507730 0.615930 0.970823
Cu2   Cu    Cu3+1 0.490750 0.492270 0.384070 0.970816
H1    H     H_    0.170099 0.481597 0.953647 0.131535
H2    H     H_    0.829893 0.518392 0.046346 0.131533
H3    H     H_    0.430243 0.376900 0.787899 0.139807
H4    H     H_    0.569756 0.623101 0.212102 0.139805
H5    H     H_    0.614098 0.665314 0.816756 0.124410
H6    H     H_    0.385899 0.334688 0.183244 0.124413
H7    H     H_    0.382310 0.309638 0.968948 0.142853
H8    H     H_    0.617686 0.690364 0.031051 0.142849
H9    H     H_    0.167016 0.649524 0.086518 0.156635
H10   H     H_    0.833046 0.350453 0.913495 0.156618
H11   H     H_    0.112378 0.655100 0.289158 0.164130
H12   H     H_    0.887686 0.344878 0.710857 0.164104
H13   H     H_    0.071357 0.322766 0.228030 0.131251
H14   H     H_    0.928570 0.677233 0.771946 0.131234
H15   H     H_    0.122121 0.318515 0.024585 0.132649
H16   H     H_    0.877805 0.681484 0.975391 0.132640
H17   H     H_    0.864158 0.487400 0.315881 0.162087
H18   H     H_    0.135841 0.512592 0.684117 0.162085
H19   H     H_    0.620312 0.828476 0.692777 0.158995
H20   H     H_    0.379718 0.171520 0.307214 0.159004
H21   H     H_    0.353111 0.988078 0.289253 0.195838
H22   H     H_    0.646923 0.011919 0.710738 0.195834
N1    N     N_R   0.523180 0.519350 0.790130 -0.179507
N2    N     N_R   0.476820 0.480650 0.209870 -0.179511
O1    O     O_R   0.506570 0.354460 0.582000 -0.552170
O2    O     O_R   0.493430 0.645540 0.418000 -0.552177
O3    O     O_R   0.490940 0.341410 0.386200 -0.609912
O4    O     O_R   0.509060 0.658590 0.613800 -0.609909
O5    O     O_R   0.327460 0.506540 0.597900 -0.598431
O6    O     O_R   0.672540 0.493460 0.402100 -0.598433
O7    O     O_R   0.311830 0.493480 0.402100 -0.565199
O8    O     O_R   0.688170 0.506520 0.597900 -0.565195
Br1   Br    Br    0.333486 0.791490 0.319049 -0.613959
Br2   Br    Br    0.666490 0.208514 0.680963 -0.613938

loop_
_geom_bond_atom_site_label_1
_geom_bond_atom_site_label_2
_ccdc_geom_bond_type
C33   H13   S    
C34   H14   S    
C8    C13   A    
C40   H18   S    
C21   N2    A    
C27   C29   A    
C1    C8    S    
Cu1   Cu2   S    
C2    C7    S    
C11   H20   S    
Cu1   O1    S    
C30   H12   S    
C24   O6    A    
C17   C26   A    
C35   C37   A    
C9    C16   A    
C2    O2    A    
C10   C15   A    
C15   C16   A    
C19   N2    A    
C33   C35   A    
Cu1   O8    S    
C7    C14   A    
C4    C40   A    
C31   C33   A    
C34   C36   A    
Cu1   O5    S    
C5    C32   S    
C6    C31   S    
C3    C39   A    
Cu2   O2    S    
C3    C24   S    
C18   C25   A    
C23   O7    A    
C27   H9    S    
C7    C12   A    
C23   O5    A    
C20   N1    A    
C4    C6    A    
C17   H7    S    
C4    C23   S    
C19   H6    S    
Cu1   N1    S    
C25   C26   A    
Cu2   O3    S    
C1    O3    A    
C32   C34   A    
C37   H1    S    
C22   N1    A    
C38   H2    S    
C13   Br2   S    
C28   C38   A    
C39   H17   S    
Cu2   O6    S    
C9    C11   A    
C10   C12   A    
C13   C15   A    
C14   C16   A    
C18   H8    S    
C21   H4    S    
C21   C25   A    
Cu2   O7    S    
C9    H21   S    
C10   H22   S    
C3    C5    A    
C1    O1    A    
C36   H16   S    
C35   H15   S    
C14   Br1   S    
C28   C30   A    
C29   C31   A    
C30   C32   A    
C12   H19   S    
C28   H10   S    
C24   O8    A    
C29   H11   S    
C27   C37   A    
C8    C11   A    
C36   C38   A    
C17   C19   A    
C18   C20   A    
C20   H5    S    
C22   H3    S    
C22   C26   A    
C5    C40   A    
Cu2   N2    S    
C6    C39   A    
C2    O4    A    
Cu1   O4    S    
