data_mof_unit_46832.cif
_audit_creation_date              2012-12-10T17:22:33-0500
_audit_creation_method            fapswitch 2.2
_symmetry_space_group_name_H-M    P1
_symmetry_Int_Tables_number       1
_space_group_crystal_system       triclinic
_cell_length_a                    18.647103
_cell_length_b                    18.931621
_cell_length_c                    18.469501
_cell_angle_alpha                 109.116209
_cell_angle_beta                  108.791058
_cell_angle_gamma                 109.439552
_cell_volume                      5084.06351164

loop_
_atom_site_label
_atom_site_type_symbol
_atom_type_description
_atom_site_fract_x
_atom_site_fract_y
_atom_site_fract_z
_atom_type_partial_charge
C1    C     C_R   0.380109 0.380974 0.501055 0.852022
C2    C     C_R   0.319936 0.322324 0.582148 0.080238
C3    C     C_R   0.184776 0.187670 0.500305 -0.207500
C4    C     C_R   0.620805 0.500004 0.620803 0.831811
C5    C     C_R   0.180016 0.179641 0.419777 0.075131
C6    C     C_R   0.239626 0.248820 0.420391 0.074849
C7    C     C_R   0.312141 0.316848 0.501417 -0.207569
C8    C     C_R   0.117041 0.104402 0.338296 -0.146092
C9    C     C_R   0.107361 0.102572 0.259591 -0.137840
C10   C     C_R   0.159857 0.174994 0.260228 -0.136637
C11   C     C_R   0.225464 0.247552 0.339572 -0.142337
C12   C     C_3   0.809512 0.503413 0.811851 0.120903
C13   C     C_R   0.224296 0.474199 0.380388 -0.226104
C14   C     C_R   0.156199 0.478703 0.393708 -0.181331
C15   C     C_R   0.102359 0.499270 0.343066 0.451819
C16   C     C_R   0.620168 0.618978 0.499202 0.897806
C17   C     C_R   0.113068 0.509371 0.275179 -0.215573
C18   C     C_R   0.178777 0.499533 0.257305 0.012110
C19   C     C_R   0.240243 0.490716 0.315741 0.071734
C20   C     C_R   0.184183 0.497817 0.182530 -0.133594
C21   C     C_R   0.253756 0.494822 0.168817 0.020858
C22   C     C_R   0.324902 0.502697 0.235270 -0.100146
C23   C     C_3   0.846307 0.586987 0.805888 -0.361924
C24   C     C_R   0.315947 0.499074 0.308706 -0.159019
C25   C     C_R   0.253256 0.484196 0.089110 -0.231750
C26   C     C_R   0.327876 0.501209 0.082149 -0.341916
C27   C     C_R   0.404360 0.523880 0.152479 0.439940
C28   C     C_R   0.383534 0.503112 0.378400 0.932612
C29   C     C_R   0.400097 0.512617 0.223409 0.407365
C30   C     C_R   0.592806 0.750891 0.471535 -0.191531
C31   C     C_R   0.584735 0.822181 0.473554 0.533826
C32   C     C_R   0.658821 0.896364 0.498716 -0.280910
C33   C     C_R   0.735574 0.894901 0.510285 -0.154856
C34   C     C_3   0.733126 0.496276 0.831308 -0.412067
C35   C     C_R   0.741363 0.819619 0.498978 0.094481
C36   C     C_R   0.672472 0.750413 0.488451 -0.001335
C37   C     C_R   0.813989 0.811841 0.498050 -0.152780
C38   C     C_R   0.821596 0.738908 0.493768 0.067334
C39   C     C_R   0.760436 0.677678 0.500617 0.061293
C40   C     C_3   0.708995 0.426550 0.649196 0.275717
C41   C     C_R   0.685122 0.682901 0.495587 -0.155594
C42   C     C_R   0.888976 0.725581 0.483324 -0.156389
C43   C     C_R   0.900488 0.658346 0.489434 -0.116753
C44   C     C_R   0.845708 0.603448 0.506172 -0.098057
C45   C     C_R   0.394235 0.387434 0.663993 -0.156565
C46   C     C_R   0.776362 0.612727 0.511863 -0.159195
C47   C     C_R   0.998025 0.381371 0.877061 0.863009
C48   C     C_R   0.876950 0.503299 0.879803 0.827685
C49   C     C_R   0.995265 0.618988 0.116159 0.858097
C50   C     C_R   0.117668 0.500304 0.118411 0.839075
C51   C     C_R   0.000364 0.880010 0.380457 0.840726
C52   C     C_3   0.775145 0.425082 0.723474 -0.429197
C53   C     C_R   0.119583 0.120050 0.499799 0.844484
C54   C     C_R   0.998337 0.118759 0.620033 0.931209
C55   C     C_R   0.880269 0.878773 0.498793 0.913854
C56   C     C_R   0.395355 0.396896 0.742464 -0.150317
C57   C     C_R   0.981511 0.382317 0.716879 -0.161553
C58   C     C_R   0.984704 0.388838 0.644937 -0.106984
C59   C     C_R   0.002564 0.334206 0.591550 -0.125906
C60   C     C_R   0.011865 0.269622 0.606860 -0.156422
C61   C     C_R   0.002371 0.257799 0.676051 0.067933
C62   C     C_R   0.995164 0.319638 0.735933 0.078886
C63   C     C_R   0.999987 0.186340 0.687165 -0.208626
C64   C     C_3   0.773278 0.588140 0.738146 -0.376276
C65   C     C_R   0.005089 0.183848 0.765082 -0.008341
C66   C     C_R   0.019461 0.257120 0.833140 0.030548
C67   C     C_R   0.323181 0.342002 0.741266 -0.134246
C68   C     C_R   0.004155 0.318492 0.814207 -0.178567
C69   C     C_R   0.997043 0.112590 0.779694 0.403423
C70   C     C_R   0.023401 0.123078 0.864184 -0.158988
C71   C     C_R   0.051495 0.201018 0.933940 -0.217601
C72   C     C_R   0.046809 0.266675 0.918460 -0.139741
C73   C     C_R   0.154107 0.745277 0.275191 -0.129961
C74   C     C_R   0.233483 0.814948 0.343628 -0.141181
C75   C     C_R   0.236869 0.889026 0.396398 -0.137716
C76   C     C_3   0.659435 0.488087 0.755102 -0.490239
C77   C     C_R   0.160093 0.891039 0.384694 -0.142966
C78   C     C_R   0.251794 0.274551 0.661742 -0.144799
C79   C     C_R   0.078045 0.817819 0.319898 0.075781
C80   C     C_R   0.075701 0.747917 0.259495 0.082853
C81   C     C_R   0.998641 0.812077 0.314258 -0.206213
C82   C     C_R   0.917568 0.740085 0.246178 0.080436
C83   C     C_R   0.915919 0.678884 0.176651 0.083918
C84   C     C_R   0.995354 0.682685 0.184917 -0.198290
C85   C     C_R   0.837870 0.727493 0.245425 -0.142149
C86   C     C_R   0.758709 0.661523 0.172792 -0.136096
C87   C     C_R   0.757032 0.606993 0.099719 -0.140768
C88   C     C_3   0.689318 0.500480 0.688671 0.094690
C89   C     C_R   0.251384 0.261018 0.581281 0.072269
C90   C     C_R   0.834638 0.615137 0.101275 -0.153657
C91   C     C_3   0.502128 0.608377 0.122641 0.085665
C92   C     C_3   0.503854 0.570953 0.036470 -0.358025
C93   C     C_3   0.534654 0.639154 0.010239 -0.965567
C94   C     C_3   0.485221 0.445738 0.239358 0.199749
C95   C     C_3   0.403117 0.356479 0.175752 -0.444374
C96   C     C_3   0.427434 0.286605 0.147414 -0.934960
C97   C     C_3   0.480656 0.852371 0.402082 0.072862
C98   C     C_3   0.480753 0.934902 0.452188 -0.345481
C99   C     C_3   0.454831 0.972963 0.393593 -0.961281
Cl1   Cl    Cl    0.749615 0.435994 0.574641 -0.681891
Cl2   Cl    Cl    0.019651 0.510102 0.362925 -0.642917
Cl3   Cl    Cl    0.936729 0.005651 0.696329 -0.663580
H1    H     H_    0.756088 0.554199 0.892986 0.166031
H2    H     H_    0.058087 0.045198 0.197955 0.138919
H3    H     H_    0.647925 0.363819 0.611615 0.114647
H4    H     H_    0.264137 0.302418 0.336502 0.142972
H5    H     H_    0.263399 0.456889 0.420918 0.165387
H6    H     H_    0.146349 0.467547 0.444480 0.169383
H7    H     H_    0.069749 0.525419 0.237540 0.178896
H8    H     H_    0.195830 0.465053 0.031442 0.186138
H9    H     H_    0.325948 0.497209 0.021718 0.170765
H10   H     H_    0.856165 0.552704 0.513482 0.191650
H11   H     H_    0.743291 0.364749 0.725093 0.154509
H12   H     H_    0.761778 0.640379 0.772152 0.181859
H13   H     H_    0.535285 0.695465 0.454646 0.174447
H14   H     H_    0.657202 0.955070 0.507802 0.152885
H15   H     H_    0.790068 0.953931 0.528937 0.202530
H16   H     H_    0.933002 0.766036 0.469612 0.149384
H17   H     H_    0.952865 0.649641 0.482444 0.181176
H18   H     H_    0.736194 0.568668 0.525518 0.188937
H19   H     H_    0.072006 0.208928 0.999308 0.157325
H20   H     H_    0.969243 0.427504 0.757412 0.147469
H21   H     H_    0.975539 0.437853 0.631980 0.162109
H22   H     H_    0.830143 0.425095 0.711975 0.194259
H23   H     H_    0.876653 0.644354 0.870851 0.164414
H24   H     H_    0.008568 0.341386 0.537655 0.151794
H25   H     H_    0.027968 0.230594 0.564618 0.153947
H26   H     H_    0.018950 0.069453 0.875408 0.172417
H27   H     H_    0.065048 0.324964 0.973966 0.146217
H28   H     H_    0.695479 0.557194 0.042265 0.132196
H29   H     H_    0.155032 0.689276 0.235763 0.143426
H30   H     H_    0.292341 0.811575 0.354504 0.143366
H31   H     H_    0.298935 0.944531 0.447501 0.143514
H32   H     H_    0.166329 0.950469 0.426899 0.151113
H33   H     H_    0.793443 0.602736 0.691952 0.190940
H34   H     H_    0.150704 0.174557 0.199112 0.133977
H35   H     H_    0.835421 0.767357 0.300864 0.145686
H36   H     H_    0.698611 0.653441 0.173018 0.142336
H37   H     H_    0.829664 0.570906 0.042873 0.139755
H38   H     H_    0.897405 0.590864 0.786195 0.204484
H39   H     H_    0.640808 0.536748 0.781890 0.201881
H40   H     H_    0.601163 0.423769 0.721777 0.158775
H41   H     H_    0.707254 0.439440 0.840188 0.192772
H42   H     H_    0.568171 0.662037 0.174247 0.158030
H43   H     H_    0.458571 0.637174 0.116826 0.127120
H44   H     H_    0.548241 0.543459 0.043683 0.225361
H45   H     H_    0.452427 0.431476 0.668903 0.146994
H46   H     H_    0.437889 0.518416 0.983440 0.213877
H47   H     H_    0.490206 0.666415 0.000970 0.269691
H48   H     H_    0.535183 0.609840 0.947706 0.262191
H49   H     H_    0.601533 0.691432 0.061360 0.266178
H50   H     H_    0.528467 0.439689 0.291623 0.181384
H51   H     H_    0.523006 0.463067 0.206412 0.174646
H52   H     H_    0.363092 0.340661 0.207233 0.246960
H53   H     H_    0.362759 0.355839 0.116029 0.219120
H54   H     H_    0.466685 0.300138 0.114519 0.269214
H55   H     H_    0.367453 0.223650 0.100756 0.270652
H56   H     H_    0.451946 0.447744 0.804328 0.133418
H57   H     H_    0.465215 0.282863 0.205052 0.262126
H58   H     H_    0.413555 0.803625 0.348537 0.155625
H59   H     H_    0.520467 0.863331 0.368805 0.121374
H60   H     H_    0.434741 0.920961 0.478175 0.227106
H61   H     H_    0.546312 0.983193 0.508898 0.224320
H62   H     H_    0.502925 0.991448 0.370829 0.271240
H63   H     H_    0.452951 0.031056 0.431098 0.269674
H64   H     H_    0.389529 0.925952 0.335834 0.265837
H65   H     H_    0.322996 0.350838 0.802153 0.133969
H66   H     H_    0.197127 0.234000 0.664428 0.146286
H67   H     H_    0.074964 0.046082 0.334039 0.150116
O1    O     O_R   0.408690 0.356690 0.448570 -0.622077
O2    O     O_R   0.052500 0.908420 0.460860 -0.628394
O3    O     O_R   0.039610 0.091640 0.448030 -0.627840
O4    O     O_R   0.408090 0.460090 0.551440 -0.630159
O5    O     O_R   0.143600 0.091610 0.551990 -0.628700
O6    O     O_R   0.947500 0.091600 0.539170 -0.628143
O7    O     O_R   0.051490 0.091570 0.643140 -0.593160
O8    O     O_R   0.856400 0.908420 0.448030 -0.650500
O9    O     O_R   0.960390 0.908390 0.552000 -0.567457
O10   O     O_R   0.592400 0.448300 0.540670 -0.586599
O11   O     O_R   0.591800 0.551700 0.643540 -0.637810
O12   O     O_R   0.049540 0.460090 0.906170 -0.634006
O13   O     O_R   0.591910 0.539910 0.448560 -0.618610
O14   O     O_R   0.591310 0.643310 0.551430 -0.618910
O15   O     O_R   0.408200 0.448300 0.356460 -0.611919
O16   O     O_R   0.407600 0.551700 0.459330 -0.625579
O17   O     O_R   0.946100 0.356720 0.906240 -0.604993
O18   O     O_3   0.481375 0.544937 0.148560 -0.659902
O19   O     O_3   0.470033 0.513350 0.281227 -0.638111
O20   O     O_3   0.505709 0.819386 0.458758 -0.642042
O21   O     O_R   0.853530 0.448360 0.905250 -0.631776
O22   O     O_R   0.956970 0.551730 0.905180 -0.633194
O23   O     O_R   0.945170 0.540000 0.088470 -0.615360
O24   O     O_R   0.048600 0.643370 0.088400 -0.622807
O25   O     O_R   0.037740 0.448360 0.089460 -0.618621
O26   O     O_R   0.141170 0.551730 0.089390 -0.625627
O27   O     O_R   0.948510 0.908450 0.356890 -0.629888
Zn1   Zn    Zn3+2 0.500400 0.430960 0.431310 0.970737
Zn2   Zn    Zn3+2 0.499600 0.569040 0.568690 0.965399
Zn3   Zn    Zn3+2 0.928290 0.431030 0.997370 0.974028
Zn4   Zn    Zn3+2 0.066410 0.569060 0.997270 0.939554
Zn5   Zn    Zn3+2 0.930570 0.000030 0.430590 0.945311
Zn6   Zn    Zn3+2 0.069430 0.999990 0.569430 0.991195

loop_
_geom_bond_atom_site_label_1
_geom_bond_atom_site_label_2
_ccdc_geom_bond_type
C66   C68   A    
C63   C65   A    
C33   H15   S    
C22   C29   A    
C74   H30   S    
C92   H46   S    
C3    C53   S    
C73   C74   A    
C93   H47   S    
C95   C96   S    
C47   O12   A    
C73   H29   S    
C98   H61   S    
C36   C41   A    
C16   O14   A    
C72   H27   S    
C39   C41   A    
C49   O23   A    
C96   H54   S    
C85   C86   A    
C59   H24   S    
O13   Zn1   S    
C12   C23   S    
C1    O4    A    
C58   H21   S    
C21   C25   A    
C83   C84   A    
C12   C48   S    
C49   C84   S    
C35   C37   A    
C94   O19   S    
C38   C42   A    
C51   O27   A    
C9    H2    S    
C30   C31   A    
C16   O13   A    
C27   C29   A    
C54   C63   S    
C94   H50   S    
C97   C98   S    
C1    O1    A    
O5    Zn6   S    
C18   C20   A    
C18   C19   A    
O23   Zn3   S    
C54   O7    A    
C61   C63   A    
C48   O22   A    
C56   H56   S    
C53   O3    A    
C98   H60   S    
C57   H20   S    
C66   C72   A    
C35   C36   A    
C45   C56   A    
C8    C9    A    
C53   O5    A    
C20   C50   S    
C70   C71   A    
O16   Zn2   S    
C9    C10   A    
C51   C81   S    
C48   O21   A    
C61   C62   A    
C91   C92   S    
C13   H5    S    
C23   H23   S    
C99   H64   S    
C76   H39   S    
C22   C24   A    
C97   O20   S    
C96   H55   S    
C64   H33   S    
C59   C60   A    
C78   C89   A    
C1    C7    S    
C13   C14   A    
C52   H11   S    
C55   O8    A    
C93   H48   S    
O3    Zn5   S    
C67   C78   A    
C4    O11   A    
C12   C52   S    
C44   C46   A    
O21   Zn3   S    
C90   H37   S    
C30   H13   S    
C77   C79   A    
C2    C45   A    
C38   C39   A    
C34   H41   S    
O14   Zn2   S    
C64   H12   S    
C74   C75   A    
C13   C19   A    
C92   H44   S    
C80   C84   A    
C97   H58   S    
O7    Zn6   S    
C23   H38   S    
C57   C62   A    
O22   Zn4   S    
O6    Zn5   S    
C6    C11   A    
C79   C81   A    
C86   C87   A    
C42   H16   S    
O10   Zn1   S    
C25   C26   A    
C69   Cl3   S    
C15   Cl2   S    
C82   C83   A    
C81   C82   A    
C79   C80   A    
C60   C61   A    
C54   O6    A    
C91   H42   S    
C2    C89   A    
C43   C44   A    
C37   C38   A    
C50   O26   A    
C31   C32   A    
C11   H4    S    
C17   C18   A    
C26   C27   A    
C46   H18   S    
C27   O18   S    
C32   H14   S    
C47   O17   A    
C75   C77   A    
C25   H8    S    
C39   C46   A    
C44   H10   S    
C56   C67   A    
C23   C64   S    
O15   Zn1   S    
C97   H59   S    
O9    Zn6   S    
C2    C7    A    
C55   O9    A    
O8    Zn5   S    
O17   Zn3   S    
C93   H49   S    
C77   H32   S    
C4    O10   A    
C12   C34   S    
O24   Zn4   S    
C85   H35   S    
C47   C68   S    
C91   H43   S    
C8    H67   S    
C87   H28   S    
O26   Zn4   S    
C70   H26   S    
C15   C17   A    
C83   C90   A    
C76   C88   S    
O4    Zn2   S    
C45   H45   S    
C71   H19   S    
C60   H25   S    
C24   C28   S    
C10   H34   S    
C3    C5    A    
C17   H7    S    
C40   Cl1   S    
C5    C8    A    
C75   H31   S    
C6    C7    A    
C4    C88   S    
C62   C68   A    
C82   C85   A    
C31   O20   S    
C78   H66   S    
C34   H1    S    
C29   O19   S    
C30   C36   A    
C3    C89   A    
C95   H52   S    
C32   C33   A    
C40   C88   S    
O2    Zn6   S    
C51   O2    A    
C19   C24   A    
C58   C59   A    
C71   C72   A    
C40   C52   S    
C28   O16   A    
C67   H65   S    
C50   O25   A    
C57   C58   A    
C5    C6    A    
C49   O24   A    
C94   H51   S    
C65   C69   A    
C16   C41   S    
C52   H22   S    
C14   H6    S    
C92   C93   S    
C33   C35   A    
C73   C80   A    
C95   H53   S    
C65   C66   A    
C28   O15   A    
C94   C95   S    
C69   C70   A    
O11   Zn2   S    
C10   C11   A    
C86   H36   S    
C99   H62   S    
C37   C55   S    
O25   Zn3   S    
C96   H57   S    
C20   C21   A    
C98   C99   S    
C42   C43   A    
C87   C90   A    
C34   C76   S    
C14   C15   A    
O27   Zn5   S    
C21   C22   A    
O12   Zn4   S    
C91   O18   S    
C26   H9    S    
C64   C88   S    
O1    Zn1   S    
C43   H17   S    
C40   H3    S    
C99   H63   S    
C76   H40   S    
