data_mof_unit_66489.cif
_audit_creation_date              2013-03-05T15:44:56-0500
_audit_creation_method            fapswitch 2.2
_symmetry_space_group_name_H-M    P1
_symmetry_Int_Tables_number       1
_space_group_crystal_system       triclinic
_cell_length_a                    8.353146
_cell_length_b                    16.579754
_cell_length_c                    19.263802
_cell_angle_alpha                 96.096004
_cell_angle_beta                  94.83744
_cell_angle_gamma                 92.144476
_cell_volume                      2640.47125812

loop_
_atom_site_label
_atom_site_type_symbol
_atom_site_description
_atom_site_fract_x
_atom_site_fract_y
_atom_site_fract_z
_atom_type_partial_charge
P1    P     P_3+3 0.950430 0.683250 0.555020 0.491199
O1    O     O_2   0.121950 0.695970 0.534170 -0.328589
O2    O     O_3   0.871970 0.595810 0.535570 -0.446970
O3    O     O_3   0.356610 0.647930 0.408330 -0.386575
O4    O     O_2   0.251796 0.790036 0.458610 -0.368715
O5    O     O_3   0.977776 0.702937 0.646443 -0.569649
O6    O     O_3   0.322008 0.780899 0.329322 -0.495563
H1    H     H_    0.459626 0.689264 0.286283 0.046078
C1    C     C_3   0.381727 0.767058 0.209172 0.107933
H2    H     H_    0.478994 0.747946 0.175556 -0.003261
P2    P     P_3+3 0.353690 0.438260 0.341200 0.484634
P3    P     P_3+3 0.907367 0.606505 0.280442 0.468593
O7    O     O_2   0.180290 0.462550 0.330450 -0.343602
O8    O     O_3   0.940700 0.607800 0.373310 -0.418155
O9    O     O_2   0.038926 0.555197 0.247917 -0.324309
O10   O     O_3   0.333877 0.331859 0.322670 -0.580499
O11   O     O_3   0.947950 0.704529 0.258801 -0.484970
C2    C     C_3   0.917379 0.760540 0.315614 0.550251
H3    H     H_    0.010533 0.758177 0.359861 0.156459
H4    H     H_    0.797165 0.748231 0.333807 -0.042738
C3    C     C_3   0.922989 0.845664 0.293103 -0.987794
H5    H     H_    0.041698 0.859400 0.273965 0.283356
H6    H     H_    0.826900 0.850495 0.250442 0.242931
C4    C     C_3   0.935686 0.297193 0.314968 0.354191
H7    H     H_    0.902926 0.321784 0.264546 0.085058
H8    H     H_    0.038936 0.335185 0.340097 0.138678
C5    C     C_3   0.975274 0.208571 0.298538 -1.018995
H9    H     H_    0.866884 0.172780 0.273250 0.266965
H10   H     H_    0.071423 0.204102 0.262164 0.242343
H11   H     H_    0.017418 0.182342 0.346990 0.248069
Ba1   Ba    Ba6+2 0.153080 0.539460 0.466290 1.525796
C6    C     C_3   0.021307 0.632510 0.675927 0.450150
H12   H     H_    0.130630 0.608911 0.653987 0.091400
H13   H     H_    0.922202 0.585187 0.666121 0.134264
C7    C     C_3   0.055107 0.653830 0.754730 -1.019690
H14   H     H_    0.159013 0.698426 0.766131 0.272930
H15   H     H_    0.082917 0.598830 0.780521 0.232735
H16   H     H_    0.947882 0.680552 0.776844 0.261122
C8    C     C_3   0.344665 0.292073 0.383840 0.460518
H17   H     H_    0.225450 0.285857 0.403210 0.011267
H18   H     H_    0.424542 0.323584 0.427231 0.167037
C9    C     C_3   0.404830 0.207446 0.366538 -0.977742
H19   H     H_    0.322950 0.172485 0.324770 0.243210
H20   H     H_    0.409852 0.174641 0.413870 0.241805
H21   H     H_    0.526933 0.211467 0.348168 0.289036
P4    P     P_3+3 0.859870 0.316740 0.444930 0.438905
O12   O     O_2   0.688350 0.303980 0.465810 -0.348703
O13   O     O_3   0.938330 0.404180 0.464370 -0.439418
O14   O     O_3   0.453690 0.352060 0.591610 -0.392843
O15   O     O_3   0.802764 0.303374 0.354285 -0.566153
P5    P     P_3+3 0.895024 0.389694 0.717290 0.434272
O16   O     O_3   0.374800 0.540170 0.583060 -0.395007
O17   O     O_3   0.869600 0.392190 0.626640 -0.392927
O18   O     O_2   0.765254 0.442113 0.749919 -0.393468
O19   O     O_3   0.847608 0.290788 0.735472 -0.525505
Ba2   Ba    Ba6+2 0.657090 0.460530 0.533660 1.509568
P6    P     P_3+3 0.380831 0.754112 0.412849 0.478355
C10   C     C_3   0.438244 0.754755 0.284393 0.394155
H22   H     H_    0.552167 0.791453 0.299030 -0.011218
H23   H     H_    0.362326 0.832786 0.206458 0.080756
O20   O     O_3   0.435500 0.459820 0.416880 -0.444886
C11   C     C_3   0.497742 0.710637 0.649627 0.293700
H24   H     H_    0.610102 0.690389 0.627343 0.088748
H25   H     H_    0.397955 0.707012 0.607365 0.126615
C12   C     C_3   0.525582 0.798429 0.683832 -0.447838
H26   H     H_    0.642266 0.803677 0.716762 0.202205
H27   H     H_    0.429011 0.812848 0.718877 0.218789
P7    P     P_3+3 0.449305 0.559827 0.671834 0.443432
O21   O     O_2   0.630010 0.537400 0.669530 -0.351923
O22   O     O_3   0.455886 0.663288 0.702030 -0.588037
H28   H     H_    0.904401 0.890776 0.338218 0.238436
C13   C     C_3   0.902036 0.236108 0.682601 0.511065
H29   H     H_    0.829090 0.239294 0.632078 0.148685
H30   H     H_    0.030989 0.248983 0.675906 0.009914
C14   C     C_3   0.883764 0.150015 0.702257 -1.009047
H31   H     H_    0.925821 0.106648 0.660465 0.226756
H32   H     H_    0.956887 0.144451 0.752259 0.256013
H33   H     H_    0.755631 0.134380 0.708318 0.292426
P8    P     P_3+3 0.428475 0.245639 0.586345 0.419071
C15   C     C_3   0.427141 0.275707 0.719793 0.501468
H34   H     H_    0.298580 0.288325 0.708088 0.013702
O23   O     O_2   0.559967 0.208952 0.542335 -0.403120
O24   O     O_3   0.477694 0.216236 0.669818 -0.523123
H35   H     H_    0.502432 0.332712 0.721565 0.147161
H36   H     H_    0.408283 0.292823 0.831694 0.227131
C16   C     C_3   0.446399 0.245783 0.791779 -0.992120
H37   H     H_    0.574209 0.233237 0.805488 0.286549
H38   H     H_    0.370713 0.189306 0.792035 0.254802
C17   C     C_R   0.680864 0.739423 0.482966 -0.667758
C18   C     C_R   0.834212 0.762628 0.513575 0.199416
C19   C     C_R   0.887734 0.845989 0.518389 0.365613
C20   C     C_R   0.794406 0.902571 0.482088 -0.152900
C21   C     C_R   0.642635 0.874042 0.447422 0.342674
C22   C     C_R   0.584583 0.793289 0.450197 0.110312
C23   C     C_R   0.922329 0.154250 0.480474 -0.294658
C24   C     C_R   0.973784 0.237579 0.486876 0.303573
C25   C     C_R   0.023043 0.096261 0.509490 0.149447
N1    N     N_2   0.839949 0.988047 0.481959 -0.045361
N2    N     N_2   0.980330 0.010479 0.506424 -0.025836
C26   C     C_R   0.121463 0.262675 0.523240 -0.495122
H39   H     H_    0.806980 0.135214 0.452534 0.170912
C27   C     C_R   0.225759 0.206874 0.548187 0.242134
C28   C     C_R   0.176042 0.124175 0.542326 -0.321436
H40   H     H_    0.257090 0.081186 0.562801 0.151862
H41   H     H_    0.633328 0.678851 0.487115 0.201864
H42   H     H_    0.160191 0.326236 0.528447 0.169840
C29   C     C_R   0.591191 0.541942 0.293203 -0.238552
C30   C     C_R   0.455896 0.490109 0.272500 0.219459
C31   C     C_R   0.411481 0.471795 0.199760 0.388073
C32   C     C_R   0.504806 0.505811 0.149912 -0.130767
C33   C     C_R   0.652448 0.548531 0.173911 -0.364191
C34   C     C_R   0.699493 0.563867 0.245584 0.199460
C35   C     C_R   0.290946 0.505407 0.048850 -0.123810
C36   C     C_R   0.241599 0.496940 0.976956 -0.226530
C37   C     C_R   0.352146 0.478647 0.926922 0.178500
C38   C     C_R   0.513334 0.468878 0.950951 -0.182741
C39   C     C_R   0.562535 0.477219 0.022917 -0.207245
C40   C     C_R   0.452021 0.495747 0.072956 0.192209
C41   C     C_R   0.148966 0.433409 0.823932 -0.283965
C42   C     C_R   0.098547 0.428584 0.752231 0.262068
C43   C     C_R   0.346489 0.498903 0.731020 0.319327
C44   C     C_R   0.397573 0.504067 0.802795 -0.257709
C45   C     C_R   0.300059 0.470696 0.850134 0.014769
C46   C     C_R   0.200107 0.458653 0.706006 -0.515900
H43   H     H_    0.509097 0.537522 0.822051 0.152268
H44   H     H_    0.117147 0.506359 0.960546 0.127809
H45   H     H_    0.203216 0.520714 0.085707 0.168469
H46   H     H_    0.601283 0.453722 0.914019 0.139636
H47   H     H_    0.687060 0.468072 0.039418 0.130064
H48   H     H_    0.069892 0.408872 0.859010 0.147148
H49   H     H_    0.730572 0.570192 0.137143 0.169649
H50   H     H_    0.159708 0.456299 0.650919 0.164405
C47   C     C_3   0.526509 0.860005 0.630072 -0.373347
C48   C     C_3   0.558626 0.946566 0.665669 -0.892606
H51   H     H_    0.464693 0.963187 0.701284 0.275501
H52   H     H_    0.677175 0.952337 0.696905 0.252943
H53   H     H_    0.558860 0.989666 0.625284 0.251844
H54   H     H_    0.622545 0.846144 0.595447 0.178289
H55   H     H_    0.409346 0.856016 0.597655 0.250806
O25   O     O_3   0.237237 0.720662 0.188153 -0.531420
C49   C     C_3   0.197994 0.722271 0.115577 0.352832
H56   H     H_    0.283239 0.685847 0.085320 0.076231
H57   H     H_    0.201254 0.785512 0.100845 0.058080
C50   C     C_3   0.028622 0.685462 0.095547 -0.844438
H58   H     H_    0.939704 0.724567 0.120497 0.263355
H59   H     H_    0.001712 0.680556 0.037770 0.186344
H60   H     H_    0.017321 0.624011 0.113015 0.261340
O26   O     O_3   0.558880 0.922181 0.404147 -0.614363
C51   C     C_3   0.455516 0.971076 0.442798 0.312375
H61   H     H_    0.522890 0.027127 0.468100 0.108876
H62   H     H_    0.400479 0.939548 0.483972 0.108342
C52   C     C_3   0.320359 0.994812 0.392029 -0.848339
H63   H     H_    0.242460 0.940463 0.371171 0.277402
H64   H     H_    0.246203 0.040163 0.418816 0.210728
H65   H     H_    0.371032 0.021509 0.347662 0.253487
O27   O     O_3   0.024295 0.871952 0.561649 -0.578615
C53   C     C_3   0.975163 0.903278 0.627310 0.287790
H66   H     H_    0.911053 0.855454 0.652246 0.120575
H67   H     H_    0.894943 0.954755 0.621968 0.095154
C54   C     C_3   0.121321 0.934842 0.675899 -0.904246
H68   H     H_    0.189825 0.981491 0.651653 0.259599
H69   H     H_    0.082799 0.962623 0.726461 0.212874
H70   H     H_    0.198755 0.883838 0.686108 0.265783
O28   O     O_3   0.274363 0.423249 0.178111 -0.604292
C55   C     C_3   0.319047 0.345092 0.152263 0.274324
H71   H     H_    0.385591 0.315364 0.194280 0.125473
H72   H     H_    0.395625 0.347093 0.107912 0.084160
C56   C     C_3   0.167996 0.293294 0.125593 -0.872347
H73   H     H_    0.104270 0.319596 0.080918 0.250719
H74   H     H_    0.200454 0.230597 0.107775 0.206601
H75   H     H_    0.086529 0.291098 0.167988 0.254603
C57   C     C_3   0.643717 0.559618 0.367433 -0.350890
C58   C     C_3   0.748283 0.490498 0.385651 -0.444601
H76   H     H_    0.680442 0.433270 0.387510 0.235125
H77   H     H_    0.836788 0.473404 0.347438 0.201597
H78   H     H_    0.811801 0.512046 0.435731 0.297600
H79   H     H_    0.689024 0.623154 0.376982 0.153717
H80   H     H_    0.556575 0.569516 0.404107 0.241022

loop_
_geom_bond_atom_site_label_1
_geom_bond_atom_site_label_2
_geom_bond_distance
_ccdc_geom_bond_type
C57   H79   1.097283 S    
O5    C6    1.398594 S    
C55   H71   1.111927 S    
C5    H10   1.108983 S    
C2    C3    1.520056 S    
C29   C34   1.406483 A    
Ba1   O20   2.925694 S    
C23   C24   1.420959 A    
C4    C5    1.524367 S    
Ba1   O16   2.789324 S    
C15   H35   1.111308 S    
C32   C40   1.500553 S    
C48   H53   1.110909 S    
C36   C37   1.408063 A    
C20   N1    1.453831 S    
C8    H18   1.097239 S    
C58   H76   1.092289 S    
C30   C31   1.416632 A    
C46   H50   1.082293 S    
C53   H66   1.112994 S    
C3    H28   1.110058 S    
O28   C55   1.413121 S    
C7    H15   1.106780 S    
C4    H8    1.095044 S    
C2    H3    1.109531 S    
C49   H57   1.114902 S    
C36   H44   1.082690 S    
C1    O25   1.412210 S    
C16   H38   1.110728 S    
C58   H78   1.079878 S    
C51   H61   1.111903 S    
C57   H80   1.061571 S    
C37   C38   1.407299 A    
P1    Ba1   3.375662 S    
C41   H48   1.082560 S    
C38   C39   1.403179 A    
C11   O22   1.401743 S    
C21   O26   1.380648 S    
P1    O1    1.533281 D    
O2    Ba2   2.814924 S    
C17   C22   1.389511 A    
C32   C33   1.416076 A    
C43   C46   1.394246 A    
C15   C16   1.519708 S    
H1    C10   1.110884 S    
C49   H56   1.113047 S    
C56   H75   1.108877 S    
C33   C34   1.397069 A    
P7    O21   1.571138 D    
C12   H27   1.111592 S    
O3    P6    1.756580 S    
C11   H25   1.110217 S    
C29   C30   1.397613 A    
C52   H65   1.110362 S    
P8    C27   1.851761 S    
Ba1   Ba2   4.628577 S    
C39   H47   1.082719 S    
C1    H2    1.115482 S    
O8    Ba1   2.772149 S    
O6    C10   1.404725 S    
C2    H4    1.109974 S    
O19   C13   1.406696 S    
O16   P7    1.762107 S    
P2    C30   1.896471 S    
C56   H74   1.110366 S    
P2    Ba1   3.385666 S    
C47   H54   1.101240 S    
C53   H67   1.112578 S    
C3    H5    1.110685 S    
C5    H11   1.107475 S    
C9    H20   1.108837 S    
C50   H60   1.109588 S    
C25   N2    1.447145 S    
P5    C42   1.841681 S    
C8    C9    1.521194 S    
C29   C57   1.455585 S    
C58   H77   1.109910 S    
C4    O15   1.396714 S    
Ba1   O13   2.814242 S    
P4    O13   1.563230 S    
C37   C45   1.496849 S    
P1    O5    1.750677 S    
C6    C7    1.521647 S    
C7    H16   1.110823 S    
C4    H7    1.110054 S    
C13   H30   1.111099 S    
C49   C50   1.521924 S    
C19   C20   1.441846 A    
Ba2   O21   2.817637 S    
C16   H37   1.110654 S    
C13   H29   1.111127 S    
C48   H52   1.109960 S    
C10   H22   1.109164 S    
H36   C16   1.110582 S    
O14   P8    1.760245 S    
O1    Ba1   2.810370 S    
P1    O2    1.563252 S    
C9    H21   1.109390 S    
C54   H69   1.110438 S    
P3    O11   1.748297 S    
C14   H31   1.110053 S    
C54   H70   1.107685 S    
C11   H24   1.113003 S    
P2    O10   1.761051 S    
P3    O9    1.548154 D    
C26   C27   1.389249 A    
O11   C2    1.405134 S    
C21   C22   1.414766 A    
O25   C49   1.412129 S    
O2    Ba1   2.931849 S    
C14   H32   1.110535 S    
C43   C44   1.404904 A    
C25   C28   1.415932 A    
C50   H59   1.110459 S    
C56   H73   1.110850 S    
C52   H64   1.105305 S    
C47   H55   1.111515 S    
C55   C56   1.519659 S    
P6    C22   1.856809 S    
C3    H6    1.110668 S    
C47   C48   1.527429 S    
C51   C52   1.521422 S    
C9    H19   1.108900 S    
P4    Ba2   3.376280 S    
P1    C18   1.870810 S    
P3    C34   1.891145 S    
C57   C58   1.519218 S    
C15   O24   1.405514 S    
C35   C36   1.402083 A    
O17   Ba2   2.772800 S    
C33   H49   1.082117 S    
O13   Ba2   2.932866 S    
P4    O12   1.533574 D    
O27   C53   1.414957 S    
C11   C12   1.533640 S    
O7    Ba1   2.817549 S    
P3    O8    1.784886 S    
C15   H34   1.110778 S    
P2    O20   1.556667 S    
C31   O28   1.383036 S    
P7    C43   1.844635 S    
P8    O23   1.546833 D    
C41   C42   1.402677 A    
C23   C25   1.428257 A    
C48   H51   1.108665 S    
C35   H45   1.081175 S    
C41   C45   1.413411 A    
C53   C54   1.515234 S    
O14   Ba2   2.807988 S    
P4    O15   1.759304 S    
C26   H42   1.082502 S    
O4    P6    1.546085 D    
C50   H58   1.110445 S    
C1    H23   1.113757 S    
C6    H12   1.105604 S    
P5    O18   1.547530 D    
C44   H43   1.082798 S    
C51   H62   1.115928 S    
C44   C45   1.414195 A    
C19   O27   1.381201 S    
C39   C40   1.408599 A    
C54   H68   1.110168 S    
P8    O24   1.749974 S    
P2    O7    1.521123 D    
C13   C14   1.520640 S    
C18   C19   1.427670 A    
O16   Ba2   2.924706 S    
C24   C26   1.392662 A    
C20   C21   1.422030 A    
P5    O19   1.750844 S    
O26   C51   1.410537 S    
C12   H26   1.112482 S    
C27   C28   1.407759 A    
C14   H33   1.110470 S    
O3    Ba1   2.808753 S    
O10   C8    1.408338 S    
C35   C40   1.406469 A    
C8    H17   1.097571 S    
C23   H39   1.082303 S    
P4    C24   1.862781 S    
C52   H63   1.109923 S    
C1    C10   1.522770 S    
C55   H72   1.112133 S    
N1    N2    1.253960 D    
C38   H46   1.083053 S    
C17   H41   1.079436 S    
C28   H40   1.082910 S    
P7    O22   1.749142 S    
Ba2   O20   2.788819 S    
C7    H14   1.110661 S    
P5    O17   1.746337 S    
C17   C18   1.387110 A    
C31   C32   1.433972 A    
O6    P6    1.750001 S    
C12   C47   1.529754 S    
C42   C46   1.396853 A    
C6    H13   1.109128 S    
O12   Ba2   2.810913 S    
C5    H9    1.110488 S    
