data_mof_unit_16936.cif
_audit_creation_date              2012-10-26T20:08:13-0400
_audit_creation_method            fapswitch 2.2
_symmetry_space_group_name_H-M    P1
_symmetry_Int_Tables_number       1
_space_group_crystal_system       triclinic
_cell_length_a                    10.883163
_cell_length_b                    10.811249
_cell_length_c                    9.541541
_cell_angle_alpha                 90.174474
_cell_angle_beta                  91.563427
_cell_angle_gamma                 90.836627
_cell_volume                      1122.11907057

loop_
_atom_site_label
_atom_site_type_symbol
_atom_type_description
_atom_site_fract_x
_atom_site_fract_y
_atom_site_fract_z
_atom_type_partial_charge
C1    C     C_R   0.499406 0.262609 0.499820 0.514776
C2    C     C_R   0.588793 0.066977 0.582241 0.007513
C3    C     C_R   0.500939 0.871619 0.500087 -0.074800
C4    C     C_R   0.499059 0.128381 0.499914 -0.074803
C5    C     C_R   0.475535 0.394002 0.073026 0.024503
C6    C     C_R   0.524465 0.605998 0.926974 0.024513
C7    C     C_R   0.475895 0.393968 0.924789 0.023490
C8    C     C_R   0.524105 0.606032 0.075211 0.023517
C9    C     C_R   0.262158 0.500945 0.497617 0.528955
C10   C     C_R   0.737842 0.499054 0.502383 0.528951
C11   C     C_R   0.186558 0.523088 0.013221 -0.094486
C12   C     C_R   0.500593 0.737391 0.500180 0.514808
C13   C     C_R   0.813445 0.476896 0.986777 -0.094490
C14   C     C_R   0.150919 0.545295 0.150557 -0.042564
C15   C     C_R   0.849086 0.454694 0.849441 -0.042575
C16   C     C_R   0.105965 0.447767 0.232453 0.037409
C17   C     C_R   0.894035 0.552225 0.767549 0.037422
C18   C     C_R   0.093563 0.328910 0.173702 -0.078641
C19   C     C_R   0.906430 0.671081 0.826302 -0.078621
C20   C     C_R   0.128986 0.307112 0.036276 -0.087247
C21   C     C_R   0.871007 0.692875 0.963728 -0.087227
C22   C     C_R   0.175496 0.404024 0.956186 -0.126020
C23   C     C_R   0.871800 0.496717 0.506572 -0.010507
C24   C     C_R   0.824501 0.595959 0.043814 -0.126016
C25   C     C_R   0.929341 0.467913 0.381683 -0.156214
C26   C     C_R   0.070659 0.532085 0.618317 -0.156214
C27   C     C_2   0.309628 0.132082 0.343591 0.240144
C28   C     C_2   0.690354 0.867913 0.656421 0.240242
C29   C     C_2   0.313984 0.859259 0.341959 0.299894
C30   C     C_2   0.686026 0.140747 0.658030 0.299748
C31   C     C_R   0.128200 0.503282 0.493428 -0.010503
C32   C     C_R   0.943859 0.526967 0.627887 -0.037850
C33   C     C_R   0.056141 0.473030 0.372114 -0.037848
C34   C     C_R   0.409514 0.062952 0.418056 -0.007860
C35   C     C_R   0.590476 0.937048 0.581952 -0.007832
C36   C     C_R   0.411206 0.933024 0.417762 0.007527
Cu1   Cu    Cu3+1 0.500000 0.500020 0.640660 0.946689
Cu2   Cu    Cu3+1 0.500000 0.499980 0.359340 0.946694
H1    H     H_    0.454919 0.308699 0.869396 0.149403
H2    H     H_    0.796834 0.613475 0.149964 0.129022
H3    H     H_    0.222165 0.598264 0.950864 0.128430
H4    H     H_    0.777842 0.401717 0.049132 0.128425
H5    H     H_    0.875054 0.441559 0.289325 0.132971
H6    H     H_    0.124946 0.558439 0.710676 0.132972
H7    H     H_    0.275527 0.216847 0.388570 0.100812
H8    H     H_    0.724519 0.783200 0.611385 0.100731
H9    H     H_    0.252630 0.799969 0.400448 0.071274
H10   H     H_    0.747293 0.200135 0.599541 0.071309
H11   H     H_    0.454229 0.308843 0.126595 0.155897
H12   H     H_    0.545081 0.691300 0.130604 0.149437
H13   H     H_    0.545771 0.691157 0.873405 0.155946
H14   H     H_    0.157013 0.638336 0.192697 0.141864
H15   H     H_    0.842997 0.361653 0.807299 0.141855
H16   H     H_    0.055164 0.253651 0.233944 0.130666
H17   H     H_    0.944824 0.746344 0.766061 0.130629
H18   H     H_    0.119614 0.215243 0.991540 0.153892
H19   H     H_    0.880373 0.784743 0.008465 0.153893
H20   H     H_    0.203161 0.386505 0.850036 0.129022
N1    N     N_R   0.500030 0.500030 0.852070 -0.238861
N2    N     N_R   0.499970 0.499970 0.147930 -0.238856
O1    O     O_R   0.499990 0.319660 0.618740 -0.499000
O2    O     O_2   0.732458 0.901681 0.770180 -0.479456
O3    O     O_2   0.307680 0.857903 0.214042 -0.464034
O4    O     O_2   0.692423 0.142012 0.785943 -0.463998
O5    O     O_R   0.500010 0.680340 0.381260 -0.498965
O6    O     O_R   0.499990 0.319630 0.381170 -0.511585
O7    O     O_R   0.500010 0.680370 0.618830 -0.511564
O8    O     O_R   0.319650 0.500020 0.618780 -0.517556
O9    O     O_R   0.680350 0.499980 0.381220 -0.517560
O10   O     O_R   0.319640 0.500000 0.381210 -0.490979
O11   O     O_R   0.680360 0.500000 0.618790 -0.490979
O12   O     O_2   0.267429 0.098241 0.229903 -0.479536

loop_
_geom_bond_atom_site_label_1
_geom_bond_atom_site_label_2
_ccdc_geom_bond_type
C2    C35   A    
C22   H20   S    
C2    C4    A    
C31   C33   A    
C14   H14   S    
C21   H19   S    
Cu1   Cu2   S    
C14   C16   A    
C30   O4    D    
C6    H13   S    
C12   O5    A    
C11   C22   A    
C34   C36   A    
Cu2   O5    S    
C3    C35   A    
C2    C30   S    
C1    C4    S    
C5    H11   S    
C23   C32   A    
C25   H5    S    
Cu1   O8    S    
Cu2   O10   S    
C1    O6    A    
Cu1   O1    S    
C9    O8    A    
C26   H6    S    
C26   C31   A    
C27   C34   S    
C10   O11   A    
C26   C32   A    
Cu2   O6    S    
C29   C36   S    
C28   H8    S    
Cu1   N1    S    
C3    C36   A    
C29   H9    S    
Cu2   N2    S    
Cu1   O7    S    
C30   H10   S    
C29   O3    D    
C11   C14   A    
C20   C22   A    
C6    C8    A    
C11   H3    S    
C8    H12   S    
C18   C20   A    
C20   H18   S    
Cu1   O11   S    
C13   C15   A    
C16   C33   S    
C12   O7    A    
C4    C34   A    
Cu2   O9    S    
C27   H7    S    
C9    C31   S    
C17   C19   A    
C10   O9    A    
C15   H15   S    
C23   C25   A    
C1    O1    A    
C9    O10   A    
C28   C35   S    
C16   C18   A    
C21   C24   A    
C19   H17   S    
C5    C7    A    
C17   C32   S    
C18   H16   S    
C13   H4    S    
C10   C23   S    
C7    H1    S    
C3    C12   S    
C5    N2    A    
C24   H2    S    
C15   C17   A    
C6    N1    A    
C8    N2    A    
C27   O12   D    
C7    N1    A    
C13   C24   A    
C25   C33   A    
C19   C21   A    
C28   O2    D    
