data_mof_unit_18675.cif
_audit_creation_date              2012-12-10T17:42:43-0500
_audit_creation_method            fapswitch 2.2
_symmetry_space_group_name_H-M    P1
_symmetry_Int_Tables_number       1
_space_group_crystal_system       triclinic
_cell_length_a                    9.892515
_cell_length_b                    10.726744
_cell_length_c                    13.133737
_cell_angle_alpha                 91.293017
_cell_angle_beta                  69.90225
_cell_angle_gamma                 88.678954
_cell_volume                      1307.7773847

loop_
_atom_site_label
_atom_site_type_symbol
_atom_type_description
_atom_site_fract_x
_atom_site_fract_y
_atom_site_fract_z
_atom_type_partial_charge
C1    C     C_R   0.499147 0.740572 0.495893 0.871615
C2    C     C_R   0.368799 0.483115 0.821479 -0.118263
C3    C     C_R   0.231075 0.897793 0.511239 -0.175417
C4    C     C_R   0.420300 0.493417 0.703863 0.835279
C5    C     C_R   0.100368 0.964810 0.555379 -0.151202
C6    C     C_R   0.095268 0.079106 0.608478 -0.153454
C7    C     C_R   0.222885 0.131932 0.607420 -0.154920
C8    C     C_R   0.357412 0.069640 0.553487 0.102908
C9    C     C_R   0.360140 0.944742 0.519738 0.099038
C10   C     C_R   0.492718 0.874958 0.495218 -0.125820
C11   C     C_R   0.620719 0.934786 0.484869 -0.222141
C12   C     C_R   0.432927 0.475370 0.983587 0.084127
C13   C     C_R   0.620119 0.061691 0.497043 -0.221994
C14   C     C_R   0.489967 0.129675 0.527380 -0.132633
C15   C     C_R   0.791334 0.661709 0.645876 -0.145978
C16   C     C_R   0.496083 0.261395 0.511156 0.874550
C17   C     C_R   0.826879 0.735839 0.720677 -0.204448
C18   C     C_R   0.965922 0.731802 0.722503 -0.190604
C19   C     C_R   0.070677 0.654970 0.648442 -0.183523
C20   C     C_R   0.037822 0.577095 0.573011 0.144279
C21   C     C_R   0.893424 0.578616 0.572294 0.175161
C22   C     C_R   0.961877 0.425067 0.430796 -0.142278
C23   C     C_R   0.463632 0.440894 0.873756 0.088209
C24   C     C_R   0.105206 0.425399 0.430582 -0.111826
C25   C     C_R   0.580088 0.499541 0.295776 0.883287
C26   C     C_R   0.782149 0.376865 0.014159 -0.198709
C27   C     C_R   0.629260 0.483486 0.178583 -0.062717
C28   C     C_R   0.231183 0.531494 0.882812 -0.204710
C29   C     C_R   0.191761 0.546702 0.994571 -0.149012
C30   C     C_R   0.292383 0.522430 0.044686 -0.198216
C31   C     C_R   0.543948 0.460861 0.027743 0.079248
C32   C     C_R   0.674306 0.394678 0.968341 0.179125
C33   C     C_R   0.693424 0.344928 0.865356 -0.250613
C34   C     C_R   0.589107 0.367055 0.818730 -0.197876
C35   C     C_R   0.529498 0.512355 0.129096 -0.259476
C36   C     C_R   0.758378 0.419030 0.120316 -0.207134
H1    H     H_    0.836814 0.396104 0.158256 0.151973
H2    H     H_    0.176800 0.660801 0.650927 0.209783
H3    H     H_    0.789826 0.290222 0.820205 0.140953
H4    H     H_    0.186441 0.364415 0.373930 0.156810
H5    H     H_    0.881624 0.325818 0.969741 0.138849
H6    H     H_    0.437576 0.571598 0.173714 0.148537
H7    H     H_    0.155748 0.561181 0.844132 0.158388
H8    H     H_    0.256128 0.538089 0.131480 0.132329
H9    H     H_    0.084888 0.582696 0.042007 0.148020
H10   H     H_    0.607048 0.324274 0.739596 0.170787
H11   H     H_    0.722954 0.883863 0.464593 0.170416
H12   H     H_    0.228166 0.813190 0.466441 0.174521
H13   H     H_    0.935152 0.363898 0.374369 0.141853
H14   H     H_    0.002618 0.927028 0.549565 0.148712
H15   H     H_    0.993251 0.129031 0.646749 0.132269
H16   H     H_    0.215640 0.221921 0.648264 0.152369
H17   H     H_    0.722314 0.106581 0.479647 0.168991
H18   H     H_    0.683329 0.673759 0.648212 0.206861
H19   H     H_    0.746219 0.797960 0.776738 0.152278
H20   H     H_    0.993832 0.790873 0.779752 0.154901
N1    N     N_R   0.856860 0.501200 0.500990 -0.118765
N2    N     N_R   0.142450 0.501280 0.501020 -0.123881
O1    O     O_R   0.385310 0.683220 0.500000 -0.648904
O2    O     O_R   0.614640 0.683250 0.500010 -0.634756
O3    O     O_R   0.328400 0.499950 0.653610 -0.638656
O4    O     O_R   0.557730 0.499970 0.653620 -0.628954
O5    O     O_R   0.385360 0.316750 0.499990 -0.613283
O6    O     O_R   0.614690 0.316780 0.500000 -0.624022
O7    O     O_R   0.442270 0.500030 0.346380 -0.612577
O8    O     O_R   0.671600 0.500050 0.346390 -0.611528
Zn1   Zn    Zn3+2 0.346880 0.499980 0.499990 0.918428
Zn2   Zn    Zn3+2 0.653120 0.500020 0.500010 0.923433

loop_
_geom_bond_atom_site_label_1
_geom_bond_atom_site_label_2
_ccdc_geom_bond_type
O8    Zn2   S    
C21   N1    A    
C6    C7    A    
C3    C9    A    
C16   O5    A    
O4    Zn2   S    
C6    H15   S    
C25   C27   S    
C2    C28   A    
C9    C10   A    
O3    Zn1   S    
C28   H7    S    
C2    C4    S    
C19   C20   A    
C18   H20   S    
C3    C5    A    
C23   C34   A    
C12   C30   A    
C32   C33   A    
C22   N1    A    
C17   C18   A    
C7    C8    A    
N2    Zn1   S    
C33   H3    S    
C13   C14   A    
C26   C32   A    
C11   C13   A    
C12   C23   A    
C30   H8    S    
C29   C30   A    
C22   H13   S    
C34   H10   S    
O6    Zn2   S    
C31   C35   A    
C26   C36   A    
C28   C29   A    
C24   H4    S    
C7    H16   S    
C33   C34   A    
C13   H17   S    
O1    Zn1   S    
C1    O1    A    
C12   C31   A    
C5    C6    A    
C27   C36   A    
O5    Zn1   S    
C5    H14   S    
C1    O2    A    
C10   C11   A    
C1    C10   S    
N1    Zn2   S    
C20   N2    A    
C15   H18   S    
C4    O4    A    
C3    H12   S    
C15   C21   A    
C19   H2    S    
C25   O7    A    
C20   C21   A    
O2    Zn2   S    
C24   N2    A    
C18   C19   A    
C22   C24   A    
C2    C23   A    
C15   C17   A    
C35   H6    S    
C17   H19   S    
C36   H1    S    
C8    C14   A    
C16   O6    A    
C27   C35   A    
C14   C16   S    
C11   H11   S    
C4    O3    A    
C25   O8    A    
C31   C32   A    
C26   H5    S    
C29   H9    S    
C8    C9    A    
O7    Zn1   S    
