data_mof_unit_46325.cif
_audit_creation_date              2012-12-11T15:26:34-0500
_audit_creation_method            fapswitch 2.2
_symmetry_space_group_name_H-M    P1
_symmetry_Int_Tables_number       1
_space_group_crystal_system       triclinic
_cell_length_a                    7.290365
_cell_length_b                    12.050161
_cell_length_c                    29.026864
_cell_angle_alpha                 89.999951
_cell_angle_beta                  90.000037
_cell_angle_gamma                 89.999972
_cell_volume                      2550.0120923

loop_
_atom_site_label
_atom_site_type_symbol
_atom_type_description
_atom_site_fract_x
_atom_site_fract_y
_atom_site_fract_z
_atom_type_partial_charge
O1    O     O_R   0.647170 0.849180 0.201220 -0.534780
O2    O     O_R   0.352830 0.150820 0.798780 -0.534780
O3    O     O_R   0.352830 0.150820 0.701220 -0.534780
O4    O     O_R   0.647170 0.849180 0.298780 -0.534780
O5    O     O_R   0.147170 0.650820 0.298780 -0.534780
O6    O     O_R   0.852830 0.349180 0.701220 -0.534780
O7    O     O_R   0.852830 0.349180 0.798780 -0.534780
O8    O     O_R   0.147170 0.650820 0.201220 -0.534780
O9    O     O_R   0.317430 0.862210 0.298450 -0.539407
O10   O     O_R   0.682570 0.137790 0.701550 -0.539407
O11   O     O_R   0.682570 0.137790 0.798450 -0.539407
O12   O     O_R   0.317430 0.862210 0.201550 -0.539407
O13   O     O_R   0.817430 0.637790 0.201550 -0.539407
O14   O     O_R   0.182570 0.362210 0.798450 -0.539407
O15   O     O_R   0.182570 0.362210 0.701550 -0.539407
O16   O     O_R   0.817430 0.637790 0.298450 -0.539407
H1    H     H_    0.076413 0.226185 0.453533 0.147292
H2    H     H_    0.923587 0.773814 0.546466 0.147292
H3    H     H_    0.923616 0.773818 0.953533 0.147291
H4    H     H_    0.076384 0.226182 0.046467 0.147291
H5    H     H_    0.576379 0.273819 0.046467 0.147290
H6    H     H_    0.423621 0.726181 0.953533 0.147290
H7    H     H_    0.423590 0.726185 0.546467 0.147291
H8    H     H_    0.576410 0.273815 0.453533 0.147291
C1    C     C_R   0.485924 0.887684 0.313336 0.679967
C2    C     C_R   0.514076 0.112315 0.686664 0.679967
C3    C     C_R   0.514076 0.112315 0.813335 0.679967
C4    C     C_R   0.485924 0.887684 0.186664 0.679967
C5    C     C_R   0.985924 0.612316 0.186664 0.679967
C6    C     C_R   0.014076 0.387684 0.813336 0.679967
C7    C     C_R   0.014076 0.387684 0.686664 0.679967
C8    C     C_R   0.985924 0.612315 0.313336 0.679967
H9    H     H_    0.898692 0.600364 0.690674 0.101567
H10   H     H_    0.101308 0.399636 0.309326 0.101567
H11   H     H_    0.101289 0.399632 0.190674 0.101566
H12   H     H_    0.898711 0.600368 0.809326 0.101566
H13   H     H_    0.398715 0.899631 0.809326 0.101565
H14   H     H_    0.601285 0.100369 0.190674 0.101565
H15   H     H_    0.601305 0.100364 0.309326 0.101567
H16   H     H_    0.398695 0.899636 0.690674 0.101567
H17   H     H_    0.132268 0.269734 0.373925 0.124262
H18   H     H_    0.867732 0.730266 0.626075 0.124262
H19   H     H_    0.867763 0.730271 0.873925 0.124261
H20   H     H_    0.132237 0.269729 0.126075 0.124261
H21   H     H_    0.632231 0.230272 0.126075 0.124261
H22   H     H_    0.367769 0.769727 0.873925 0.124261
H23   H     H_    0.367736 0.769733 0.626075 0.124261
H24   H     H_    0.632264 0.230266 0.373925 0.124261
H25   H     H_    0.110641 0.353358 0.599619 0.129276
H26   H     H_    0.889359 0.646642 0.400381 0.129276
H27   H     H_    0.889368 0.646647 0.099618 0.129275
H28   H     H_    0.110632 0.353353 0.900382 0.129275
H29   H     H_    0.610631 0.146647 0.900382 0.129274
H30   H     H_    0.389369 0.853353 0.099618 0.129274
H31   H     H_    0.389360 0.853357 0.400381 0.129276
H32   H     H_    0.610640 0.146642 0.599619 0.129276
O17   O     O_3   0.480630 0.680630 0.250000 -0.377052
O18   O     O_3   0.519370 0.319370 0.750000 -0.377052
O19   O     O_3   0.980630 0.819370 0.250000 -0.377052
O20   O     O_3   0.019370 0.180630 0.750000 -0.377052
V1    V     V_3+5 0.205800 0.762860 0.250000 1.417322
V2    V     V_3+5 0.794200 0.237140 0.750000 1.417322
V3    V     V_3+5 0.705800 0.737140 0.250000 1.417322
V4    V     V_3+5 0.294200 0.262860 0.750000 1.417322
C9    C     C_R   0.997920 0.533223 0.351492 -0.037350
C10   C     C_R   0.002080 0.466777 0.648508 -0.037350
C11   C     C_R   0.002082 0.466776 0.851492 -0.037347
C12   C     C_R   0.997918 0.533224 0.148508 -0.037347
C13   C     C_R   0.497918 0.966776 0.148508 -0.037347
C14   C     C_R   0.502082 0.033223 0.851492 -0.037347
C15   C     C_R   0.502080 0.033223 0.648508 -0.037349
C16   C     C_R   0.497920 0.966777 0.351492 -0.037349
C17   C     C_R   0.089126 0.354262 0.380732 -0.160008
C18   C     C_R   0.910874 0.645737 0.619268 -0.160008
C19   C     C_R   0.910894 0.645741 0.880731 -0.160007
C20   C     C_R   0.089106 0.354259 0.119269 -0.160007
C21   C     C_R   0.589102 0.145742 0.119268 -0.160006
C22   C     C_R   0.410898 0.854258 0.880731 -0.160006
C23   C     C_R   0.410876 0.854262 0.619268 -0.160008
C24   C     C_R   0.589124 0.145738 0.380732 -0.160008
C25   C     C_R   0.068131 0.427052 0.343886 -0.168670
C26   C     C_R   0.931869 0.572948 0.656114 -0.168670
C27   C     C_R   0.931883 0.572951 0.843885 -0.168671
C28   C     C_R   0.068117 0.427049 0.156114 -0.168671
C29   C     C_R   0.568114 0.072951 0.156114 -0.168672
C30   C     C_R   0.431886 0.927049 0.843885 -0.168672
C31   C     C_R   0.431871 0.927052 0.656114 -0.168670
C32   C     C_R   0.568129 0.072948 0.343886 -0.168670
C33   C     C_R   0.957888 0.567997 0.396401 -0.219202
C34   C     C_R   0.042112 0.432003 0.603599 -0.219202
C35   C     C_R   0.042109 0.432000 0.896401 -0.219200
C36   C     C_R   0.957891 0.567999 0.103599 -0.219200
C37   C     C_R   0.457891 0.932000 0.103599 -0.219199
C38   C     C_R   0.542109 0.068000 0.896401 -0.219199
C39   C     C_R   0.542112 0.067998 0.603599 -0.219201
C40   C     C_R   0.457888 0.932002 0.396401 -0.219201
C41   C     C_R   0.005646 0.501861 0.434876 0.088357
C42   C     C_R   0.994354 0.498139 0.565124 0.088357
C43   C     C_R   0.994356 0.498138 0.934876 0.088357
C44   C     C_R   0.005644 0.501861 0.065124 0.088357
C45   C     C_R   0.505643 0.998139 0.065124 0.088357
C46   C     C_R   0.494357 0.001861 0.934876 0.088357
C47   C     C_R   0.494354 0.001862 0.565124 0.088356
C48   C     C_R   0.505646 0.998138 0.434876 0.088356
C49   C     C_R   0.054541 0.390235 0.425935 0.089668
C50   C     C_R   0.945459 0.609765 0.574065 0.089668
C51   C     C_R   0.945473 0.609767 0.925935 0.089668
C52   C     C_R   0.054527 0.390233 0.074065 0.089668
C53   C     C_R   0.554523 0.109768 0.074065 0.089667
C54   C     C_R   0.445476 0.890232 0.925935 0.089667
C55   C     C_R   0.445461 0.890235 0.574065 0.089668
C56   C     C_R   0.554539 0.109765 0.425935 0.089668
C57   C     C_R   0.998511 0.540420 0.481649 -0.003221
C58   C     C_R   0.001489 0.459580 0.518351 -0.003221
C59   C     C_R   0.001486 0.459580 0.981649 -0.003224
C60   C     C_R   0.998514 0.540420 0.018351 -0.003224
C61   C     C_R   0.498515 0.959580 0.018351 -0.003224
C62   C     C_R   0.501485 0.040420 0.981649 -0.003224
C63   C     C_R   0.501489 0.040420 0.518351 -0.003221
C64   C     C_R   0.498511 0.959580 0.481649 -0.003221
C65   C     C_R   0.009107 0.344121 0.506341 0.154116
C66   C     C_R   0.990893 0.655879 0.493659 0.154116
C67   C     C_R   0.990908 0.655880 0.006340 0.154117
C68   C     C_R   0.009092 0.344120 0.993660 0.154117
C69   C     C_R   0.509090 0.155880 0.993659 0.154115
C70   C     C_R   0.490910 0.844120 0.006341 0.154115
C71   C     C_R   0.490894 0.844121 0.493659 0.154115
C72   C     C_R   0.509106 0.155879 0.506340 0.154115
C73   C     C_R   0.055331 0.313320 0.461495 -0.214967
C74   C     C_R   0.944669 0.686680 0.538505 -0.214967
C75   C     C_R   0.944689 0.686682 0.961494 -0.214964
C76   C     C_R   0.055311 0.313318 0.038506 -0.214964
C77   C     C_R   0.555307 0.186682 0.038505 -0.214964
C78   C     C_R   0.444693 0.813317 0.961495 -0.214964
C79   C     C_R   0.444671 0.813320 0.538505 -0.214967
C80   C     C_R   0.555329 0.186680 0.461495 -0.214967
C81   C     C_3   0.951333 0.249159 0.537259 -0.796454
H33   H     H_    0.869411 0.188304 0.517439 0.224580
H34   H     H_    0.071482 0.203252 0.550336 0.210585
H35   H     H_    0.863894 0.275979 0.566236 0.204255
C82   C     C_3   0.048667 0.750841 0.462741 -0.796454
H36   H     H_    0.130588 0.811696 0.482561 0.224580
H37   H     H_    0.136106 0.724021 0.433764 0.204255
H38   H     H_    0.928518 0.796747 0.449663 0.210585
C83   C     C_3   0.048688 0.750840 0.037259 -0.796451
H39   H     H_    0.130612 0.811694 0.017439 0.224580
H40   H     H_    0.928541 0.796749 0.050337 0.210583
H41   H     H_    0.136126 0.724018 0.066236 0.204254
C84   C     C_3   0.951312 0.249160 0.962741 -0.796451
H42   H     H_    0.869388 0.188306 0.982561 0.224580
H43   H     H_    0.863874 0.275982 0.933764 0.204254
H44   H     H_    0.071459 0.203251 0.949663 0.210583
C85   C     C_3   0.451311 0.250840 0.962740 -0.796449
H45   H     H_    0.369392 0.311696 0.982560 0.224579
H46   H     H_    0.571460 0.296746 0.949661 0.210581
H47   H     H_    0.363869 0.224017 0.933764 0.204254
C86   C     C_3   0.548689 0.749160 0.037260 -0.796449
H48   H     H_    0.630608 0.688304 0.017440 0.224579
H49   H     H_    0.636131 0.775983 0.066236 0.204254
H50   H     H_    0.428540 0.703254 0.050339 0.210581
C87   C     C_3   0.548667 0.749159 0.462741 -0.796453
H51   H     H_    0.630586 0.688303 0.482561 0.224579
H52   H     H_    0.428517 0.703254 0.449663 0.210584
H53   H     H_    0.636108 0.775979 0.433764 0.204255
C88   C     C_3   0.451333 0.250841 0.537259 -0.796453
H54   H     H_    0.369414 0.311697 0.517439 0.224579
H55   H     H_    0.363892 0.224021 0.566236 0.204255
H56   H     H_    0.571483 0.296746 0.550337 0.210584

loop_
_geom_bond_atom_site_label_1
_geom_bond_atom_site_label_2
_ccdc_geom_bond_type
C7    C10   S    
C68   C84   S    
C11   C27   A    
C86   H48   S    
C60   C67   A    
H32   C39   S    
C71   C87   S    
C4    C13   S    
C44   C60   A    
H23   C23   S    
H25   C34   S    
O11   V2    S    
C19   C27   A    
C20   C28   A    
C23   C31   A    
C87   H51   S    
C64   C71   A    
O9    C1    A    
C10   C34   A    
O3    V4    S    
C9    C33   A    
C81   H34   S    
O4    V3    S    
C88   H54   S    
H6    C78   S    
O9    V1    S    
O8    C5    A    
H16   C31   S    
O13   C5    A    
C14   C38   A    
C71   C79   A    
C13   C37   A    
C84   H43   S    
C43   C59   A    
C42   C58   A    
C84   H42   S    
C15   C39   A    
H12   C27   S    
C45   C53   A    
C59   C60   A    
C68   C76   A    
O20   V2    S    
O19   V1    S    
C65   C81   S    
H20   C20   S    
H30   C37   S    
C16   C32   A    
C58   C65   A    
C9    C25   A    
H5    C77   S    
C57   C66   A    
C67   C83   S    
O2    V4    S    
C39   C47   A    
O1    C4    A    
O15   V4    S    
O2    C3    A    
O16   V3    S    
C85   H46   S    
C61   C70   A    
C6    C11   S    
C46   C62   A    
O8    V1    S    
O5    C8    A    
C41   C49   A    
C63   C72   A    
H8    C80   S    
O6    C7    A    
C21   C29   A    
C20   C52   A    
O7    C6    A    
H3    C75   S    
C2    C15   S    
C88   H55   S    
O10   V2    S    
H15   C32   S    
H4    C76   S    
O1    V3    S    
C17   C25   A    
C87   H52   S    
C69   C85   S    
O17   V3    S    
H19   C19   S    
C81   H35   S    
C44   C52   A    
H18   C18   S    
C83   H40   S    
H14   C29   S    
C53   C77   A    
C12   C28   A    
C19   C51   A    
C51   C75   A    
C82   H38   S    
C37   C45   A    
H22   C22   S    
C49   C73   A    
O18   V4    S    
O14   C6    A    
H1    C73   S    
C33   C41   A    
C82   H37   S    
O7    V2    S    
H27   C36   S    
C18   C50   A    
C5    C12   S    
H13   C30   S    
H26   C33   S    
C17   C49   A    
O13   V3    S    
O11   C3    A    
H11   C28   S    
O14   V4    S    
C24   C56   A    
C11   C35   A    
O10   C2    A    
O5    V1    S    
C22   C54   A    
C1    C16   S    
C85   H47   S    
C21   C53   A    
C38   C46   A    
C3    C14   S    
C15   C31   A    
C62   C69   A    
O12   C4    A    
C88   H56   S    
C40   C48   A    
C72   C88   S    
C84   H44   S    
C41   C57   A    
C14   C30   A    
O4    C1    A    
C83   H39   S    
C87   H53   S    
C13   C29   A    
C83   H41   S    
C36   C44   A    
C48   C56   A    
C57   C58   A    
H9    C26   S    
C70   C86   S    
C69   C77   A    
C50   C74   A    
C54   C78   A    
C59   C68   A    
C67   C75   A    
H29   C38   S    
O3    C2    A    
C47   C63   A    
C65   C73   A    
H31   C40   S    
C63   C64   A    
O15   C7    A    
C47   C55   A    
H7    C79   S    
C86   H50   S    
O16   C8    A    
C43   C51   A    
C81   H33   S    
C42   C50   A    
H2    C74   S    
C23   C55   A    
O6    V2    S    
C45   C61   A    
H24   C24   S    
C72   C80   A    
C56   C80   A    
C24   C32   A    
C82   H36   S    
O12   V1    S    
C55   C79   A    
C12   C36   A    
C34   C42   A    
C52   C76   A    
C46   C54   A    
H17   C17   S    
C16   C40   A    
C70   C78   A    
C86   H49   S    
C22   C30   A    
H28   C35   S    
H21   C21   S    
C66   C82   S    
C35   C43   A    
C85   H45   S    
C61   C62   A    
C66   C74   A    
H10   C25   S    
C18   C26   A    
C10   C26   A    
C8    C9    S    
C48   C64   A    
