data_mof_unit_12866.cif
_audit_creation_date              2012-12-10T20:36:40-0500
_audit_creation_method            fapswitch 2.2
_symmetry_space_group_name_H-M    P1
_symmetry_Int_Tables_number       1
_space_group_crystal_system       triclinic
_cell_length_a                    10.503247
_cell_length_b                    10.708226
_cell_length_c                    9.887235
_cell_angle_alpha                 89.837588
_cell_angle_beta                  88.952898
_cell_angle_gamma                 89.927789
_cell_volume                      1111.83764089

loop_
_atom_site_label
_atom_site_type_symbol
_atom_type_description
_atom_site_fract_x
_atom_site_fract_y
_atom_site_fract_z
_atom_type_partial_charge
C1    C     C_R   0.489183 0.260800 0.500096 0.889004
C2    C     C_R   0.523955 0.938085 0.615718 0.000773
C3    C     C_3   0.465962 0.921989 0.753913 -0.424324
C4    C     C_R   0.257243 0.500389 0.501016 0.895015
C5    C     C_3   0.444277 0.062108 0.753917 0.361341
C6    C     C_R   0.400512 0.449342 0.073701 0.099663
C7    C     C_R   0.603224 0.539355 0.069717 -0.117213
C8    C     C_R   0.603309 0.539173 0.926008 -0.114584
C9    C     C_R   0.399683 0.451113 0.931077 0.197311
C10   C     C_3   0.265052 0.496338 0.929678 0.108362
C11   C     C_3   0.265278 0.492264 0.083507 0.145082
C12   C     C_3   0.963042 0.490679 0.369643 -0.092365
C13   C     C_R   0.500086 0.739836 0.499693 0.895169
C14   C     C_R   0.742589 0.499444 0.498730 0.867645
C15   C     C_3   0.036013 0.508882 0.628088 -0.103948
C16   C     C_3   0.955851 0.401552 0.570642 -0.187948
C17   C     C_3   0.877527 0.499173 0.496119 -0.021534
C18   C     C_3   0.955199 0.606408 0.553253 -0.193679
C19   C     C_3   0.043614 0.597945 0.427203 -0.166873
C20   C     C_3   0.044253 0.393093 0.444556 -0.107109
C21   C     C_3   0.122015 0.500371 0.502209 0.028030
C22   C     C_R   0.509122 0.064941 0.617030 -0.063923
C23   C     C_R   0.475952 0.128613 0.499843 -0.146026
C24   C     C_R   0.452844 0.062421 0.378996 0.451377
C25   C     C_R   0.470790 0.934846 0.378018 -0.198553
C26   C     C_R   0.500496 0.872091 0.497859 -0.131646
H1    H     H_    0.915754 0.321453 0.628801 0.154503
H2    H     H_    0.084118 0.677919 0.369156 0.149526
H3    H     H_    0.929068 0.483261 0.264287 0.167126
H4    H     H_    0.085362 0.306127 0.401046 0.167962
H5    H     H_    0.451498 0.884413 0.285725 0.191774
H6    H     H_    0.377764 0.864539 0.754150 0.272039
H7    H     H_    0.118256 0.055294 0.625985 0.373143
H8    H     H_    0.168519 0.646425 0.897572 0.332455
H9    H     H_    0.203126 0.319166 0.096156 0.358882
H10   H     H_    0.346494 0.183775 0.290808 0.350768
H11   H     H_    0.537614 0.891520 0.828557 0.163647
H12   H     H_    0.498512 0.112275 0.832481 0.084190
H13   H     H_    0.685421 0.574246 0.121922 0.147065
H14   H     H_    0.685640 0.573939 0.870570 0.146961
H15   H     H_    0.199222 0.429391 0.881728 0.166621
H16   H     H_    0.253574 0.584609 0.133518 0.175641
H17   H     H_    0.065125 0.517674 0.734200 0.153827
H18   H     H_    0.914340 0.693251 0.597297 0.147418
N1    N     N_R   0.499140 0.499140 0.142800 -0.113844
N2    N     N_R   0.499140 0.499180 0.857150 -0.080936
O1    O     O_R   0.500020 0.316790 0.614690 -0.596596
O2    O     O_2   0.262017 0.238842 0.727114 -0.352906
O3    O     O_3   0.206138 0.021646 0.627873 -0.570538
O4    O     O_3   0.257335 0.618690 0.879489 -0.744220
O5    O     O_3   0.183030 0.400954 0.138812 -0.773999
O6    O     O_3   0.407233 0.117262 0.263148 -0.739682
O7    O     O_R   0.500000 0.316760 0.385350 -0.602930
O8    O     O_R   0.313960 0.499990 0.614650 -0.567239
O9    O     O_R   0.313940 0.499950 0.385310 -0.614558
O10   O     O_R   0.500000 0.683240 0.614650 -0.595961
O11   O     O_R   0.499980 0.683210 0.385310 -0.639390
O12   O     O_R   0.686060 0.500050 0.614690 -0.635848
O13   O     O_R   0.686040 0.500010 0.385350 -0.632281
O14   O     O_2   0.217601 0.067458 0.885636 -0.288181
S1    S     S_3+6 0.277858 0.101318 0.751503 -0.005982
Zn1   Zn    Zn3+2 0.500010 0.500020 0.653130 1.012107
Zn2   Zn    Zn3+2 0.499990 0.499980 0.346870 0.970391

loop_
_geom_bond_atom_site_label_1
_geom_bond_atom_site_label_2
_ccdc_geom_bond_type
C12   C17   S    
O12   Zn1   S    
C15   C18   S    
C23   C24   A    
C24   O6    S    
C4    C21   S    
C6    N1    A    
C18   H18   S    
C12   H3    S    
O8    Zn1   S    
C9    C10   S    
O13   Zn2   S    
H10   O6    S    
C15   C21   S    
C16   C20   S    
C13   O10   A    
C4    O8    A    
C12   C20   S    
O1    Zn1   S    
C2    C3    S    
C15   H17   S    
C9    N2    A    
C2    C26   A    
C20   H4    S    
C5    H12   S    
C24   C25   A    
C10   H15   S    
C19   H2    S    
O7    Zn2   S    
C14   C17   S    
O2    S1    D    
C11   O5    S    
N2    Zn1   S    
C7    N1    A    
C12   C19   S    
C16   H1    S    
C2    C22   A    
C19   C21   S    
O11   Zn2   S    
C1    C23   S    
O10   Zn1   S    
C4    O9    A    
H9    O5    S    
C3    H6    S    
C14   O12   A    
C8    N2    A    
C13   C26   S    
H8    O4    S    
C13   O11   A    
C10   C11   S    
H7    O3    S    
C15   C16   S    
C10   O4    S    
C7    C8    A    
C6    C9    A    
O3    S1    S    
C20   C21   S    
C3    H11   S    
C11   H16   S    
C17   C18   S    
C18   C19   S    
C6    C11   S    
C1    O7    A    
C22   C23   A    
C1    O1    A    
C7    H13   S    
C8    H14   S    
C14   O13   A    
C25   C26   A    
C25   H5    S    
N1    Zn2   S    
C5    C22   S    
C5    S1    S    
C16   C17   S    
O14   S1    D    
C3    C5    S    
O9    Zn2   S    
