data_mof_unit_52818.cif
_audit_creation_date              2012-12-11T14:03:54-0500
_audit_creation_method            fapswitch 2.2
_symmetry_space_group_name_H-M    P1
_symmetry_Int_Tables_number       1
_space_group_crystal_system       triclinic
_cell_length_a                    19.02455
_cell_length_b                    11.020628
_cell_length_c                    18.751747
_cell_angle_alpha                 90.374141
_cell_angle_beta                  90.008542
_cell_angle_gamma                 90.010635
_cell_volume                      3931.4540044

loop_
_atom_site_label
_atom_site_type_symbol
_atom_type_description
_atom_site_fract_x
_atom_site_fract_y
_atom_site_fract_z
_atom_type_partial_charge
C1    C     C_R   0.239755 0.466748 0.646832 0.599621
C2    C     C_R   0.760901 0.468372 0.353908 0.594202
C3    C     C_R   0.739755 0.966750 0.646832 0.599749
C4    C     C_R   0.260903 0.968378 0.353911 0.595671
C5    C     C_2   0.291515 0.848155 0.538429 -0.060298
C6    C     C_2   0.714969 0.834343 0.464151 -0.085330
C7    C     C_2   0.791504 0.348128 0.538423 -0.060028
C8    C     C_2   0.214973 0.334330 0.464156 -0.086174
C9    C     C_R   0.009991 0.668925 0.423567 0.049087
C10   C     C_R   0.994796 0.659319 0.573470 0.031479
C11   C     C_R   0.510017 0.168933 0.423549 0.049016
C12   C     C_R   0.494824 0.159316 0.573453 0.030989
C13   C     C_R   0.006506 0.893791 0.431660 0.453140
C14   C     C_R   0.969326 0.877904 0.575591 0.458054
C15   C     C_R   0.506526 0.393794 0.431643 0.453089
C16   C     C_R   0.469341 0.377901 0.575574 0.459023
C17   C     C_R   0.987683 0.997576 0.469975 -0.103611
C18   C     C_R   0.967266 0.988885 0.540974 -0.063364
C19   C     C_R   0.487698 0.497576 0.469958 -0.103934
C20   C     C_R   0.467277 0.488883 0.540956 -0.063328
C21   C     C_R   0.989701 0.771879 0.538382 -0.050246
C22   C     C_R   0.002269 0.778112 0.463678 -0.038933
C23   C     C_R   0.489725 0.271878 0.538367 -0.051792
C24   C     C_R   0.502294 0.278116 0.463662 -0.038890
C25   C     C_R   0.997971 0.552023 0.531448 -0.046086
C26   C     C_R   0.021061 0.559910 0.460510 -0.042875
C27   C     C_R   0.498016 0.052021 0.531426 -0.046805
C28   C     C_R   0.521103 0.059921 0.460487 -0.042553
C29   C     C_R   0.981587 0.435941 0.558535 0.452039
C30   C     C_R   0.047206 0.454663 0.426136 0.411908
C31   C     C_R   0.481632 0.935932 0.558503 0.452611
C32   C     C_R   0.547244 0.954683 0.426100 0.411413
C33   C     C_R   0.001865 0.331948 0.521303 -0.001291
C34   C     C_R   0.037471 0.341310 0.456757 -0.045351
C35   C     C_R   0.501900 0.831946 0.521257 -0.001180
C36   C     C_R   0.537503 0.841321 0.456709 -0.045247
C37   C     C_2   0.238945 0.898462 0.928350 0.344642
C38   C     C_2   0.742789 0.930105 0.085107 0.316621
C39   C     C_2   0.738958 0.399362 0.928206 0.395697
C40   C     C_2   0.260606 0.397812 0.071853 0.342892
C41   C     C_2   0.247383 0.892847 0.086319 -0.018580
C42   C     C_2   0.744985 0.940701 0.927270 -0.042345
C43   C     C_2   0.747509 0.392974 0.086212 -0.033253
C44   C     C_2   0.252615 0.394284 0.913524 -0.021156
C45   C     C_R   0.227662 0.875272 0.648286 0.559711
C46   C     C_R   0.772580 0.874469 0.352320 0.560821
C47   C     C_R   0.727661 0.375269 0.648286 0.555727
C48   C     C_R   0.272583 0.374463 0.352323 0.566763
C49   C     C_2   0.188178 0.906985 0.049178 0.364999
C50   C     C_2   0.768447 0.027665 0.972540 0.353634
C51   C     C_2   0.688270 0.406977 0.049129 0.366608
C52   C     C_2   0.311506 0.409785 0.951119 0.367811
C53   C     C_2   0.185665 0.876104 0.973878 -0.082786
C54   C     C_2   0.783480 0.002409 0.046431 -0.093288
C55   C     C_2   0.685769 0.376527 0.973781 -0.044883
C56   C     C_2   0.314168 0.378046 0.026075 -0.080908
C57   C     C_2   0.990121 0.665057 0.916432 -0.098995
C58   C     C_2   0.989081 0.655096 0.073459 -0.080572
C59   C     C_2   0.512186 0.156413 0.927142 -0.088787
C60   C     C_2   0.510747 0.164315 0.084254 -0.095973
C61   C     C_2   0.960645 0.571174 0.029598 -0.113424
C62   C     C_2   0.974867 0.565929 0.953708 -0.087313
C63   C     C_2   0.525584 0.065493 0.045939 -0.098582
C64   C     C_2   0.540367 0.071884 0.970223 -0.126083
C65   C     C_R   0.027308 0.654167 0.645804 0.621747
C66   C     C_R   0.973560 0.656295 0.353409 0.624660
C67   C     C_R   0.527314 0.154166 0.645799 0.623874
C68   C     C_R   0.473565 0.156297 0.353404 0.621365
C69   C     C_R   0.239596 0.463061 0.849245 0.567302
C70   C     C_R   0.760416 0.462611 0.150704 0.559967
C71   C     C_R   0.737755 0.971492 0.852831 0.558479
C72   C     C_R   0.260393 0.962597 0.150732 0.566553
C73   C     C_R   0.226384 0.871539 0.854053 0.588398
C74   C     C_R   0.771273 0.875560 0.148682 0.573179
C75   C     C_R   0.726446 0.371826 0.853959 0.597492
C76   C     C_R   0.273592 0.371055 0.145959 0.589486
C77   C     C_R   0.027966 0.653009 0.849794 0.560879
C78   C     C_R   0.968480 0.651406 0.147701 0.577800
C79   C     C_R   0.531931 0.151849 0.852592 0.573054
C80   C     C_R   0.472197 0.152636 0.150393 0.565773
C81   C     C_2   0.250906 0.919507 0.579567 -0.067753
C82   C     C_2   0.750046 0.913673 0.422726 -0.061139
C83   C     C_2   0.750902 0.419494 0.579562 -0.067622
C84   C     C_2   0.250052 0.413659 0.422733 -0.061460
C85   C     C_2   0.247634 0.909904 0.421866 0.371419
C86   C     C_2   0.755476 0.906794 0.579655 0.383840
C87   C     C_2   0.747628 0.409890 0.421860 0.370532
C88   C     C_2   0.255480 0.406777 0.579660 0.384671
C89   C     C_2   0.301542 0.873197 0.463010 0.320729
C90   C     C_2   0.704915 0.854970 0.540442 0.317936
C91   C     C_2   0.801532 0.373165 0.463003 0.320542
C92   C     C_2   0.204918 0.354957 0.540446 0.318242
Cr1   Cr    Cr6+3 0.113970 0.508630 0.747920 1.121270
Cr2   Cr    Cr6+3 0.886030 0.508630 0.252080 1.116450
Cr3   Cr    Cr6+3 0.613970 0.008630 0.747920 1.129280
Cr4   Cr    Cr6+3 0.386030 0.008630 0.252080 1.123091
Cr5   Cr    Cr6+3 0.269200 0.666740 0.749850 1.149562
Cr6   Cr    Cr6+3 0.730800 0.666740 0.250150 1.159431
Cr7   Cr    Cr6+3 0.769200 0.166740 0.749850 1.141698
Cr8   Cr    Cr6+3 0.230800 0.166740 0.250150 1.149770
Cr9   Cr    Cr6+3 0.112300 0.820070 0.749800 1.102701
Cr10  Cr    Cr6+3 0.887700 0.820070 0.250200 1.122619
Cr11  Cr    Cr6+3 0.612300 0.320070 0.749800 1.123552
Cr12  Cr    Cr6+3 0.387700 0.320070 0.250200 1.125798
H1    H     H_    0.317390 0.768260 0.559676 0.174500
H2    H     H_    0.694018 0.750190 0.442386 0.165363
H3    H     H_    0.817372 0.268227 0.559670 0.174510
H4    H     H_    0.194019 0.250181 0.442389 0.165185
H5    H     H_    0.992217 0.244388 0.543986 0.131616
H6    H     H_    0.056414 0.260781 0.429694 0.146873
H7    H     H_    0.492242 0.744379 0.543927 0.132297
H8    H     H_    0.556433 0.760796 0.429633 0.147004
O1    O     O_R   0.043230 0.549300 0.667990 -0.442925
O2    O     O_R   0.956770 0.549300 0.332010 -0.438216
O3    O     O_R   0.543230 0.049300 0.667990 -0.441424
O4    O     O_R   0.456770 0.049300 0.332010 -0.439570
O5    O     O_R   0.262920 0.788600 0.824420 -0.466872
O6    O     O_R   0.737080 0.788600 0.175580 -0.436273
O7    O     O_R   0.762920 0.288600 0.824420 -0.433946
O8    O     O_R   0.237080 0.288600 0.175580 -0.465836
O9    O     O_R   0.167530 0.905110 0.830340 -0.539453
O10   O     O_R   0.832470 0.905110 0.169660 -0.552438
O11   O     O_R   0.667530 0.405110 0.830340 -0.544656
O12   O     O_R   0.332470 0.405110 0.169660 -0.534469
O13   O     O_R   0.054010 0.748440 0.822860 -0.494752
O14   O     O_R   0.945990 0.748440 0.177140 -0.472567
O15   O     O_R   0.554010 0.248440 0.822860 -0.478323
O16   O     O_R   0.445990 0.248440 0.177140 -0.484817
O17   O     O_3   0.165160 0.665150 0.749190 -0.318182
O18   O     O_3   0.834840 0.665150 0.250810 -0.319980
O19   O     O_3   0.665160 0.165150 0.749190 -0.322218
O20   O     O_3   0.334840 0.165150 0.250810 -0.321881
O21   O     O_R   0.178620 0.457600 0.674100 -0.477355
O22   O     O_R   0.821380 0.457600 0.325900 -0.474776
O23   O     O_R   0.678620 0.957600 0.674100 -0.475087
O24   O     O_R   0.321380 0.957600 0.325900 -0.474145
O25   O     O_R   0.284680 0.542100 0.669460 -0.465763
O26   O     O_R   0.715320 0.542100 0.330540 -0.468946
O27   O     O_R   0.784680 0.042100 0.669460 -0.469913
O28   O     O_R   0.215320 0.042100 0.330540 -0.468308
O29   O     O_R   0.262860 0.790390 0.676650 -0.493244
O30   O     O_R   0.737140 0.790390 0.323350 -0.493180
O31   O     O_R   0.762860 0.290390 0.676650 -0.497612
O32   O     O_R   0.237140 0.290390 0.323350 -0.489745
O33   O     O_R   0.167460 0.907030 0.670940 -0.488559
O34   O     O_R   0.832540 0.907030 0.329060 -0.493148
O35   O     O_R   0.667460 0.407030 0.670940 -0.488659
O36   O     O_R   0.332540 0.407030 0.329060 -0.489859
O37   O     O_R   0.053950 0.750220 0.675100 -0.457120
O38   O     O_R   0.946050 0.750220 0.324900 -0.453366
O39   O     O_R   0.553950 0.250220 0.675100 -0.455720
O40   O     O_R   0.446050 0.250220 0.324900 -0.454245
O41   O     O_R   0.043300 0.547370 0.827390 -0.493414
O42   O     O_R   0.956700 0.547370 0.172610 -0.491537
O43   O     O_R   0.543300 0.047370 0.827390 -0.489328
O44   O     O_R   0.456700 0.047370 0.172610 -0.491430
O45   O     O_R   0.178690 0.455820 0.821860 -0.516938
O46   O     O_R   0.821310 0.455820 0.178140 -0.531636
O47   O     O_R   0.678690 0.955820 0.821860 -0.513133
O48   O     O_R   0.321310 0.955820 0.178140 -0.517096
O49   O     O_R   0.284750 0.540170 0.828860 -0.417892
O50   O     O_R   0.715250 0.540170 0.171140 -0.408016
O51   O     O_R   0.784750 0.040170 0.828860 -0.433345
O52   O     O_R   0.215250 0.040170 0.171140 -0.419564
F1    F     F_    0.367672 0.860471 0.436513 -0.656056
F2    F     F_    0.643730 0.818429 0.570740 -0.660399
F3    F     F_    0.867660 0.360416 0.436504 -0.656469
F4    F     F_    0.143726 0.318435 0.570741 -0.660838
H9    H     H_    0.135271 0.843783 0.953935 0.110501
H10   H     H_    0.832524 0.038415 0.067452 0.138016
H11   H     H_    0.635467 0.343764 0.953883 0.108837
H12   H     H_    0.364945 0.347407 0.045680 0.116670
H13   H     H_    0.291129 0.841937 0.063865 0.134373
H14   H     H_    0.730165 0.850716 0.945045 0.127239
H15   H     H_    0.791340 0.342399 0.063651 0.141797
H16   H     H_    0.209118 0.342443 0.935352 0.132574
F5    F     F_    0.302417 0.942700 0.949543 -0.645346
F6    F     F_    0.678196 0.894451 0.061543 -0.643077
F7    F     F_    0.802393 0.443754 0.949380 -0.656870
F8    F     F_    0.196570 0.439679 0.051113 -0.645470
H17   H     H_    0.928420 0.497991 0.050408 0.191885
H18   H     H_    0.977274 0.476138 0.929535 0.199103
H19   H     H_    0.522166 0.975439 0.068944 0.214137
H20   H     H_    0.572349 0.998530 0.948718 0.195018
H21   H     H_    0.021032 0.729611 0.054169 0.133979
H22   H     H_    0.984059 0.755146 0.939513 0.114294
H23   H     H_    0.517733 0.254498 0.062232 0.148649
H24   H     H_    0.480513 0.231158 0.947138 0.137200
F9    F     F_    0.180518 0.910046 0.447228 -0.652920
F10   F     F_    0.820742 0.922748 0.551997 -0.676392
F11   F     F_    0.680512 0.410047 0.447222 -0.653261
F12   F     F_    0.320748 0.422716 0.552007 -0.676248
H25   H     H_    0.226771 0.001118 0.558431 0.158795
H26   H     H_    0.769891 0.999046 0.443854 0.153566
H27   H     H_    0.726773 0.501109 0.558426 0.159012
H28   H     H_    0.269900 0.499027 0.443864 0.153773
H29   H     H_    0.987731 0.084714 0.443985 0.142873
H30   H     H_    0.948322 0.067498 0.569674 0.166657
H31   H     H_    0.487743 0.584714 0.443967 0.143259
H32   H     H_    0.448328 0.567494 0.569654 0.167991
F13   F     F_    0.032630 0.907929 0.364840 -0.568719
F14   F     F_    0.944322 0.872925 0.643370 -0.583535
F15   F     F_    0.532645 0.407930 0.364821 -0.569155
F16   F     F_    0.444331 0.372920 0.643351 -0.574603
F17   F     F_    0.081349 0.461926 0.362665 -0.610817
F18   F     F_    0.943813 0.423008 0.619507 -0.610633
F19   F     F_    0.581373 0.961960 0.362622 -0.614087
F20   F     F_    0.443852 0.922981 0.619469 -0.606832
F21   F     F_    0.129613 0.957074 0.078914 -0.592521
F22   F     F_    0.787020 0.139816 0.949246 -0.621349
F23   F     F_    0.629621 0.456514 0.079006 -0.585815
F24   F     F_    0.369800 0.461409 0.922114 -0.583199

loop_
_geom_bond_atom_site_label_1
_geom_bond_atom_site_label_2
_ccdc_geom_bond_type
C47   C83   S    
C7    C83   D    
C6    C82   D    
C87   C91   D    
C14   C18   A    
C35   C36   A    
C42   C50   D    
C54   H10   S    
Cr11  O11   S    
Cr2   O2    S    
C35   H7    S    
C57   C62   D    
C46   O30   A    
C5    H1    S    
C86   C90   D    
C15   C19   A    
C12   C23   A    
Cr9   O33   S    
C59   C64   D    
C2    O22   A    
C71   O51   A    
Cr6   O26   S    
C60   C63   D    
C75   O11   A    
C32   C36   A    
C14   C21   A    
C91   F3    S    
C69   O49   A    
C66   O38   A    
Cr1   O21   S    
C38   F6    S    
C1    O21   A    
C9    C22   A    
C62   H18   S    
Cr7   O51   S    
C85   F9    S    
C76   O8    A    
C29   C33   A    
C11   C24   A    
C48   O32   A    
C17   C18   A    
Cr5   O25   S    
Cr12  O36   S    
C9    C66   S    
C20   H32   S    
C67   O3    A    
Cr8   O28   S    
C77   O41   A    
C46   C82   S    
C43   H15   S    
C41   C49   D    
C39   C55   D    
C88   C92   D    
Cr3   O3    S    
C40   C56   D    
C38   C54   D    
C36   H8    S    
Cr9   O13   S    
C23   C24   A    
C80   O44   A    
C48   O36   A    
C8    C92   S    
C39   C75   S    
Cr5   O17   S    
Cr11  O15   S    
C3    O23   A    
C53   H9    S    
C4    O24   A    
C37   C53   D    
C16   C23   A    
C44   C52   D    
C1    C88   S    
C37   F5    S    
Cr2   O46   S    
C40   F8    S    
C21   C22   A    
C56   H12   S    
C3    C86   S    
Cr3   O19   S    
Cr7   O27   S    
Cr1   O17   S    
C70   O50   A    
C77   O13   A    
C55   H11   S    
Cr6   O50   S    
C9    C26   A    
Cr6   O6    S    
C68   O4    A    
C10   C21   A    
C25   C29   A    
C74   O6    A    
C12   C67   S    
C47   O35   A    
C86   F10   S    
C73   O5    A    
C30   C34   A    
C12   C27   A    
C27   C31   A    
C76   O12   A    
C57   C77   S    
C59   H24   S    
C63   H19   S    
C17   H29   S    
Cr4   O24   S    
Cr8   O32   S    
C59   C79   S    
C61   H17   S    
C83   H27   S    
C85   C89   D    
C78   O42   A    
Cr1   O1    S    
C4    C85   S    
C80   O16   A    
C8    H4    S    
C25   C26   A    
C6    C90   S    
C30   F17   S    
C67   O39   A    
Cr7   O19   S    
Cr9   O9    S    
C29   F18   S    
C48   C84   S    
C70   O46   A    
C2    O26   A    
C18   H30   S    
C68   O40   A    
C4    O28   A    
C5    C81   D    
C92   F4    S    
C69   O45   A    
Cr12  O16   S    
C28   C32   A    
C16   C20   A    
C7    C91   S    
Cr6   O18   S    
Cr3   O23   S    
C33   C34   A    
C72   O52   A    
C75   O7    A    
C2    C87   S    
Cr8   O52   S    
Cr2   O18   S    
Cr6   O30   S    
C32   F19   S    
Cr1   O45   S    
C6    H2    S    
Cr5   O29   S    
C57   H22   S    
Cr10  O10   S    
C45   O29   A    
C41   C72   S    
Cr8   O8    S    
C10   C25   A    
C15   C24   A    
Cr4   O48   S    
Cr10  O38   S    
C26   C30   A    
C60   H23   S    
C73   O9    A    
C42   H14   S    
C34   H6    S    
C45   O33   A    
C33   H5    S    
C41   H13   S    
Cr4   O44   S    
C78   O14   A    
C1    O25   A    
C11   C68   S    
C87   F11   S    
C38   C74   S    
C10   C65   S    
Cr7   O31   S    
C88   F12   S    
C37   C73   S    
C60   C80   S    
Cr3   O47   S    
C66   O2    A    
C74   O10   A    
C8    C84   D    
C65   O1    A    
C45   C81   S    
C44   H16   S    
C47   O31   A    
Cr10  O14   S    
C39   F7    S    
Cr8   O20   S    
Cr12  O12   S    
Cr11  O39   S    
C43   C70   S    
Cr7   O7    S    
C71   O47   A    
C19   H31   S    
C72   O48   A    
C13   C17   A    
C84   H28   S    
C7    H3    S    
Cr12  O40   S    
C19   C20   A    
Cr1   O41   S    
C79   O15   A    
C31   F20   S    
C50   C54   S    
C79   O43   A    
Cr4   O20   S    
Cr10  O34   S    
Cr2   O42   S    
C43   C51   D    
C46   O34   A    
C11   C28   A    
C58   C61   D    
C49   C53   S    
C14   F14   S    
C31   C35   A    
Cr9   O37   S    
C42   C71   S    
Cr2   O22   S    
C13   F13   S    
C13   C22   A    
C51   C55   S    
Cr3   O43   S    
Cr5   O5    S    
C61   C62   S    
C5    C89   S    
C82   H26   S    
C58   C78   S    
C81   H25   S    
C63   C64   S    
C64   H20   S    
C51   F23   S    
C3    O27   A    
C50   F22   S    
Cr12  O20   S    
C40   C76   S    
C49   F21   S    
C27   C28   A    
C52   F24   S    
C65   O37   A    
C44   C69   S    
Cr4   O4    S    
Cr10  O18   S    
C15   F15   S    
C16   F16   S    
Cr11  O19   S    
C90   F2    S    
C52   C56   S    
Cr5   O49   S    
Cr9   O17   S    
Cr11  O35   S    
C58   H21   S    
C89   F1    S    
