data_mof_unit_51969.cif
_audit_creation_date              2013-03-05T15:46:55-0500
_audit_creation_method            fapswitch 2.2
_symmetry_space_group_name_H-M    P1
_symmetry_Int_Tables_number       1
_space_group_crystal_system       triclinic
_cell_length_a                    19.333468
_cell_length_b                    11.078692
_cell_length_c                    9.821443
_cell_angle_alpha                 111.991061
_cell_angle_beta                  97.975578
_cell_angle_gamma                 91.184679
_cell_volume                      1925.67390079

loop_
_atom_site_label
_atom_site_type_symbol
_atom_site_description
_atom_site_fract_x
_atom_site_fract_y
_atom_site_fract_z
_atom_type_partial_charge
O1    O     O_R   0.506480 0.332340 0.577400 -0.551201
O2    O     O_R   0.493520 0.667660 0.422600 -0.548371
O3    O     O_R   0.485980 0.295500 0.332650 -0.520469
O4    O     O_R   0.514020 0.704500 0.667350 -0.526323
C1    C     C_R   0.495733 0.253482 0.439238 0.783888
C2    C     C_R   0.505508 0.746240 0.560992 0.790142
O5    O     O_R   0.410390 0.518410 0.622410 -0.583980
O6    O     O_R   0.589610 0.481590 0.377590 -0.586634
O7    O     O_R   0.389900 0.481570 0.377660 -0.577956
O8    O     O_R   0.610100 0.518430 0.622340 -0.583677
C3    C     C_R   0.367512 0.500946 0.501660 0.792694
C4    C     C_R   0.632507 0.500484 0.498603 0.802998
Cu1   Cu    Cu3+1 0.512140 0.521810 0.644910 0.993087
Cu2   Cu    Cu3+1 0.487860 0.478190 0.355090 1.003360
C5    C     C_R   0.267276 0.555816 0.642525 -0.257878
C6    C     C_R   0.734273 0.512042 0.373076 -0.267022
H1    H     H_    0.303272 0.583309 0.746038 0.175277
H2    H     H_    0.698356 0.508640 0.276643 0.157342
C7    C     C_R   0.196106 0.572814 0.647647 0.476368
C8    C     C_R   0.806723 0.525194 0.373430 0.470465
C9    C     C_R   0.148089 0.534003 0.513291 -0.056401
C10   C     C_R   0.853804 0.524494 0.497302 -0.027191
C11   C     C_R   0.173493 0.486926 0.377167 -0.214838
C12   C     C_R   0.826788 0.516707 0.619890 -0.227157
H3    H     H_    0.138161 0.457148 0.272572 0.182204
H4    H     H_    0.861084 0.516687 0.716908 0.179654
C13   C     C_R   0.244694 0.475130 0.373600 -0.185846
C14   C     C_R   0.755031 0.508355 0.619803 -0.202392
H5    H     H_    0.262526 0.438828 0.266686 0.172762
H6    H     H_    0.736187 0.502190 0.715830 0.168705
C15   C     C_R   0.292103 0.508815 0.506077 -0.106108
C16   C     C_R   0.708246 0.505840 0.496607 -0.079445
N1    N     N_R   0.028848 0.536840 0.389784 -0.245258
N2    N     N_R   0.973891 0.533135 0.624672 -0.251900
N3    N     N_R   0.959753 0.533992 0.385261 -0.170731
N4    N     N_R   0.042956 0.535931 0.629279 -0.181249
C17   C     C_R   0.930740 0.531624 0.502403 0.418954
C18   C     C_R   0.071823 0.537844 0.511917 0.403577
C19   C     C_2   0.491806 0.112466 0.402860 0.041475
C20   C     C_2   0.514816 0.886642 0.600216 0.063128
C21   C     C_2   0.514338 0.067933 0.511042 0.239195
C22   C     C_2   0.487047 0.938315 0.502470 0.296691
H7    H     H_    0.453280 0.416111 0.844387 0.165170
H8    H     H_    0.547338 0.582778 0.155309 0.158943
N5    N     N_2   0.469620 0.445420 0.137370 -0.269109
N6    N     N_2   0.530380 0.554580 0.862630 -0.277273
C23   C     C_2   0.506297 0.510284 0.081591 -0.016618
C24   C     C_2   0.494082 0.489044 0.918237 -0.020208
H9    H     H_    0.568830 0.623066 0.935401 0.213146
H10   H     H_    0.431019 0.377237 0.064687 0.210882
O9    O     O_3   0.174336 0.623600 0.785100 -0.596981
C25   C     C_3   0.166153 0.758707 0.824526 0.049280
H11   H     H_    0.126140 0.784956 0.899645 0.187751
H12   H     H_    0.145778 0.784384 0.727538 0.121899
C26   C     C_3   0.234987 0.840246 0.908341 -0.352330
H13   H     H_    0.254627 0.813574 0.004420 0.241092
H14   H     H_    0.275048 0.819934 0.833421 0.226153
C27   C     C_3   0.224843 0.986072 0.964681 -0.860708
H15   H     H_    0.206066 0.015045 0.869995 0.250709
H16   H     H_    0.275504 0.042485 0.023792 0.292558
H17   H     H_    0.186307 0.010395 0.043166 0.249451
O10   O     O_3   0.831381 0.529896 0.249250 -0.595552
C28   C     C_3   0.810267 0.641644 0.221664 0.072951
H18   H     H_    0.858304 0.699629 0.223907 0.174561
H19   H     H_    0.781151 0.708736 0.306719 0.118651
C29   C     C_3   0.766112 0.599313 0.066999 -0.383041
H20   H     H_    0.798453 0.545880 0.981510 0.227763
H21   H     H_    0.720581 0.532366 0.057699 0.213277
C30   C     C_3   0.739244 0.716818 0.036460 -0.867471
H22   H     H_    0.706629 0.771517 0.120697 0.259256
H23   H     H_    0.706399 0.683336 0.925059 0.267898
H24   H     H_    0.783886 0.782879 0.039205 0.264936
O11   O     O_3   0.434311 0.865438 0.387287 -0.571385
C31   C     C_3   0.368287 0.910153 0.421747 0.088653
H25   H     H_    0.336166 0.907121 0.317346 0.192441
H26   H     H_    0.370957 0.013333 0.503033 0.118497
C32   C     C_3   0.331131 0.819344 0.478602 -0.359065
H27   H     H_    0.326634 0.718084 0.394115 0.241209
H28   H     H_    0.362256 0.821053 0.583359 0.206792
C33   C     C_3   0.258018 0.860054 0.508102 -0.895966
H29   H     H_    0.261331 0.960112 0.594903 0.259992
H30   H     H_    0.232401 0.791623 0.547716 0.257071
H31   H     H_    0.225372 0.857420 0.404475 0.260257
O12   O     O_3   0.558077 0.149164 0.638853 -0.566933
C34   C     C_3   0.627782 0.145318 0.610051 0.113446
H32   H     H_    0.633296 0.181315 0.519917 0.109873
H33   H     H_    0.644292 0.043737 0.577068 0.147598
C35   C     C_3   0.675960 0.233550 0.751299 -0.278944
H34   H     H_    0.662189 0.336234 0.780461 0.212666
H35   H     H_    0.668364 0.203756 0.844797 0.265749
C36   C     C_3   0.752768 0.225458 0.730811 -0.930218
H36   H     H_    0.768382 0.124800 0.709364 0.270952
H37   H     H_    0.786175 0.293835 0.833349 0.267124
H38   H     H_    0.761577 0.252295 0.636023 0.261370
N7    N     N_R   0.552974 0.965413 0.744482 0.138789
O13   O     O_R   0.611609 0.928687 0.793147 -0.367177
O14   O     O_R   0.522277 0.056717 0.837593 -0.296658
N8    N     N_R   0.464667 0.025150 0.252895 0.147041
O15   O     O_R   0.412888 0.056264 0.175852 -0.364652
O16   O     O_R   0.497789 0.923651 0.186731 -0.315493

loop_
_geom_bond_atom_site_label_1
_geom_bond_atom_site_label_2
_geom_bond_distance
_ccdc_geom_bond_type
C29   H21   1.110529 S    
C26   H13   1.111738 S    
C28   H19   1.118008 S    
C13   H5    1.083112 S    
N2    C17   1.358189 A    
O11   C31   1.417670 S    
N7    O13   1.301326 A    
C19   C21   1.354670 D    
C32   H27   1.110580 S    
C5    C7    1.397886 A    
N6    H9    1.030635 S    
C31   H26   1.117755 S    
O1    C1    1.293885 A    
N3    C17   1.356491 A    
C12   H4    1.082780 S    
Cu1   N6    2.008144 S    
C32   C33   1.525640 S    
C29   C30   1.526958 S    
C27   H16   1.110012 S    
C21   C22   1.487746 S    
O4    Cu1   1.951152 S    
C30   H23   1.109702 S    
C9    C18   1.474323 S    
C31   C32   1.530392 S    
C11   C13   1.389462 A    
H7    C24   1.084981 S    
N2    N4    1.329072 A    
C25   C26   1.534290 S    
O6    C4    1.295066 A    
C27   H17   1.110844 S    
C20   C22   1.348646 D    
C29   H20   1.111353 S    
C28   C29   1.531745 S    
C3    C15   1.467990 S    
Cu1   Cu2   2.673166 S    
C4    C16   1.467421 S    
O2    C2    1.295033 A    
C33   H31   1.110757 S    
C25   H12   1.116653 S    
Cu2   N5    2.008143 S    
N5    C23   1.304184 D    
N6    C24   1.303897 D    
C31   H25   1.111222 S    
C34   H33   1.115276 S    
C13   C15   1.401266 A    
O9    C25   1.417082 S    
C14   C16   1.397482 A    
O12   C34   1.413187 S    
C33   H30   1.109180 S    
C36   H36   1.111183 S    
C19   N8    1.441498 S    
C27   H15   1.110994 S    
C34   H32   1.114855 S    
C21   O12   1.388744 S    
C30   H24   1.110815 S    
O5    C3    1.296070 A    
O7    Cu2   1.936655 S    
O10   C28   1.419208 S    
C36   H37   1.110457 S    
C23   C24   1.514917 S    
C35   C36   1.525963 S    
C6    C8    1.404652 A    
N7    O14   1.301677 A    
C32   H28   1.110924 S    
O7    C3    1.292654 A    
O3    Cu2   1.951154 S    
O8    C4    1.293367 A    
O4    C2    1.284246 A    
C35   H35   1.111837 S    
N8    O16   1.301839 A    
C26   H14   1.110545 S    
C10   C12   1.407226 A    
O1    Cu1   1.945705 S    
C20   N7    1.438984 S    
C25   H11   1.111011 S    
C34   C35   1.528330 S    
C5    H1    1.083347 S    
C1    C19   1.464120 S    
C22   O11   1.390324 S    
O6    Cu2   1.946823 S    
C7    C9    1.416532 A    
C12   C14   1.388342 A    
C8    C10   1.417312 A    
C33   H29   1.110782 S    
O3    C1    1.289173 A    
O8    Cu1   1.936657 S    
H8    C23   1.085150 S    
C5    C15   1.401312 A    
C6    C16   1.400108 A    
N1    C18   1.357334 A    
C9    C11   1.404008 A    
C14   H6    1.081412 S    
C36   H38   1.110533 S    
C10   C17   1.480788 S    
N5    H10   1.030603 S    
N4    C18   1.355312 A    
N1    N3    1.329728 A    
C2    C20   1.456258 S    
C11   H3    1.082992 S    
C8    O10   1.387579 S    
C30   H22   1.111039 S    
O2    Cu2   1.945703 S    
C28   H18   1.111191 S    
C7    O9    1.383760 S    
O5    Cu1   1.946823 S    
C35   H34   1.112086 S    
C6    H2    1.081806 S    
N8    O15   1.301112 A    
C26   C27   1.525917 S    
