data_mof_unit_49681.cif
_audit_creation_date              2012-12-11T16:07:24-0500
_audit_creation_method            fapswitch 2.2
_symmetry_space_group_name_H-M    P1
_symmetry_Int_Tables_number       1
_space_group_crystal_system       triclinic
_cell_length_a                    17.12584
_cell_length_b                    17.125442
_cell_length_c                    17.282384
_cell_angle_alpha                 90.000225
_cell_angle_beta                  89.84706
_cell_angle_gamma                 89.99933
_cell_volume                      5068.6905153

loop_
_atom_site_label
_atom_site_type_symbol
_atom_type_description
_atom_site_fract_x
_atom_site_fract_y
_atom_site_fract_z
_atom_type_partial_charge
C1    C     C_R   0.393618 0.698015 0.606651 -0.152188
C2    C     C_R   0.578200 0.671549 0.644759 -0.116539
C3    C     C_3   0.810272 0.228420 0.639339 0.116901
C4    C     C_3   0.772913 0.809639 0.361579 0.118513
C5    C     C_3   0.281404 0.246028 0.722268 0.122546
C6    C     C_3   0.718270 0.245781 0.277525 0.122472
C7    C     C_3   0.226834 0.809435 0.638351 0.118578
C8    C     C_3   0.689984 0.728147 0.860736 0.117027
C9    C     C_3   0.256216 0.217088 0.222873 0.122890
C10   C     C_3   0.744046 0.217441 0.777309 0.122975
C11   C     C_3   0.310199 0.728355 0.139324 0.116985
C12   C     C_3   0.273519 0.309086 0.861731 0.118586
C13   C     C_R   0.671188 0.422092 0.354911 -0.116642
C14   C     C_3   0.782018 0.745504 0.222680 0.122450
C15   C     C_3   0.218219 0.745709 0.777469 0.122515
C16   C     C_3   0.726782 0.309370 0.138340 0.118500
C17   C     C_1   0.154429 0.237271 0.437591 0.032566
C18   C     C_1   0.793553 0.713359 0.646176 0.025850
C19   C     C_1   0.206050 0.712938 0.353582 0.025792
C20   C     C_1   0.845018 0.236476 0.562120 0.032680
C21   C     C_1   0.765783 0.843147 0.439339 0.030106
C22   C     C_1   0.284307 0.209658 0.645242 0.028029
C23   C     C_1   0.715040 0.209096 0.354385 0.027930
C24   C     C_R   0.301909 0.605387 0.607152 -0.134004
C25   C     C_1   0.233685 0.842719 0.560466 0.030053
C26   C     C_1   0.655546 0.735918 0.938111 0.032645
C27   C     C_1   0.294689 0.212093 0.146883 0.025605
C28   C     C_1   0.705886 0.212811 0.853473 0.025725
C29   C     C_1   0.344859 0.736343 0.062061 0.032586
C30   C     C_1   0.267055 0.341967 0.939823 0.030142
C31   C     C_1   0.785554 0.708501 0.145989 0.027720
C32   C     C_1   0.214932 0.708944 0.854289 0.027788
C33   C     C_1   0.733581 0.342573 0.060416 0.030209
C34   C     C_R   0.606394 0.698025 0.393388 -0.152208
C35   C     C_R   0.422455 0.330518 0.646142 -0.124551
C36   C     C_R   0.330084 0.577907 0.354221 -0.124196
C37   C     C_R   0.697957 0.393674 0.606636 -0.153466
C38   C     C_R   0.893629 0.198006 0.106683 -0.152118
C39   C     C_R   0.077575 0.830491 0.853877 -0.124512
C40   C     C_R   0.169940 0.077936 0.145765 -0.124142
C41   C     C_R   0.577553 0.330513 0.353863 -0.124557
C42   C     C_R   0.802063 0.893700 0.893292 -0.153408
C43   C     C_R   0.105331 0.801953 0.107101 -0.134884
C44   C     C_R   0.921757 0.171598 0.855275 -0.116498
C45   C     C_R   0.828759 0.922049 0.145055 -0.116586
C46   C     C_R   0.198059 0.105353 0.892742 -0.134103
C47   C     C_R   0.894684 0.801967 0.892851 -0.134954
C48   C     C_R   0.078251 0.171619 0.144711 -0.116472
C49   C     C_R   0.171212 0.922067 0.854926 -0.116592
C50   C     C_R   0.801919 0.105377 0.107187 -0.133971
C51   C     C_R   0.106350 0.197988 0.893258 -0.152094
C52   C     C_R   0.669897 0.577887 0.645793 -0.124172
C53   C     C_R   0.922403 0.830468 0.146110 -0.124524
C54   C     C_R   0.830061 0.077929 0.854235 -0.124163
C55   C     C_R   0.197948 0.893686 0.106668 -0.153439
C56   C     C_3   0.266750 0.265232 0.335515 0.112642
C57   C     C_3   0.678439 0.679873 0.746898 0.113915
C58   C     C_3   0.321540 0.679901 0.253111 0.113914
C59   C     C_3   0.733235 0.265248 0.664553 0.112684
C60   C     C_3   0.734974 0.733480 0.335721 0.112834
C61   C     C_3   0.320751 0.322164 0.747507 0.114194
C62   C     C_3   0.679267 0.322158 0.252486 0.114151
C63   C     C_R   0.302037 0.393668 0.393386 -0.153482
C64   C     C_3   0.265047 0.733462 0.664362 0.112894
C65   C     C_3   0.766799 0.765286 0.835315 0.112712
C66   C     C_3   0.178493 0.179951 0.246880 0.113871
C67   C     C_3   0.821522 0.179919 0.753117 0.113883
C68   C     C_3   0.233223 0.765263 0.164606 0.112692
C69   C     C_3   0.234895 0.233410 0.835459 0.112935
C70   C     C_3   0.820680 0.822120 0.247502 0.114156
C71   C     C_3   0.179285 0.822140 0.752491 0.114189
C72   C     C_3   0.765062 0.233451 0.164414 0.112852
C73   C     C_R   0.317633 0.681420 0.625098 0.068552
C74   C     C_R   0.605342 0.301943 0.607065 -0.134860
C75   C     C_R   0.637127 0.364076 0.311521 0.045247
C76   C     C_R   0.636607 0.637799 0.687882 0.044400
C77   C     C_R   0.318644 0.317680 0.374995 0.068070
C78   C     C_R   0.681341 0.317698 0.625068 0.068052
C79   C     C_R   0.363351 0.637845 0.312153 0.044432
C80   C     C_R   0.362913 0.364108 0.688510 0.045193
C81   C     C_R   0.682392 0.681443 0.374988 0.068575
C82   C     C_R   0.817652 0.181403 0.125158 0.068531
C83   C     C_R   0.137160 0.864042 0.811545 0.045220
C84   C     C_R   0.136712 0.137922 0.187797 0.044482
C85   C     C_R   0.421780 0.671574 0.355260 -0.116547
C86   C     C_R   0.818702 0.817743 0.874787 0.068006
C87   C     C_R   0.181323 0.817717 0.125129 0.068018
C88   C     C_R   0.863317 0.137879 0.812178 0.044471
C89   C     C_R   0.862787 0.863997 0.188419 0.045276
C90   C     C_R   0.182307 0.181364 0.874719 0.068510
C91   C     C_3   0.715215 0.650331 0.822406 -0.209334
C92   C     C_3   0.230419 0.293947 0.259616 -0.208335
C93   C     C_3   0.706606 0.188490 0.702319 -0.230794
C94   C     C_3   0.348311 0.756633 0.215020 -0.230467
C95   C     C_3   0.245014 0.349481 0.787242 -0.231349
C96   C     C_R   0.328828 0.422101 0.645103 -0.116664
C97   C     C_3   0.811100 0.706526 0.296841 -0.230451
C98   C     C_3   0.294075 0.772090 0.739035 -0.209631
C99   C     C_3   0.649589 0.283779 0.177808 -0.209701
C100  C     C_3   0.755213 0.349356 0.213065 -0.231371
C101  C     C_3   0.189082 0.706416 0.703491 -0.230451
C102  C     C_3   0.706007 0.771791 0.260869 -0.209475
C103  C     C_3   0.350508 0.283371 0.821947 -0.209923
C104  C     C_3   0.285049 0.650406 0.177447 -0.209219
C105  C     C_3   0.769984 0.294078 0.740211 -0.208575
C106  C     C_3   0.293239 0.188245 0.298112 -0.230804
C107  C     C_R   0.698105 0.605402 0.392899 -0.133908
C108  C     C_3   0.651591 0.756472 0.785197 -0.230443
C109  C     C_3   0.214444 0.150573 0.322847 -0.208953
C110  C     C_3   0.729660 0.794173 0.759868 -0.208809
C111  C     C_3   0.206572 0.688548 0.202440 -0.230796
C112  C     C_3   0.848271 0.256693 0.715092 -0.230453
C113  C     C_3   0.744537 0.849207 0.286624 -0.231431
C114  C     C_3   0.310615 0.206232 0.795954 -0.230364
C115  C     C_3   0.794093 0.272178 0.239035 -0.209682
C116  C     C_3   0.149607 0.783862 0.677763 -0.209725
C117  C     C_3   0.255265 0.849322 0.713126 -0.231422
C118  C     C_R   0.394648 0.301930 0.392976 -0.134789
C119  C     C_3   0.689133 0.206389 0.203599 -0.230358
C120  C     C_3   0.205781 0.272543 0.761074 -0.209892
C121  C     C_3   0.850299 0.784165 0.322413 -0.209563
C122  C     C_3   0.785146 0.150429 0.677396 -0.209133
C123  C     C_3   0.270084 0.794100 0.240208 -0.208638
C124  C     C_3   0.793525 0.688704 0.797270 -0.230801
C125  C     C_3   0.151891 0.256958 0.284549 -0.230495
C126  C     C_3   0.189468 0.228791 0.360545 0.116866
C127  C     C_3   0.755695 0.717705 0.722497 0.123084
C128  C     C_3   0.244124 0.717503 0.277373 0.123008
H1    H     H_    0.421104 0.754878 0.606270 0.097634
H2    H     H_    0.544084 0.722627 0.658921 0.094883
H3    H     H_    0.722377 0.455988 0.340653 0.095311
H4    H     H_    0.245366 0.577327 0.606265 0.090850
H5    H     H_    0.578901 0.754886 0.393766 0.097670
H6    H     H_    0.456685 0.279959 0.661674 0.100689
H7    H     H_    0.279623 0.543478 0.338788 0.100446
H8    H     H_    0.754781 0.421249 0.606397 0.099356
H9    H     H_    0.921110 0.254871 0.106301 0.097600
H10   H     H_    0.043337 0.779941 0.838338 0.100689
H11   H     H_    0.220393 0.043499 0.161206 0.100467
H12   H     H_    0.543305 0.279971 0.338322 0.100756
H13   H     H_    0.745235 0.921267 0.893531 0.099330
H14   H     H_    0.077174 0.745451 0.106338 0.092044
H15   H     H_    0.955871 0.222678 0.841126 0.094815
H16   H     H_    0.777567 0.955946 0.159301 0.095223
H17   H     H_    0.254611 0.077309 0.893621 0.090905
H18   H     H_    0.922833 0.745460 0.893612 0.092065
H19   H     H_    0.044124 0.222693 0.158852 0.094775
H20   H     H_    0.222412 0.955948 0.840675 0.095232
H21   H     H_    0.745373 0.077323 0.106300 0.090840
H22   H     H_    0.078873 0.254857 0.893638 0.097559
H23   H     H_    0.720365 0.543467 0.661223 0.100410
H24   H     H_    0.956652 0.779925 0.161651 0.100733
H25   H     H_    0.779596 0.043506 0.838804 0.100424
H26   H     H_    0.254773 0.921257 0.106430 0.099392
H27   H     H_    0.707409 0.590970 0.847037 0.131212
H28   H     H_    0.238265 0.352927 0.233982 0.128477
H29   H     H_    0.648024 0.161204 0.697500 0.120977
H30   H     H_    0.407113 0.783459 0.219768 0.121767
H31   H     H_    0.219357 0.408920 0.783986 0.123326
H32   H     H_    0.837685 0.647533 0.300585 0.120202
H33   H     H_    0.353519 0.765942 0.763881 0.128449
H34   H     H_    0.245215 0.421247 0.393620 0.099422
H35   H     H_    0.589939 0.290456 0.153717 0.131608
H36   H     H_    0.781101 0.408674 0.216610 0.123289
H37   H     H_    0.162666 0.647330 0.699991 0.120171
H38   H     H_    0.646638 0.765401 0.235912 0.128556
H39   H     H_    0.410251 0.289738 0.845896 0.131546
H40   H     H_    0.293063 0.591105 0.152734 0.131203
H41   H     H_    0.762470 0.353174 0.765676 0.128383
H42   H     H_    0.351693 0.160745 0.303264 0.121002
H43   H     H_    0.592708 0.783153 0.780646 0.121806
H44   H     H_    0.206015 0.091410 0.347748 0.131285
H45   H     H_    0.577181 0.245443 0.606299 0.091990
H46   H     H_    0.736887 0.853350 0.734512 0.128329
H47   H     H_    0.147958 0.661313 0.197703 0.120991
H48   H     H_    0.907041 0.283574 0.719915 0.121743
H49   H     H_    0.718421 0.908405 0.282788 0.123170
H50   H     H_    0.336770 0.147005 0.799067 0.120154
H51   H     H_    0.853551 0.266098 0.263863 0.128490
H52   H     H_    0.089972 0.790609 0.653657 0.131526
H53   H     H_    0.281201 0.908616 0.716738 0.123174
H54   H     H_    0.662762 0.147279 0.200172 0.120193
H55   H     H_    0.146229 0.266769 0.736392 0.128353
H56   H     H_    0.455905 0.722647 0.341104 0.094861
H57   H     H_    0.909860 0.791157 0.346627 0.131573
H58   H     H_    0.793241 0.091148 0.652664 0.131259
H59   H     H_    0.262648 0.853216 0.265651 0.128392
H60   H     H_    0.852218 0.661605 0.801794 0.120980
H61   H     H_    0.093251 0.284071 0.279423 0.121679
H62   H     H_    0.277627 0.455981 0.659367 0.095337
H63   H     H_    0.754645 0.577334 0.393792 0.090797
H64   H     H_    0.422816 0.245434 0.393747 0.091966
N1    N     N_R   0.424590 0.632770 0.578330 -0.038743
N2    N     N_R   0.575410 0.632770 0.578330 -0.041589
N3    N     N_R   0.632770 0.424590 0.421670 -0.042015
N4    N     N_R   0.367230 0.575410 0.578330 -0.039643
N5    N     N_R   0.575410 0.632770 0.421670 -0.038754
N6    N     N_R   0.424590 0.367230 0.578330 -0.041379
N7    N     N_R   0.367230 0.575410 0.421670 -0.040897
N8    N     N_R   0.632770 0.424590 0.578330 -0.038752
N9    N     N_R   0.924590 0.132770 0.078330 -0.038752
N10   N     N_R   0.075410 0.867230 0.921670 -0.041382
N11   N     N_R   0.132770 0.075410 0.078330 -0.040910
N12   N     N_R   0.575410 0.367230 0.421670 -0.041386
N13   N     N_R   0.867230 0.924590 0.921670 -0.038751
N14   N     N_R   0.075410 0.867230 0.078330 -0.039677
N15   N     N_R   0.924590 0.132770 0.921670 -0.041611
N16   N     N_R   0.867230 0.924590 0.078330 -0.042029
N17   N     N_R   0.132770 0.075410 0.921670 -0.039625
N18   N     N_R   0.924590 0.867230 0.921670 -0.039657
N19   N     N_R   0.075410 0.132770 0.078330 -0.041626
N20   N     N_R   0.132770 0.924590 0.921670 -0.042013
N21   N     N_R   0.867230 0.075410 0.078330 -0.039651
N22   N     N_R   0.075410 0.132770 0.921670 -0.038737
N23   N     N_R   0.632770 0.575410 0.578330 -0.040898
N24   N     N_R   0.924590 0.867230 0.078330 -0.041385
N25   N     N_R   0.867230 0.075410 0.921670 -0.040907
N26   N     N_R   0.132770 0.924590 0.078330 -0.038767
N27   N     N_1   0.126703 0.244075 0.498346 -0.084623
N28   N     N_1   0.823322 0.709723 0.586108 -0.087625
N29   N     N_1   0.176110 0.709132 0.413560 -0.087665
N30   N     N_1   0.872511 0.242941 0.501226 -0.084524
N31   N     N_1   0.760040 0.869661 0.500666 -0.088418
N32   N     N_1   0.286806 0.181068 0.584622 -0.085879
N33   N     N_1   0.712286 0.180255 0.414875 -0.085923
N34   N     N_R   0.367230 0.424590 0.421670 -0.038769
N35   N     N_1   0.239208 0.869057 0.499041 -0.088405
N36   N     N_1   0.628302 0.742158 0.999133 -0.084585
N37   N     N_1   0.324946 0.207955 0.087080 -0.087744
N38   N     N_1   0.675877 0.208954 0.913414 -0.087661
N39   N     N_1   0.372284 0.742756 0.001131 -0.084633
N40   N     N_1   0.261835 0.367978 0.001411 -0.088342
N41   N     N_1   0.788543 0.679409 0.085630 -0.086012
N42   N     N_1   0.212133 0.680040 0.914747 -0.085990
N43   N     N_1   0.739065 0.368846 0.998961 -0.088350
N44   N     N_R   0.575410 0.367230 0.578330 -0.039666
N45   N     N_R   0.424590 0.632770 0.421670 -0.041597
N46   N     N_R   0.367230 0.424590 0.578330 -0.041994
N47   N     N_R   0.632770 0.575410 0.421670 -0.039663
N48   N     N_R   0.424590 0.367230 0.421670 -0.039691
Ni1   Ni    Ni4+2 0.500000 0.631570 0.500000 0.214724
Ni2   Ni    Ni4+2 0.500000 0.368430 0.500000 0.216728
Ni3   Ni    Ni4+2 0.631570 0.500000 0.500000 0.215929
Ni4   Ni    Ni4+2 0.368430 0.500000 0.500000 0.215973
Ni5   Ni    Ni4+2 1.000000 0.131570 0.000000 0.214682
Ni6   Ni    Ni4+2 0.000000 0.868430 0.000000 0.216789
Ni7   Ni    Ni4+2 0.131570 0.000000 0.000000 0.215987
Ni8   Ni    Ni4+2 0.868430 0.000000 0.000000 0.215940

loop_
_geom_bond_atom_site_label_1
_geom_bond_atom_site_label_2
_ccdc_geom_bond_type
C55   H26   S    
C113  H49   S    
C12   C69   S    
C81   C107  A    
C103  H39   S    
N2    Ni1   S    
C5    C114  S    
C63   H34   S    
C8    C26   S    
C48   N19   A    
C7    C117  S    
C53   N24   A    
C19   N29   T    
C36   N7    A    
C39   C83   A    
C14   C31   S    
N13   Ni8   S    
C18   N28   T    
C92   C125  S    
C54   H25   S    
N16   Ni8   S    
C65   C86   S    
C37   N8    A    
C32   N42   T    
C10   C67   S    
N6    Ni2   S    
C58   C128  S    
C31   N41   T    
C72   C115  S    
N5    Ni1   S    
C67   C88   S    
C59   C105  S    
C105  H41   S    
N4    Ni4   S    
C111  H47   S    
C57   C76   S    
C65   C110  S    
C61   C103  S    
C1    H1    S    
C98   C117  S    
C44   H15   S    
C51   C90   A    
C16   C33   S    
C117  H53   S    
C24   C73   A    
C14   C102  S    
C46   H17   S    
C104  H40   S    
C24   N4    A    
C61   C80   S    
N44   Ni2   S    
C40   H11   S    
N46   Ni4   S    
C19   C128  S    
C59   C78   S    
C42   N13   A    
C35   C80   A    
C65   C124  S    
C30   N40   T    
C40   C84   A    
C9    C66   S    
C41   H12   S    
C97   C121  S    
N6    N46   A    
C10   C105  S    
C118  H64   S    
C27   N37   T    
C38   H9    S    
C5    C22   S    
C13   C75   A    
C51   H22   S    
C26   N36   T    
C114  H50   S    
C38   N9    A    
C16   C72   S    
C71   C116  S    
C45   H16   S    
C64   C73   S    
N25   Ni8   S    
C12   C95   S    
C11   C104  S    
C42   C86   A    
C34   C81   A    
C56   C126  S    
C80   C96   A    
C45   C89   A    
N17   Ni7   S    
C74   C78   A    
C17   N27   T    
C3    C122  S    
C110  C127  S    
N7    N45   A    
C12   C30   S    
C94   C123  S    
C64   C98   S    
C39   H10   S    
C8    C65   S    
N16   N24   A    
C38   C82   A    
C43   N14   A    
C55   C87   A    
C106  H42   S    
N11   N19   A    
C14   C70   S    
C100  C115  S    
C96   H62   S    
N20   Ni7   S    
C60   C102  S    
N15   Ni5   S    
C9    C92   S    
C23   N33   T    
N7    Ni4   S    
C55   N26   A    
C71   C83   S    
C110  H46   S    
C70   C113  S    
C64   C101  S    
N10   Ni6   S    
C69   C114  S    
N15   N25   A    
N9    Ni5   S    
C71   C117  S    
C5    C120  S    
C125  H61   S    
C97   H32   S    
C4    C113  S    
C15   C32   S    
C103  C114  S    
N34   N48   A    
C93   C122  S    
C29   N39   T    
C12   C103  S    
C100  H36   S    
C60   C97   S    
N2    N23   A    
C124  H60   S    
C70   C121  S    
C16   C100  S    
N3    N12   A    
C99   C119  S    
C34   H5    S    
C9    C106  S    
C121  H57   S    
C25   N35   T    
C52   N23   A    
N14   N26   A    
C56   C77   S    
C48   C84   A    
C49   H20   S    
C2    N2    A    
C68   C111  S    
C94   H30   S    
C7    C116  S    
C50   N21   A    
N21   Ni8   S    
C1    N1    A    
C47   C86   A    
C91   H27   S    
C18   C127  S    
C41   C75   A    
C60   C81   S    
C24   H4    S    
N34   Ni4   S    
C67   C122  S    
C40   N11   A    
C35   H6    S    
C3    C112  S    
N1    N4    A    
N9    N21   A    
C4    C60   S    
C42   H13   S    
N48   Ni2   S    
C13   H3    S    
C37   H8    S    
C5    C61   S    
C3    C20   S    
C92   H28   S    
C8    C91   S    
C7    C25   S    
C15   C101  S    
C41   N12   A    
C93   H29   S    
N8    Ni3   S    
C56   C106  S    
C54   N25   A    
C74   H45   S    
C124  C127  S    
C99   H35   S    
C58   C79   S    
C11   C94   S    
C118  N48   A    
C49   C83   A    
C112  H48   S    
C105  C112  S    
C77   C118  A    
C85   H56   S    
C91   C124  S    
C116  H52   S    
C53   C89   A    
C125  C126  S    
C53   H24   S    
C95   H31   S    
C62   C75   S    
C47   N18   A    
C70   C89   S    
C58   C104  S    
N18   Ni6   S    
C15   C98   S    
C74   N44   A    
C69   C90   S    
C36   H7    S    
C28   N38   T    
C6    C119  S    
C79   C85   A    
C98   H33   S    
C2    C76   A    
C11   C68   S    
C9    C27   S    
C14   C97   S    
C63   C77   A    
C10   C28   S    
C68   C87   S    
C62   C100  S    
N3    Ni3   S    
C7    C64   S    
C57   C91   S    
C22   N32   T    
N14   Ni6   S    
C96   N46   A    
C63   N34   A    
N8    N44   A    
N10   N20   A    
C52   C76   A    
C36   C79   A    
C33   N43   T    
C57   C127  S    
C104  C111  S    
N12   Ni2   S    
C39   N10   A    
C61   C95   S    
C16   C99   S    
C46   C90   A    
C95   C120  S    
C45   N16   A    
C46   N17   A    
C15   C71   S    
C37   C78   A    
C69   C120  S    
N23   Ni3   S    
N17   N22   A    
C10   C93   S    
C66   C125  S    
N45   Ni1   S    
C43   C87   A    
N26   Ni7   S    
C6    C62   S    
C51   N22   A    
C58   C94   S    
C1    C73   A    
C102  C113  S    
C68   C123  S    
C101  H37   S    
C54   C88   A    
C4    C21   S    
N5    N47   A    
C50   H21   S    
N19   Ni5   S    
C123  C128  S    
C107  N47   A    
N13   N18   A    
C52   H23   S    
C6    C23   S    
C72   C119  S    
C67   C112  S    
C2    H2    S    
C34   N5    A    
C108  C110  S    
C4    C121  S    
N22   Ni5   S    
C85   N45   A    
C44   N15   A    
C66   C109  S    
C123  H59   S    
C17   C126  S    
C120  H55   S    
C115  H51   S    
C6    C115  S    
C47   H18   S    
C122  H58   S    
C66   C84   S    
C62   C99   S    
N1    Ni1   S    
C21   N31   T    
C109  C126  S    
C56   C92   S    
C57   C108  S    
N11   Ni7   S    
C11   C29   S    
C109  H44   S    
C102  H38   S    
C13   N3    A    
C108  H43   S    
C107  H63   S    
C111  C128  S    
C101  C116  S    
C20   N30   T    
C8    C108  S    
C43   H14   S    
N47   Ni3   S    
C59   C93   S    
C49   N20   A    
C44   C88   A    
N24   Ni6   S    
C50   C82   A    
C119  H54   S    
C72   C82   S    
C35   N6    A    
C48   H19   S    
C106  C109  S    
C3    C59   S    
