data_mof_unit_14032.cif
_audit_creation_date              2012-12-11T15:21:26-0500
_audit_creation_method            fapswitch 2.2
_symmetry_space_group_name_H-M    P1
_symmetry_Int_Tables_number       1
_space_group_crystal_system       triclinic
_cell_length_a                    8.290571
_cell_length_b                    12.664245
_cell_length_c                    18.92206
_cell_angle_alpha                 94.461291
_cell_angle_beta                  94.180326
_cell_angle_gamma                 97.981297
_cell_volume                      1954.43336675

loop_
_atom_site_label
_atom_site_type_symbol
_atom_type_description
_atom_site_fract_x
_atom_site_fract_y
_atom_site_fract_z
_atom_type_partial_charge
Ba1   Ba    Ba6+2 0.160910 0.552960 0.466220 1.642584
Ba2   Ba    Ba6+2 0.649260 0.447030 0.533730 1.649359
C1    C     C_3   0.422255 0.830854 0.200058 -0.347621
C2    C     C_3   0.428082 0.792433 0.274184 0.419153
C3    C     C_3   0.562253 0.769176 0.624885 0.266003
C4    C     C_3   0.576014 0.890373 0.632712 -0.368492
C5    C     C_3   0.866174 0.152070 0.700079 0.381026
C6    C     C_3   0.894616 0.059195 0.743423 -0.423162
C7    C     C_3   0.354046 0.191858 0.727981 0.322645
C8    C     C_3   0.435928 0.197210 0.803097 -0.323685
C9    C     C_R   0.076288 0.184122 0.528196 -0.256000
C10   C     C_R   0.741252 0.814613 0.469364 -0.286402
C11   C     C_R   0.706223 0.996711 0.449204 -0.096140
C12   C     C_3   0.870587 0.816131 0.231202 0.307717
C13   C     C_R   0.645547 0.887364 0.443745 -0.009813
C14   C     C_R   0.892930 0.849143 0.506551 0.090246
C15   C     C_R   0.954521 0.962163 0.515389 -0.063900
C16   C     C_R   0.860479 0.037134 0.484835 -0.075347
C17   C     C_R   0.923438 0.149798 0.491394 0.047122
C18   C     C_R   0.169834 0.111879 0.557125 -0.027782
C19   C     C_R   0.107935 0.002572 0.552331 -0.107777
C20   C     C_R   0.619075 0.537870 0.298488 -0.257895
C21   C     C_R   0.463334 0.483944 0.276477 0.048678
C22   C     C_R   0.408415 0.470946 0.204117 -0.137967
C23   C     C_3   0.917865 0.883886 0.170994 -0.359375
C24   C     C_R   0.511506 0.509801 0.153132 -0.004690
C25   C     C_R   0.671747 0.558813 0.175854 -0.144716
C26   C     C_R   0.724303 0.573748 0.248438 -0.003669
C27   C     C_R   0.489778 0.584782 0.034776 -0.080074
C28   C     C_R   0.435754 0.575409 0.962618 -0.081155
C29   C     C_R   0.344944 0.479604 0.930133 0.061426
C30   C     C_R   0.306830 0.394076 0.972078 -0.080354
C31   C     C_R   0.360099 0.403753 0.044526 -0.077828
C32   C     C_R   0.453041 0.499043 0.076512 0.065042
C33   C     C_R   0.135813 0.415292 0.826687 -0.140128
C34   C     C_3   0.675792 0.249025 0.314902 0.333425
C35   C     C_R   0.085974 0.408518 0.753882 0.003804
C36   C     C_R   0.343171 0.512157 0.732402 0.041044
C37   C     C_R   0.395025 0.517457 0.804637 -0.126218
C38   C     C_R   0.291973 0.469133 0.852750 -0.004149
C39   C     C_R   0.192539 0.453474 0.706821 -0.264779
C40   C     C_3   0.562893 0.142633 0.296719 -0.249480
C41   C     C_3   0.086120 0.735663 0.692844 0.313366
C42   C     C_3   0.141648 0.813245 0.761381 -0.024288
C43   C     C_3   0.147838 0.234347 0.310540 0.325738
C44   C     C_3   0.129053 0.127602 0.264925 0.233363
H1    H     H_    0.338478 0.718301 0.273276 0.084752
H2    H     H_    0.494105 0.122193 0.342924 0.154319
H3    H     H_    0.474163 0.147612 0.250799 0.106062
H4    H     H_    0.634699 0.077282 0.282631 0.082498
H5    H     H_    0.192937 0.709347 0.668562 0.045294
H6    H     H_    0.029859 0.836410 0.783953 0.108087
H7    H     H_    0.079878 0.285045 0.277603 -0.002534
H8    H     H_    0.094440 0.223279 0.361503 0.026708
H9    H     H_    0.298074 0.848862 0.184343 0.145768
H10   H     H_    0.997815 0.101407 0.246544 -0.017042
H11   H     H_    0.192290 0.140382 0.215886 0.022576
H12   H     H_    0.553103 0.773879 0.288026 -0.135005
H13   H     H_    0.452265 0.767590 0.161304 0.053700
H14   H     H_    0.684911 0.746610 0.618862 0.046182
H15   H     H_    0.481101 0.740550 0.575837 0.069672
H16   H     H_    0.622924 0.921135 0.687595 0.126186
H17   H     H_    0.660676 0.926275 0.595679 0.070864
H18   H     H_    0.454455 0.914974 0.620673 0.124763
H19   H     H_    0.512324 0.904194 0.199030 0.095694
H20   H     H_    0.825722 0.937948 0.160870 0.059522
H21   H     H_    0.773685 0.122977 0.654843 0.086551
H22   H     H_    0.983046 0.182116 0.678152 -0.096458
H23   H     H_    0.921182 0.991136 0.707800 0.096473
H24   H     H_    0.998681 0.084229 0.784277 0.105463
H25   H     H_    0.784822 0.033280 0.771443 0.131362
H26   H     H_    0.228093 0.149525 0.727108 -0.040430
H27   H     H_    0.350205 0.275524 0.715087 0.025856
H28   H     H_    0.351270 0.221734 0.842031 0.046222
H29   H     H_    0.547949 0.257318 0.809212 0.160436
H30   H     H_    0.841927 0.868002 0.277186 -0.000095
H31   H     H_    0.469589 0.118245 0.814925 0.115989
H32   H     H_    0.628784 0.049129 0.427344 0.100603
H33   H     H_    0.184283 0.950003 0.575370 0.102733
H34   H     H_    0.126812 0.268015 0.531458 0.072899
H35   H     H_    0.691449 0.730495 0.464909 0.063481
H36   H     H_    0.514391 0.560802 0.823147 0.070053
H37   H     H_    0.463781 0.643871 0.932443 0.058197
H38   H     H_    0.558790 0.659801 0.058200 0.056939
H39   H     H_    0.286391 0.429873 0.187775 0.068754
H40   H     H_    0.238337 0.318948 0.948642 0.057806
H41   H     H_    0.757860 0.762592 0.210601 -0.026256
H42   H     H_    0.331310 0.335954 0.075234 0.049643
H43   H     H_    0.050947 0.382403 0.862927 0.072109
H44   H     H_    0.755380 0.585946 0.137444 0.066827
H45   H     H_    0.152659 0.450099 0.650841 0.063975
H46   H     H_    0.661489 0.547150 0.354376 0.072740
H47   H     H_    0.039643 0.932216 0.184473 0.153007
H48   H     H_    0.923315 0.831112 0.121769 0.096933
H49   H     H_    0.615483 0.308726 0.344807 0.067988
O1    O     O_2   0.160820 0.763040 0.533820 -0.475240
O2    O     O_3   0.312930 0.276383 0.327377 -0.668843
O3    O     O_3   0.002424 0.762954 0.251934 -0.584154
O4    O     O_2   0.649470 0.236890 0.466160 -0.468750
O5    O     O_3   0.919320 0.371390 0.464540 -0.467704
O6    O     O_3   0.424350 0.301430 0.591880 -0.457717
O7    O     O_3   0.817876 0.229220 0.352432 -0.668919
O8    O     O_3   0.382770 0.553920 0.582990 -0.477065
O9    O     O_3   0.848220 0.355290 0.626830 -0.477366
O10   O     O_2   0.754081 0.427118 0.751229 -0.480507
O11   O     O_3   0.805964 0.229371 0.744178 -0.587685
O12   O     O_3   0.890970 0.628600 0.535400 -0.489177
O13   O     O_3   0.427530 0.446070 0.416950 -0.462084
O14   O     O_2   0.637430 0.550200 0.669460 -0.458544
O15   O     O_3   0.500266 0.727358 0.685823 -0.661425
O16   O     O_2   0.505292 0.114388 0.548133 -0.476693
O17   O     O_3   0.440425 0.135096 0.680385 -0.591860
O18   O     O_3   0.385950 0.698560 0.408070 -0.488095
O19   O     O_2   0.312667 0.887980 0.454457 -0.493940
O20   O     O_3   0.996087 0.790342 0.645948 -0.664650
O21   O     O_3   0.387483 0.872296 0.322717 -0.572824
O22   O     O_2   0.172860 0.449730 0.330520 -0.464998
O23   O     O_3   0.962080 0.644700 0.373110 -0.464164
O24   O     O_2   0.055070 0.566991 0.250554 -0.482957
P1    P     P_3+3 0.986780 0.745970 0.554690 0.961994
P2    P     P_3+3 0.341450 0.417130 0.341310 0.976541
P3    P     P_3+3 0.932679 0.637067 0.279997 0.959239
P4    P     P_3+3 0.823520 0.254020 0.445250 0.977636
P5    P     P_3+3 0.874065 0.356829 0.719506 0.962435
P6    P     P_3+3 0.433574 0.837420 0.408685 0.962113
P7    P     P_3+3 0.464488 0.587659 0.670751 0.926048
P8    P     P_3+3 0.382153 0.162850 0.593771 0.966982
C45   C     C_3   0.970773 0.640559 0.712303 -0.299060
H50   H     H_    0.938645 0.581609 0.665322 0.137749
H51   H     H_    0.025908 0.601013 0.755562 0.033534
H52   H     H_    0.860032 0.668956 0.731917 0.131574
C46   C     C_3   0.244168 0.917071 0.744985 -0.336868
H53   H     H_    0.370228 0.903655 0.736343 0.146962
H54   H     H_    0.190551 0.950416 0.697944 0.122993
H55   H     H_    0.249669 0.977547 0.791087 0.094843
C47   C     C_3   0.237062 0.763754 0.820211 -0.470118
H56   H     H_    0.157031 0.702377 0.845224 0.117318
H57   H     H_    0.340040 0.728280 0.798776 0.141848
H58   H     H_    0.287983 0.826102 0.863717 0.130189
O25   O     O_3   0.196699 0.047403 0.299950 -0.629811
C48   C     C_3   0.101853 0.012889 0.355031 0.296097
H59   H     H_    0.972175 0.026955 0.348616 -0.067585
H60   H     H_    0.160680 0.053412 0.406264 0.032473
H61   H     H_    0.099783 0.925604 0.356993 0.126094
C49   C     C_3   0.725850 0.294790 0.246028 -0.401163
H62   H     H_    0.813752 0.369445 0.258630 0.118350
H63   H     H_    0.785987 0.236798 0.213853 0.102043
H64   H     H_    0.617471 0.312644 0.213744 0.068191

loop_
_geom_bond_atom_site_label_1
_geom_bond_atom_site_label_2
_ccdc_geom_bond_type
C42   C47   S    
Ba2   O14   S    
C23   H47   S    
C34   C40   S    
C7    H26   S    
O13   P2    S    
C45   H50   S    
C49   H62   S    
C5    C6    S    
C21   P2    S    
Ba2   P4    S    
C9    C17   A    
C6    H23   S    
C7    H27   S    
C11   C16   A    
C30   H40   S    
O4    P4    D    
C33   C35   A    
C31   H42   S    
C22   C24   A    
C12   H41   S    
C16   C17   A    
C48   H60   S    
C36   C37   A    
C26   P3    S    
O18   P6    S    
C3    O15   S    
Ba2   O12   S    
C29   C38   S    
C25   H44   S    
C34   O7    S    
Ba1   Ba2   S    
O23   P3    S    
C4    H18   S    
C28   H37   S    
O8    P7    S    
O22   P2    D    
O17   P8    S    
O2    P2    S    
C49   H63   S    
C5    H22   S    
C1    H9    S    
C24   C32   S    
C10   C14   A    
C14   C15   A    
C21   C22   A    
C7    C8    S    
Ba1   O8    S    
C41   O20   S    
C42   H6    S    
C7    O17   S    
Ba2   O5    S    
C23   H48   S    
C20   C26   A    
C1    H19   S    
Ba1   O18   S    
C47   H58   S    
Ba1   O5    S    
C36   P7    S    
C8    H31   S    
C2    O21   S    
C12   O3    S    
C9    C18   A    
O15   P7    S    
C46   H55   S    
O25   C48   S    
C27   H38   S    
C47   H57   S    
C48   H61   S    
C37   C38   A    
O19   P6    D    
C46   H53   S    
C40   H2    S    
C40   H3    S    
Ba2   O6    S    
C43   C44   S    
C5    H21   S    
C27   C32   A    
C15   C19   A    
O10   P5    D    
Ba1   P1    S    
C12   H30   S    
C4    H17   S    
C41   C42   S    
C27   C28   A    
C35   P5    S    
C8    H29   S    
C34   C49   S    
C29   C30   A    
C10   C13   A    
Ba2   O9    S    
C28   C29   A    
C17   P4    S    
C19   H33   S    
C15   C16   A    
C24   C25   A    
C5    O11   S    
C3    H15   S    
Ba1   O22   S    
C36   C39   A    
C33   H43   S    
C39   H45   S    
C40   H4    S    
Ba2   O4    S    
O21   P6    S    
C11   C13   A    
C44   H11   S    
O16   P8    D    
C44   H10   S    
O7    P4    S    
C45   H52   S    
O12   P1    S    
C49   H64   S    
C44   O25   S    
C18   P8    S    
C22   H39   S    
O24   P3    D    
O3    P3    S    
C11   H32   S    
C6    H25   S    
C3    H14   S    
O1    P1    D    
C23   H20   S    
C37   H36   S    
C47   H56   S    
C45   H51   S    
C41   C45   S    
C43   H8    S    
O9    P5    S    
C42   C46   S    
C6    H24   S    
O5    P4    S    
C30   C31   A    
C4    H16   S    
C14   P1    S    
C33   C38   A    
C43   O2    S    
C48   H59   S    
C8    H28   S    
C34   H49   S    
C41   H5    S    
C3    C4    S    
Ba2   O8    S    
Ba1   O1    S    
Ba2   O13   S    
O6    P8    S    
C31   C32   A    
C10   H35   S    
Ba1   O23   S    
C12   C23   S    
C35   C39   A    
Ba1   P2    S    
C9    H34   S    
Ba1   O13   S    
C43   H7    S    
Ba1   O12   S    
O14   P7    D    
C18   C19   A    
C46   H54   S    
O20   P1    S    
C13   P6    S    
C2    H12   S    
C25   C26   A    
C20   H46   S    
C20   C21   A    
O11   P5    S    
C1    C2    S    
C2    H1    S    
C1    H13   S    
