data_mof_unit_20054.cif
_audit_creation_date              2012-12-10T19:44:39-0500
_audit_creation_method            fapswitch 2.2
_symmetry_space_group_name_H-M    P1
_symmetry_Int_Tables_number       1
_space_group_crystal_system       triclinic
_cell_length_a                    8.594014
_cell_length_b                    15.026989
_cell_length_c                    14.314925
_cell_angle_alpha                 88.423155
_cell_angle_beta                  97.478655
_cell_angle_gamma                 91.882747
_cell_volume                      1831.44105029

loop_
_atom_site_label
_atom_site_type_symbol
_atom_type_description
_atom_site_fract_x
_atom_site_fract_y
_atom_site_fract_z
_atom_type_partial_charge
C1    C     C_R   0.497821 0.328471 0.500729 0.912447
C2    C     C_R   0.363390 0.485029 0.886768 -0.335821
C3    C     C_R   0.501594 0.496072 0.054194 0.084275
C4    C     C_R   0.502027 0.496400 0.948237 0.113613
C5    C     C_R   0.201667 0.500635 0.475592 0.956870
C6    C     C_R   0.798121 0.503121 0.523906 0.987567
C7    C     C_2   0.036872 0.499021 0.462024 -0.393451
C8    C     C_2   0.962196 0.512622 0.535225 -0.385311
C9    C     C_R   0.362095 0.092399 0.486998 -0.193491
C10   C     C_R   0.589199 0.908068 0.437142 -0.249640
C11   C     C_R   0.360428 0.182520 0.503197 0.149749
C12   C     C_R   0.499528 0.671867 0.499152 0.925631
C13   C     C_R   0.599346 0.816521 0.444087 0.166319
C14   C     C_R   0.500265 0.233151 0.501228 -0.157304
C15   C     C_R   0.499760 0.767910 0.498391 -0.141893
C16   C     C_R   0.643173 0.192556 0.494393 0.098976
C17   C     C_R   0.402747 0.811287 0.553885 0.081728
C18   C     C_R   0.647890 0.099118 0.498124 0.170441
C19   C     C_R   0.409532 0.904521 0.556382 0.169945
C20   C     C_R   0.504331 0.049570 0.491335 0.030831
C21   C     C_R   0.499851 0.952477 0.494809 0.044728
C22   C     C_3   0.183362 0.180311 0.619428 -0.813445
C23   C     C_R   0.392834 0.444368 0.099347 -0.336332
C24   C     C_3   0.856860 0.756274 0.469117 -0.812891
C25   C     C_3   0.825548 0.265327 0.399560 -0.765266
C26   C     C_3   0.345013 0.745323 0.704025 -0.709664
C27   C     C_3   0.843579 0.021896 0.604674 -0.822809
C28   C     C_3   0.426079 0.982677 0.703554 -0.794779
C29   C     C_3   0.121276 0.416068 0.218279 -0.785618
C30   C     C_3   0.816041 0.629465 0.762144 -0.797115
C31   C     C_3   0.861592 0.641024 0.227904 -0.872364
C32   C     C_3   0.177735 0.377920 0.718784 -0.779724
C33   C     C_R   0.640049 0.510730 0.906654 -0.347415
C34   C     C_R   0.391863 0.447876 0.198091 0.327086
C35   C     C_R   0.637344 0.514877 0.807464 0.328096
C36   C     C_R   0.613435 0.547769 0.210908 0.306899
C37   C     C_R   0.363736 0.485614 0.788007 0.304762
C38   C     C_R   0.611090 0.548108 0.111604 -0.280251
H1    H     H_    0.977140 0.483510 0.392394 0.198957
H2    H     H_    0.285598 0.186698 0.675286 0.249522
H3    H     H_    0.148886 0.108972 0.611791 0.267263
H4    H     H_    0.084099 0.214729 0.642788 0.224243
H5    H     H_    0.747074 0.806029 0.342035 0.227617
H6    H     H_    0.912996 0.819648 0.496687 0.239369
H7    H     H_    0.942919 0.720612 0.433792 0.238801
H8    H     H_    0.825668 0.713538 0.528874 0.237467
H9    H     H_    0.874767 0.226055 0.539925 0.241204
H10   H     H_    0.853980 0.203101 0.366158 0.221848
H11   H     H_    0.930574 0.310786 0.405340 0.234184
H12   H     H_    0.021076 0.531823 0.603252 0.191923
H13   H     H_    0.728851 0.298245 0.353856 0.266379
H14   H     H_    0.179912 0.776759 0.588243 0.205892
H15   H     H_    0.301371 0.678352 0.724982 0.237689
H16   H     H_    0.475034 0.748074 0.720820 0.240223
H17   H     H_    0.294386 0.795615 0.745792 0.213592
H18   H     H_    0.883892 0.086738 0.479785 0.239494
H19   H     H_    0.753902 0.974961 0.628725 0.263149
H20   H     H_    0.953702 0.985109 0.605846 0.229087
H21   H     H_    0.864676 0.078114 0.654000 0.235941
H22   H     H_    0.224927 0.919886 0.636145 0.219096
H23   H     H_    0.252108 0.054243 0.479886 0.166929
H24   H     H_    0.486503 0.926819 0.744030 0.239179
H25   H     H_    0.352167 0.015918 0.749484 0.232463
H26   H     H_    0.514801 0.032357 0.683400 0.257637
H27   H     H_    0.299924 0.325960 0.233416 0.208342
H28   H     H_    0.047635 0.375202 0.262284 0.233504
H29   H     H_    0.080005 0.403150 0.142929 0.215334
H30   H     H_    0.106675 0.487348 0.232343 0.258961
H31   H     H_    0.873989 0.501531 0.806739 0.196911
H32   H     H_    0.834514 0.660267 0.832592 0.219540
H33   H     H_    0.719348 0.662987 0.717151 0.262642
H34   H     H_    0.658789 0.945067 0.390499 0.163175
H35   H     H_    0.924832 0.639590 0.728485 0.222865
H36   H     H_    0.701611 0.624746 0.325163 0.298077
H37   H     H_    0.917803 0.596469 0.182519 0.246349
H38   H     H_    0.953663 0.663401 0.284628 0.251543
H39   H     H_    0.815354 0.700359 0.186718 0.240794
H40   H     H_    0.128894 0.504595 0.754939 0.194802
H41   H     H_    0.157764 0.345070 0.786922 0.215361
H42   H     H_    0.273674 0.344786 0.689801 0.274789
H43   H     H_    0.068503 0.371194 0.668496 0.240945
H44   H     H_    0.309560 0.400305 0.058675 0.149358
H45   H     H_    0.751636 0.519517 0.950571 0.142011
H46   H     H_    0.693203 0.589978 0.078265 0.157805
H47   H     H_    0.252680 0.475620 0.914748 0.143554
H48   H     H_    0.215024 0.286706 0.526428 0.221945
N1    N     N_R   0.500000 0.499980 0.252470 -0.148007
N2    N     N_2   0.780452 0.535130 0.771393 -0.262356
N3    N     N_2   0.736258 0.593866 0.268965 -0.282013
N4    N     N_2   0.218615 0.470936 0.731681 -0.273931
N5    N     N_R   0.500000 0.500020 0.747530 -0.116054
N6    N     N_2   0.222231 0.218390 0.530749 -0.305855
N7    N     N_2   0.718762 0.774491 0.402780 -0.301999
N8    N     N_2   0.782194 0.246442 0.492569 -0.311839
N9    N     N_2   0.296110 0.760607 0.604320 -0.297881
N10   N     N_2   0.794116 0.055042 0.509965 -0.314175
N11   N     N_2   0.328248 0.949995 0.620872 -0.314598
N12   N     N_2   0.283926 0.392819 0.241986 -0.255826
O1    O     O_R   0.500010 0.369070 0.579480 -0.626499
O2    O     O_R   0.499990 0.630930 0.420520 -0.640167
O3    O     O_R   0.500010 0.369060 0.420520 -0.612295
O4    O     O_R   0.499990 0.630940 0.579480 -0.606866
O5    O     O_R   0.271750 0.500000 0.560890 -0.582710
O6    O     O_R   0.728250 0.500000 0.439110 -0.618171
O7    O     O_R   0.271750 0.499990 0.401930 -0.607797
O8    O     O_R   0.728250 0.500010 0.598070 -0.596167
Zn1   Zn    Zn3+2 0.500000 0.500010 0.606140 0.962740
Zn2   Zn    Zn3+2 0.500000 0.499990 0.393860 0.949335

loop_
_geom_bond_atom_site_label_1
_geom_bond_atom_site_label_2
_ccdc_geom_bond_type
C28   N11   S    
C36   N3    S    
C5    O5    A    
C23   H44   S    
C1    O3    A    
C18   N10   S    
C3    C23   A    
C34   N12   S    
C26   H17   S    
C1    O1    A    
C30   H33   S    
C19   N11   S    
C7    C8    D    
C5    O7    A    
H40   N4    S    
C32   H43   S    
C29   N12   S    
C2    H47   S    
C9    H23   S    
C24   H7    S    
H36   N3    S    
C19   C21   A    
H27   N12   S    
C28   H24   S    
C11   C14   A    
C22   H3    S    
O8    Zn1   S    
H14   N9    S    
C15   C17   A    
C33   C35   A    
C29   H29   S    
C11   N6    S    
C32   N4    S    
N1    Zn2   S    
C3    C38   A    
C31   N3    S    
C17   N9    S    
C6    O6    A    
O3    Zn2   S    
C25   N8    S    
C10   C21   A    
C27   N10   S    
C26   H16   S    
C30   H32   S    
C31   H39   S    
C36   N1    A    
O7    Zn2   S    
O2    Zn2   S    
C37   N5    A    
N5    Zn1   S    
H22   N11   S    
C27   H19   S    
C5    C7    S    
C30   H35   S    
C6    C8    S    
C27   H20   S    
C13   N7    S    
C2    C4    A    
C25   H13   S    
C12   O4    A    
C32   H42   S    
C29   H30   S    
C33   H45   S    
C35   N2    S    
C9    C20   A    
C31   H37   S    
C12   C15   S    
C23   C34   A    
C22   H2    S    
C6    O8    A    
O4    Zn1   S    
C9    C11   A    
C25   H10   S    
H31   N2    S    
C37   N4    S    
C13   C15   A    
C24   H6    S    
C14   C16   A    
C30   N2    S    
C3    C4    S    
H48   N6    S    
C26   H15   S    
C8    H12   S    
O6    Zn2   S    
C28   H26   S    
C26   N9    S    
H18   N10   S    
C4    C33   A    
C7    H1    S    
C38   H46   S    
C10   C13   A    
O1    Zn1   S    
C16   N8    S    
H5    N7    S    
C24   H8    S    
C36   C38   A    
C27   H21   S    
C24   N7    S    
C32   H41   S    
C2    C37   A    
C31   H38   S    
C22   H4    S    
C17   C19   A    
H9    N8    S    
C18   C20   A    
C34   N1    A    
C25   H11   S    
C12   O2    A    
C29   H28   S    
C28   H25   S    
C20   C21   S    
C16   C18   A    
C22   N6    S    
O5    Zn1   S    
C1    C14   S    
C10   H34   S    
C35   N5    A    
