data_mof_unit_49120.cif
_audit_creation_date              2012-12-10T18:22:21-0500
_audit_creation_method            fapswitch 2.2
_symmetry_space_group_name_H-M    P1
_symmetry_Int_Tables_number       1
_space_group_crystal_system       triclinic
_cell_length_a                    14.975885
_cell_length_b                    14.028893
_cell_length_c                    15.71609
_cell_angle_alpha                 90.303392
_cell_angle_beta                  89.744163
_cell_angle_gamma                 90.713511
_cell_volume                      3301.53905011

loop_
_atom_site_label
_atom_site_type_symbol
_atom_type_description
_atom_site_fract_x
_atom_site_fract_y
_atom_site_fract_z
_atom_type_partial_charge
C1    C     C_R   0.326660 0.499603 0.500544 0.884842
C2    C     C_R   0.905116 0.432559 0.554344 0.044708
C3    C     C_R   0.953431 0.503812 0.510036 0.004017
C4    C     C_R   0.500740 0.499691 0.338252 0.914044
C5    C     C_R   0.908191 0.575773 0.465287 0.119371
C6    C     C_R   0.949530 0.363290 0.602189 0.150806
C7    C     C_R   0.043832 0.362642 0.603833 0.107154
C8    C     C_R   0.092098 0.430881 0.554421 0.065844
C9    C     C_R   0.046433 0.502869 0.509383 -0.031130
C10   C     C_R   0.093926 0.574164 0.463156 0.105998
C11   C     C_R   0.048165 0.646039 0.419240 0.208347
C12   C     C_3   0.623378 0.449043 0.944890 0.223661
C13   C     C_R   0.955336 0.646699 0.421619 -0.301173
C14   C     C_R   0.185237 0.429637 0.548481 -0.239476
C15   C     C_R   0.230968 0.499645 0.502927 -0.085676
C16   C     C_R   0.673287 0.500617 0.500584 0.883785
C17   C     C_R   0.186379 0.572380 0.462185 -0.251526
C18   C     C_R   0.571791 0.799790 0.469462 -0.062352
C19   C     C_R   0.571898 0.201663 0.469733 -0.064683
C20   C     C_R   0.427306 0.796072 0.531236 -0.049433
C21   C     C_R   0.426516 0.202153 0.529488 -0.051453
C22   C     C_R   0.423216 0.897337 0.533123 -0.061494
C23   C     C_3   0.623313 0.444975 0.052052 0.266428
C24   C     C_R   0.421503 0.100688 0.529101 -0.048075
C25   C     C_R   0.497067 0.949340 0.500753 0.039455
C26   C     C_R   0.496928 0.050382 0.500398 0.036531
C27   C     C_R   0.572225 0.900058 0.469286 0.048779
C28   C     C_R   0.572344 0.101367 0.469583 0.047123
C29   C     C_R   0.347505 0.947234 0.564850 0.130934
C30   C     C_R   0.343873 0.048923 0.556295 0.143288
C31   C     C_R   0.646433 0.051391 0.438753 -0.212524
C32   C     C_R   0.646272 0.951655 0.438380 -0.211694
C33   C     C_R   0.499625 0.500218 0.661820 0.907192
C34   C     C_1   0.519127 0.498933 0.825001 0.085301
C35   C     C_3   0.515769 0.602994 0.052206 0.199843
C36   C     C_3   0.443883 0.417621 0.050886 0.288687
C37   C     C_3   0.443215 0.433092 0.950116 -0.206765
C38   C     C_3   0.515131 0.600012 0.951179 -0.116670
C39   C     C_1   0.508321 0.500512 0.750181 -0.264597
C40   C     C_3   0.525297 0.489047 0.083504 0.000983
C41   C     C_3   0.528647 0.494002 0.916392 0.079376
C42   C     C_3   0.091537 0.292779 0.661395 -0.403923
C43   C     C_3   0.126753 0.342301 0.741428 -0.878421
C44   C     C_3   0.117076 0.689917 0.286084 -0.819326
C45   C     C_1   0.518221 0.492641 0.175026 -0.037646
C46   C     C_3   0.272941 0.892296 0.610367 -0.423095
C47   C     C_3   0.201686 0.856516 0.548171 -0.847303
C48   C     C_3   0.256525 0.102063 0.570178 -0.432106
C49   C     C_3   0.218843 0.137388 0.485701 -0.873961
C50   C     C_3   0.429649 0.658875 0.088433 -0.329955
C51   C     C_3   0.342232 0.667539 0.037046 -1.023559
C52   C     C_3   0.347308 0.444903 0.088695 -0.376661
C53   C     C_3   0.300117 0.384503 0.156854 -0.890779
C54   C     C_3   0.454665 0.305774 0.069713 -0.202760
C55   C     C_3   0.464275 0.266171 0.160684 -0.827363
C56   C     C_1   0.509410 0.497969 0.249892 -0.259562
C57   C     C_3   0.598973 0.665217 0.088901 -0.369934
C58   C     C_3   0.596936 0.773734 0.108342 -0.969805
C59   C     C_3   0.410643 0.345500 0.893625 -0.371790
C60   C     C_3   0.309921 0.324375 0.899373 -0.953446
C61   C     C_3   0.560852 0.687911 0.905778 -0.370386
C62   C     C_3   0.525162 0.714771 0.817410 -0.883853
C63   C     C_3   0.790998 0.473487 0.080686 -0.862177
C64   C     C_3   0.665632 0.328974 0.172206 -0.765518
C65   C     C_3   0.707767 0.510457 0.912654 -0.293472
C66   C     C_3   0.723995 0.540872 0.819899 -0.899854
C67   C     C_R   0.815853 0.575014 0.463573 -0.243180
C68   C     C_3   0.638029 0.345697 0.903472 -0.375006
C69   C     C_3   0.626064 0.325612 0.807709 -0.824726
C70   C     C_3   0.881982 0.318554 0.737926 -0.807940
C71   C     C_R   0.768737 0.502331 0.504250 -0.082160
C72   C     C_R   0.812239 0.432087 0.549801 -0.228992
H1    H     H_    0.446724 0.614743 0.931713 0.196167
H2    H     H_    0.704551 0.089524 0.414719 0.136357
H3    H     H_    0.704286 0.914789 0.414098 0.134339
H4    H     H_    0.780536 0.629398 0.428747 0.141116
H5    H     H_    0.772839 0.377929 0.582219 0.183853
H6    H     H_    0.180251 0.394812 0.725750 0.257717
H7    H     H_    0.071918 0.379591 0.775146 0.268802
H8    H     H_    0.154385 0.288103 0.784771 0.245955
H9    H     H_    0.048034 0.232842 0.681849 0.209611
H10   H     H_    0.146282 0.257622 0.626881 0.195004
H11   H     H_    0.065051 0.783495 0.374844 0.226718
H12   H     H_    0.387293 0.481392 0.937099 0.164160
H13   H     H_    0.055148 0.678932 0.248359 0.241489
H14   H     H_    0.156301 0.623210 0.285387 0.249220
H15   H     H_    0.158041 0.747016 0.255858 0.240743
H16   H     H_    0.169387 0.917151 0.515968 0.260693
H17   H     H_    0.231546 0.809327 0.499086 0.263906
H18   H     H_    0.149674 0.815311 0.583224 0.248455
H19   H     H_    0.299829 0.831449 0.646495 0.191303
H20   H     H_    0.242332 0.935080 0.661970 0.189459
H21   H     H_    0.262963 0.191967 0.456059 0.264146
H22   H     H_    0.210558 0.076722 0.440595 0.264454
H23   H     H_    0.224108 0.376145 0.580046 0.159137
H24   H     H_    0.152373 0.169570 0.496406 0.239646
H25   H     H_    0.202846 0.058549 0.599163 0.218228
H26   H     H_    0.267153 0.161686 0.615631 0.180273
H27   H     H_    0.320229 0.601841 0.004703 0.250002
H28   H     H_    0.287541 0.689899 0.080480 0.267387
H29   H     H_    0.349659 0.723556 0.987571 0.266998
H30   H     H_    0.415481 0.638823 0.155269 0.194100
H31   H     H_    0.443414 0.735213 0.096858 0.248328
H32   H     H_    0.282062 0.312530 0.132559 0.257388
H33   H     H_    0.339823 0.382154 0.216168 0.278664
H34   H     H_    0.224534 0.626629 0.428615 0.183850
H35   H     H_    0.235966 0.418764 0.174252 0.238785
H36   H     H_    0.349592 0.513082 0.120498 0.241893
H37   H     H_    0.296905 0.450179 0.037657 0.202399
H38   H     H_    0.488404 0.318419 0.207595 0.289257
H39   H     H_    0.400757 0.234804 0.184624 0.232059
H40   H     H_    0.510219 0.204768 0.159420 0.230169
H41   H     H_    0.395985 0.266769 0.044657 0.194896
H42   H     H_    0.507399 0.273756 0.031859 0.158769
H43   H     H_    0.567716 0.818291 0.058351 0.253779
H44   H     H_    0.560765 0.787750 0.169028 0.259610
H45   H     H_    0.920002 0.701571 0.387535 0.143166
H46   H     H_    0.666420 0.800157 0.118200 0.257206
H47   H     H_    0.614361 0.639175 0.153068 0.216030
H48   H     H_    0.658036 0.656902 0.048271 0.220186
H49   H     H_    0.287053 0.306497 0.964307 0.267732
H50   H     H_    0.271690 0.386674 0.876906 0.262127
H51   H     H_    0.293565 0.262499 0.857688 0.252797
H52   H     H_    0.420188 0.359683 0.825256 0.227091
H53   H     H_    0.447776 0.279406 0.905270 0.200498
H54   H     H_    0.562914 0.679571 0.765857 0.274446
H55   H     H_    0.452795 0.698352 0.810875 0.254204
H56   H     H_    0.628632 0.761168 0.445045 0.128528
H57   H     H_    0.534566 0.792601 0.807193 0.241433
H58   H     H_    0.543712 0.750870 0.943747 0.234795
H59   H     H_    0.634186 0.685854 0.903585 0.223616
H60   H     H_    0.687402 0.516370 0.153243 0.240672
H61   H     H_    0.829176 0.530155 0.046943 0.239661
H62   H     H_    0.798225 0.404129 0.047295 0.243343
H63   H     H_    0.823099 0.466955 0.144072 0.239707
H64   H     H_    0.671583 0.301297 0.047868 0.207994
H65   H     H_    0.647990 0.255091 0.190898 0.224929
H66   H     H_    0.637337 0.377938 0.219686 0.249695
H67   H     H_    0.628969 0.241398 0.445697 0.136476
H68   H     H_    0.739328 0.332865 0.176488 0.234705
H69   H     H_    0.754450 0.483479 0.781454 0.253394
H70   H     H_    0.665955 0.570019 0.787855 0.277494
H71   H     H_    0.774921 0.599177 0.819701 0.232663
H72   H     H_    0.715767 0.575340 0.950805 0.190929
H73   H     H_    0.768488 0.468995 0.924615 0.208218
H74   H     H_    0.555504 0.312357 0.791324 0.244382
H75   H     H_    0.652653 0.381114 0.765517 0.274706
H76   H     H_    0.660714 0.258435 0.791170 0.223991
H77   H     H_    0.707400 0.323225 0.917291 0.179842
H78   H     H_    0.372354 0.752222 0.552853 0.158497
H79   H     H_    0.594835 0.292091 0.933077 0.171513
H80   H     H_    0.909540 0.224560 0.636231 0.214448
H81   H     H_    0.926856 0.276846 0.779186 0.239077
H82   H     H_    0.812039 0.299760 0.754304 0.245276
H83   H     H_    0.892736 0.395821 0.751011 0.248802
H84   H     H_    0.372436 0.244588 0.553556 0.149702
N1    N     N_R   0.500070 0.750030 0.500040 -0.105963
N2    N     N_R   0.500070 0.249970 0.500040 -0.105445
N3    N     N_2   0.094960 0.717665 0.372374 -0.318071
N4    N     N_2   0.697761 0.501437 0.089877 -0.317947
N5    N     N_2   0.635375 0.346648 0.085298 -0.285363
N6    N     N_2   0.898063 0.295439 0.649327 -0.315460
O1    O     O_R   0.367860 0.580280 0.500020 -0.633524
O2    O     O_R   0.367860 0.419720 0.500020 -0.632469
O3    O     O_R   0.500020 0.580310 0.377140 -0.610801
O4    O     O_R   0.500020 0.419690 0.377140 -0.614926
O5    O     O_R   0.632160 0.580270 0.499980 -0.626399
O6    O     O_R   0.632160 0.419730 0.499980 -0.631684
O7    O     O_R   0.500010 0.580240 0.622850 -0.612708
O8    O     O_R   0.500010 0.419760 0.622850 -0.615399
Zn1   Zn    Zn3+2 0.500020 0.607200 0.499990 0.939360
Zn2   Zn    Zn3+2 0.500020 0.392800 0.499990 0.934428

loop_
_geom_bond_atom_site_label_1
_geom_bond_atom_site_label_2
_ccdc_geom_bond_type
O3    Zn1   S    
O4    Zn2   S    
C22   C29   A    
C55   H40   S    
C70   H81   S    
C47   H17   S    
C21   N2    A    
C42   H10   S    
C5    C67   A    
C33   O7    A    
C32   H3    S    
C11   N3    S    
C7    C8    A    
C66   H69   S    
C64   H66   S    
C43   H6    S    
C48   H25   S    
C12   C68   S    
C12   C23   S    
C33   C39   S    
C63   H61   S    
C30   C48   S    
C36   C37   S    
C24   C26   A    
C62   H55   S    
C2    C72   A    
C46   H20   S    
C16   O5    A    
C43   H7    S    
C23   C40   S    
C54   H41   S    
C58   H46   S    
C4    O3    A    
C7    C42   S    
C68   H77   S    
C18   H56   S    
C54   C55   S    
C6    N6    S    
C45   C56   T    
C4    O4    A    
C8    C9    A    
C22   C25   A    
C37   H12   S    
C1    C15   S    
C49   H22   S    
C44   H15   S    
O1    Zn1   S    
C9    C10   A    
C5    C13   A    
C61   C62   S    
C36   C52   S    
C57   H47   S    
C38   C61   S    
C50   H31   S    
C16   C71   S    
C4    C56   S    
C58   H44   S    
C69   H74   S    
O7    Zn1   S    
C62   H57   S    
C2    C6    A    
C42   H9    S    
C63   N4    S    
C44   H14   S    
C33   O8    A    
C70   N6    S    
H64   N5    S    
C51   H27   S    
C40   C45   S    
C34   C39   T    
C63   H62   S    
C36   C40   S    
C35   C38   S    
C1    O2    A    
C38   C41   S    
C62   H54   S    
C65   H72   S    
C68   C69   S    
C31   H2    S    
O5    Zn1   S    
C46   H19   S    
C43   H8    S    
C70   H83   S    
C63   H63   S    
C60   H51   S    
C34   C41   S    
C72   H5    S    
C3    C9    A    
C53   H35   S    
C10   C17   A    
C31   C32   A    
O6    Zn2   S    
C59   H52   S    
C23   N4    S    
C35   C50   S    
C50   C51   S    
H60   N4    S    
C60   H50   S    
C19   C28   A    
C1    O1    A    
C37   C59   S    
C61   H58   S    
C57   H48   S    
C48   C49   S    
C20   C22   A    
C50   H30   S    
C20   N1    A    
C55   H38   S    
C58   H43   S    
C69   H75   S    
C47   H18   S    
O2    Zn2   S    
C59   H53   S    
C42   C43   S    
C65   H73   S    
C44   H13   S    
C14   H23   S    
C52   C53   S    
C12   C41   S    
C64   H68   S    
C51   H28   S    
C15   C17   A    
C46   C47   S    
C8    C14   A    
C55   H39   S    
C27   C32   A    
C70   H82   S    
C19   N2    A    
C28   C31   A    
C18   C27   A    
C64   N5    S    
C3    C5    A    
C13   H45   S    
C6    C7    A    
C66   H70   S    
C25   C27   A    
C48   H26   S    
C12   C65   S    
C26   C28   A    
C29   C46   S    
C35   C57   S    
C69   H76   S    
C47   H16   S    
C2    C3    A    
C25   C26   A    
C71   C72   A    
C18   N1    A    
C17   H34   S    
N1    Zn1   S    
C11   C13   A    
N2    Zn2   S    
C57   C58   S    
O8    Zn2   S    
C52   H37   S    
C16   O6    A    
C54   H42   S    
C21   H84   S    
C20   H78   S    
C35   C40   S    
C67   C71   A    
C49   H24   S    
C37   C41   S    
C60   H49   S    
C24   C30   A    
C36   C54   S    
C10   C11   A    
C61   H59   S    
C29   C30   A    
C53   H33   S    
C59   C60   S    
H11   N3    S    
C52   H36   S    
C19   H67   S    
C65   C66   S    
C21   C24   A    
C64   H65   S    
C68   H79   S    
C44   N3    S    
C14   C15   A    
C67   H4    S    
C53   H32   S    
C49   H21   S    
C66   H71   S    
H80   N6    S    
C51   H29   S    
C23   N5    S    
C38   H1    S    
