data_mof_unit_7167.cif
_audit_creation_date              2012-12-11T14:19:29-0500
_audit_creation_method            fapswitch 2.2
_symmetry_space_group_name_H-M    P1
_symmetry_Int_Tables_number       1
_space_group_crystal_system       triclinic
_cell_length_a                    19.322522
_cell_length_b                    7.217708
_cell_length_c                    17.887389
_cell_angle_alpha                 90.000552
_cell_angle_beta                  107.491511
_cell_angle_gamma                 89.999731
_cell_volume                      2379.30356226

loop_
_atom_site_label
_atom_site_type_symbol
_atom_type_description
_atom_site_fract_x
_atom_site_fract_y
_atom_site_fract_z
_atom_type_partial_charge
O1    O     O_R   0.414820 0.494320 0.416790 -0.512769
O2    O     O_R   0.585180 0.994320 0.583210 -0.512778
O3    O     O_R   0.560270 0.819500 0.430140 -0.538333
O4    O     O_R   0.439730 0.319500 0.569860 -0.538338
C1    C     C_R   0.578709 0.654892 0.412160 0.697583
C2    C     C_R   0.421291 0.154893 0.587840 0.697569
O5    O     O_R   0.413840 0.823740 0.407440 -0.559000
O6    O     O_R   0.586160 0.323740 0.592560 -0.559001
O7    O     O_R   0.437710 0.998590 0.560350 -0.544548
O8    O     O_R   0.562290 0.498590 0.439650 -0.544549
C3    C     C_R   0.387153 0.655451 0.385785 0.645768
C4    C     C_R   0.612846 0.155451 0.614216 0.645788
O9    O     O_3   0.508000 0.662290 0.550200 -0.377573
O10   O     O_3   0.492000 0.162290 0.449800 -0.377572
V1    V     V_3+5 0.498520 0.935380 0.490690 1.424997
V2    V     V_3+5 0.501480 0.435380 0.509310 1.424994
C5    C     C_2   0.794449 0.263036 0.772974 0.172342
C6    C     C_2   0.205536 0.763022 0.227041 0.172328
C7    C     C_2   0.817099 0.118087 0.822860 -0.281256
C8    C     C_2   0.182897 0.618087 0.177143 -0.281313
H1    H     H_    0.779081 0.007061 0.822825 0.148862
H2    H     H_    0.220922 0.507080 0.177173 0.148876
C9    C     C_2   0.715872 0.278353 0.726856 0.017359
C10   C     C_2   0.284112 0.778365 0.273159 0.017351
C11   C     C_2   0.684917 0.143103 0.674382 0.418095
C12   C     C_2   0.315079 0.643102 0.325622 0.418091
C13   C     C_R   0.318897 0.276470 0.629080 -0.235294
C14   C     C_R   0.681099 0.776481 0.370918 -0.235310
C15   C     C_R   0.374928 0.146250 0.640634 -0.116860
C16   C     C_R   0.625073 0.646248 0.359367 -0.116862
C17   C     C_R   0.384708 0.011385 0.700475 0.120527
C18   C     C_R   0.615298 0.511375 0.299529 0.120527
C19   C     C_R   0.331161 0.996440 0.740079 0.019516
C20   C     C_R   0.668846 0.496434 0.259926 0.019520
C21   C     C_R   0.275834 0.132753 0.729339 -0.005761
C22   C     C_R   0.724168 0.632761 0.270663 -0.005755
C23   C     C_R   0.269520 0.275227 0.673431 0.057809
C24   C     C_R   0.730478 0.775240 0.326568 0.057799
C25   C     C_R   0.330112 0.844061 0.788418 -0.254481
C26   C     C_R   0.669902 0.344047 0.211592 -0.254499
C27   C     C_R   0.282571 0.836291 0.832897 0.566721
C28   C     C_R   0.717443 0.336281 0.167114 0.566679
C29   C     C_R   0.235900 0.986280 0.833657 -0.053017
C30   C     C_R   0.764106 0.486283 0.166349 -0.053094
C31   C     C_R   0.227734 0.126813 0.775684 -0.063865
C32   C     C_R   0.772268 0.626826 0.224316 -0.063859
C33   C     C_R   0.170745 0.257570 0.763109 0.102794
C34   C     C_R   0.829254 0.757590 0.236890 0.102845
C35   C     C_R   0.160765 0.393583 0.702949 0.140444
C36   C     C_R   0.839231 0.893608 0.297050 0.140495
C37   C     C_R   0.212904 0.409344 0.661160 0.116452
C38   C     C_R   0.787092 0.909365 0.338839 0.116426
C39   C     C_R   0.194602 0.995188 0.887447 0.124890
C40   C     C_R   0.805410 0.495170 0.112564 0.124722
C41   C     C_R   0.134434 0.117367 0.870792 -0.083783
C42   C     C_R   0.865570 0.617370 0.129212 -0.083689
C43   C     C_R   0.123639 0.245882 0.809945 -0.227857
C44   C     C_R   0.876361 0.745900 0.190054 -0.227868
H3    H     H_    0.314193 0.377185 0.583285 0.151758
H4    H     H_    0.685799 0.877204 0.416709 0.151781
H5    H     H_    0.364913 0.725524 0.791107 0.167754
H6    H     H_    0.635107 0.225499 0.208908 0.167756
H7    H     H_    0.078047 0.338511 0.801230 0.136185
H8    H     H_    0.921952 0.838528 0.198770 0.136139
O11   O     O_R   0.937810 0.773680 0.060480 -0.536828
O12   O     O_R   0.062190 0.273680 0.939520 -0.536842
O13   O     O_R   0.086190 0.439740 0.092580 -0.535344
O14   O     O_R   0.913810 0.939740 0.907420 -0.535343
C45   C     C_R   0.112167 0.608883 0.114900 0.701461
C46   C     C_R   0.887833 0.108883 0.885100 0.701521
O15   O     O_R   0.939760 0.444210 0.069890 -0.541081
O16   O     O_R   0.060240 0.944210 0.930110 -0.541066
O17   O     O_R   0.914790 0.269640 0.916760 -0.540857
O18   O     O_R   0.085210 0.769640 0.083240 -0.540823
C47   C     C_R   0.918503 0.612046 0.084021 0.702480
C48   C     C_R   0.081501 0.112043 0.915984 0.702421
O19   O     O_3   0.992050 0.601530 0.949880 -0.379771
O20   O     O_3   0.007950 0.101530 0.050120 -0.379731
V3    V     V_3+5 0.001480 0.328340 0.009300 1.389478
V4    V     V_3+5 0.998520 0.828340 0.990700 1.389521
C49   C     C_3   0.846172 0.413872 0.762716 -0.314772
C50   C     C_3   0.833858 0.463058 0.676539 -0.739638
H9    H     H_    0.837540 0.336690 0.642502 0.227109
H10   H     H_    0.779951 0.528776 0.651024 0.241519
H11   H     H_    0.876062 0.562792 0.671638 0.218829
H12   H     H_    0.839341 0.540154 0.795275 0.185734
H13   H     H_    0.903582 0.368742 0.785564 0.182212
C51   C     C_3   0.153800 0.913826 0.237301 -0.314724
C52   C     C_3   0.166110 0.962998 0.323478 -0.739686
H14   H     H_    0.162438 0.836618 0.357513 0.227118
H15   H     H_    0.220012 0.028740 0.348995 0.241516
H16   H     H_    0.123899 0.062706 0.328382 0.218826
H17   H     H_    0.160621 0.040118 0.204744 0.185760
H18   H     H_    0.096394 0.868665 0.214451 0.182192
C53   C     C_3   0.091985 0.512515 0.679913 -0.389090
C54   C     C_3   0.098119 0.681213 0.733168 -0.698317
H19   H     H_    0.118128 0.642440 0.796037 0.252161
H20   H     H_    0.135665 0.784200 0.720737 0.216708
H21   H     H_    0.044070 0.747511 0.721644 0.204010
H22   H     H_    0.077762 0.560601 0.618442 0.185771
H23   H     H_    0.044016 0.428032 0.680008 0.164831
C55   C     C_3   0.908012 0.012537 0.320092 -0.389128
C56   C     C_3   0.901873 0.181267 0.266857 -0.698232
H24   H     H_    0.881994 0.142480 0.203984 0.252053
H25   H     H_    0.864217 0.284067 0.279198 0.216769
H26   H     H_    0.955891 0.247797 0.278493 0.203982
H27   H     H_    0.922232 0.060586 0.381568 0.185762
H28   H     H_    0.955981 0.928075 0.319987 0.164845
C57   C     C_3   0.209666 0.572635 0.605747 -0.358973
C58   C     C_3   0.171571 0.521120 0.520202 -0.747383
H29   H     H_    0.199499 0.405199 0.500531 0.240147
H30   H     H_    0.114602 0.479005 0.512223 0.214544
H31   H     H_    0.171338 0.642859 0.482207 0.222755
H32   H     H_    0.182037 0.694089 0.621572 0.188660
H33   H     H_    0.264910 0.626884 0.612169 0.174704
C59   C     C_3   0.790324 0.072661 0.394251 -0.359005
C60   C     C_3   0.828404 0.021155 0.479801 -0.747339
H34   H     H_    0.800509 0.905126 0.499446 0.240139
H35   H     H_    0.885395 0.979204 0.487807 0.214532
H36   H     H_    0.828571 0.142851 0.517798 0.222774
H37   H     H_    0.817958 0.194116 0.378436 0.188657
H38   H     H_    0.735078 0.126910 0.387817 0.174705
C61   C     C_3   0.675691 0.451551 0.739487 -0.388510
C62   C     C_3   0.613069 0.405769 0.772302 -0.769278
H39   H     H_    0.568727 0.331520 0.728690 0.219529
H40   H     H_    0.632389 0.317990 0.825492 0.223770
H41   H     H_    0.590428 0.536102 0.788257 0.229003
H42   H     H_    0.713348 0.544805 0.782130 0.196811
H43   H     H_    0.656387 0.534729 0.685098 0.226070
C63   C     C_3   0.324279 0.951592 0.260536 -0.388494
C64   C     C_3   0.386884 0.905859 0.227687 -0.769235
H44   H     H_    0.431222 0.831514 0.271266 0.219502
H45   H     H_    0.367541 0.818189 0.174467 0.223819
H46   H     H_    0.409535 0.036217 0.211773 0.228991
H47   H     H_    0.286612 0.044868 0.217915 0.196819
H48   H     H_    0.343595 0.034737 0.314934 0.226081
F1    F     F_    0.724575 0.988785 0.671158 -0.707937
F2    F     F_    0.275430 0.488762 0.328836 -0.707933
C65   C     C_3   0.454540 0.896427 0.727106 -0.365964
C66   C     C_3   0.500031 0.946922 0.810499 -0.751755
H49   H     H_    0.512171 0.097674 0.814368 0.230555
H50   H     H_    0.471850 0.910995 0.854122 0.242077
H51   H     H_    0.552172 0.869846 0.825883 0.216679
H52   H     H_    0.442060 0.746023 0.722465 0.175147
H53   H     H_    0.490938 0.919541 0.690840 0.195413
C67   C     C_3   0.545470 0.396401 0.272899 -0.365974
C68   C     C_3   0.499978 0.446880 0.189505 -0.751733
H54   H     H_    0.487826 0.597626 0.185635 0.230550
H55   H     H_    0.528164 0.410970 0.145883 0.242077
H56   H     H_    0.447842 0.369778 0.174119 0.216664
H57   H     H_    0.557956 0.246000 0.277542 0.175144
H58   H     H_    0.509071 0.419511 0.309164 0.195417
F3    F     F_    0.277605 0.672014 0.867899 -0.711736
F4    F     F_    0.722416 0.172001 0.132115 -0.711718
C69   C     C_3   0.218250 0.890141 0.965549 -0.295750
C70   C     C_3   0.234320 0.018680 0.036736 -0.795542
H59   H     H_    0.274975 0.125049 0.033797 0.239675
H60   H     H_    0.185192 0.087708 0.042780 0.225797
H61   H     H_    0.256678 0.934254 0.090148 0.221470
H62   H     H_    0.177144 0.785035 0.968083 0.196525
H63   H     H_    0.269814 0.815097 0.974363 0.241379
C71   C     C_3   0.781774 0.390039 0.034481 -0.295478
C72   C     C_3   0.765825 0.518449 0.963260 -0.795770
H64   H     H_    0.725465 0.625545 0.966302 0.239689
H65   H     H_    0.815068 0.586534 0.957047 0.225892
H66   H     H_    0.743153 0.434116 0.909884 0.221490
H67   H     H_    0.822842 0.284758 0.032015 0.196566
H68   H     H_    0.730157 0.315217 0.025646 0.241318

loop_
_geom_bond_atom_site_label_1
_geom_bond_atom_site_label_2
_ccdc_geom_bond_type
O14   V4    S    
O15   C47   A    
C13   C15   A    
C53   C54   S    
O1    C3    A    
C66   H51   S    
O16   C48   A    
C64   H46   S    
O2    C4    A    
C2    O7    A    
O15   V3    S    
C49   C50   S    
C61   C62   S    
C33   C35   A    
C69   H63   S    
O5    C3    A    
O12   V3    S    
C19   C25   A    
C59   H38   S    
C6    C10   S    
C70   H59   S    
C72   H65   S    
C66   H50   S    
C71   C72   S    
C60   H35   S    
C23   C37   A    
C18   C67   S    
C54   H21   S    
C26   H6    S    
C59   C60   S    
C31   C33   A    
C58   H29   S    
C68   H54   S    
C5    C7    D    
C70   H60   S    
C29   C39   A    
C63   H47   S    
C35   C37   A    
C39   C69   S    
C54   H20   S    
C36   C38   A    
C17   C19   A    
C55   H28   S    
C52   H15   S    
C5    C49   S    
C20   C22   A    
C49   H12   S    
C12   F2    S    
C38   C59   S    
O6    V2    S    
C42   C47   S    
O18   V4    S    
C37   C57   S    
C61   H43   S    
C15   C17   A    
C27   C29   A    
C28   C30   A    
C30   C32   A    
C43   H7    S    
C27   F3    S    
C39   C41   A    
C44   H8    S    
C25   H5    S    
C40   C42   A    
C68   H55   S    
C59   H37   S    
C67   C68   S    
C45   O18   A    
C68   H56   S    
O13   V3    S    
C66   H49   S    
C25   C27   A    
C60   H36   S    
C53   H22   S    
C9    C61   S    
O5    V1    S    
C3    C12   S    
C64   H45   S    
C6    C51   S    
C71   H67   S    
O13   C45   A    
C18   C20   A    
O4    V2    S    
C11   F1    S    
C10   C63   S    
C33   C43   A    
C65   H52   S    
C14   C24   A    
O6    C4    A    
O12   C48   A    
C54   H19   S    
C72   H66   S    
C46   O17   A    
O17   V3    S    
C55   H27   S    
C56   H25   S    
O1    V2    S    
C5    C9    S    
C35   C53   S    
C52   H16   S    
C22   C32   A    
O2    V1    S    
C29   C31   A    
C58   H31   S    
C49   H13   S    
C14   H4    S    
C57   H32   S    
C62   H41   S    
C71   H68   S    
C41   C48   S    
O4    C2    A    
C28   F4    S    
C8    H2    S    
C36   C55   S    
C50   H10   S    
C41   C43   A    
C67   H58   S    
C8    C45   S    
C17   C65   S    
C64   H44   S    
C21   C31   A    
C69   C70   S    
O3    V1    S    
C21   C23   A    
C62   H40   S    
C1    C16   S    
O19   V4    S    
C51   H17   S    
C65   H53   S    
C7    H1    S    
C69   H62   S    
O20   V3    S    
C70   H61   S    
C63   H48   S    
C10   C12   D    
C26   C28   A    
O3    C1    A    
C65   C66   S    
C34   C44   A    
C40   C71   S    
C50   H11   S    
O11   C47   A    
C4    C11   S    
C14   C16   A    
C63   C64   S    
O7    V1    S    
C1    O8    A    
O16   V4    S    
O8    V2    S    
C57   C58   S    
C22   C24   A    
C16   C18   A    
C61   H42   S    
C13   C23   A    
C34   C36   A    
C19   C21   A    
C42   C44   A    
C56   H26   S    
C6    C8    D    
C9    C11   D    
C55   C56   S    
C58   H30   S    
C72   H64   S    
C57   H33   S    
C67   H57   S    
C32   C34   A    
C30   C40   A    
C2    C15   S    
C24   C38   A    
C51   C52   S    
O14   C46   A    
C50   H9    S    
O9    V2    S    
C56   H24   S    
O11   V4    S    
C51   H18   S    
O10   V1    S    
C20   C26   A    
C7    C46   S    
C13   H3    S    
C52   H14   S    
C60   H34   S    
C53   H23   S    
C62   H39   S    
