data_mof_unit_27827.cif
_audit_creation_date              2012-10-26T18:50:22-0400
_audit_creation_method            fapswitch 2.2
_symmetry_space_group_name_H-M    P1
_symmetry_Int_Tables_number       1
_space_group_crystal_system       triclinic
_cell_length_a                    9.620312
_cell_length_b                    10.762273
_cell_length_c                    15.474726
_cell_angle_alpha                 87.236046
_cell_angle_beta                  74.20655
_cell_angle_gamma                 89.766108
_cell_volume                      1539.85173925

loop_
_atom_site_label
_atom_site_type_symbol
_atom_type_description
_atom_site_fract_x
_atom_site_fract_y
_atom_site_fract_z
_atom_type_partial_charge
Br1   Br    Br    0.858730 0.142829 0.688350 -0.386460
Br2   Br    Br    0.856819 0.833558 0.688608 -0.428345
C1    C     C_R   0.000493 0.262958 0.499580 0.583464
C2    C     C_R   0.240432 0.579330 0.046847 0.036900
C3    C     C_R   0.333622 0.526180 0.095477 0.045749
C4    C     C_R   0.918183 0.498351 0.672115 0.606517
C5    C     C_R   0.094636 0.601441 0.090047 -0.144787
C6    C     C_R   0.039741 0.572576 0.181613 -0.140459
C7    C     C_R   0.269560 0.483297 0.184606 -0.097413
C8    C     C_R   0.123953 0.139922 0.334748 -0.077338
C9    C     C_R   0.179832 0.080100 0.254840 -0.101680
C10   C     C_R   0.174405 0.950961 0.254356 -0.114944
C11   C     C_R   0.114271 0.881067 0.333920 -0.116383
C12   C     C_R   0.679177 0.511689 0.910004 0.031554
C13   C     C_R   0.059286 0.939829 0.416011 -0.017655
C14   C     C_R   0.062386 0.070771 0.416235 -0.008491
C15   C     C_R   0.001936 0.129144 0.497659 -0.008058
C16   C     C_R   0.999665 0.737066 0.499843 0.557548
C17   C     C_R   0.939923 0.059788 0.578008 0.174958
C18   C     C_R   0.939126 0.930259 0.578076 0.167784
C19   C     C_R   0.999452 0.871102 0.497643 -0.013627
C20   C     C_R   0.694961 0.668991 0.383317 -0.049048
C21   C     C_R   0.646865 0.756193 0.329251 -0.125964
C22   C     C_R   0.503050 0.758359 0.330383 -0.102966
C23   C     C_R   0.780424 0.482701 0.958968 0.009568
C24   C     C_R   0.406940 0.672360 0.384827 -0.025427
C25   C     C_R   0.450020 0.584375 0.443326 0.151280
C26   C     C_R   0.599593 0.583564 0.442938 0.163585
C27   C     C_R   0.551019 0.421117 0.554723 0.039796
C28   C     C_R   0.081819 0.501073 0.327981 0.496003
C29   C     C_R   0.403484 0.420870 0.555052 0.329606
C30   C     C_R   0.873296 0.495528 0.770874 0.040100
C31   C     C_R   0.128078 0.514926 0.229574 -0.015631
C32   C     C_R   0.926515 0.465210 0.914241 -0.124146
C33   C     C_R   0.973024 0.473246 0.820785 -0.087352
C34   C     C_R   0.532932 0.535907 0.956698 0.006305
C35   C     C_R   0.727629 0.513211 0.815536 -0.079326
C36   C     C_R   0.485006 0.514839 0.052223 0.039496
C37   C     C_R   0.592500 0.490116 0.099158 0.214576
C38   C     C_R   0.736257 0.473775 0.052146 -0.082102
C39   C     C_R   0.435148 0.586233 0.910834 -0.111422
C40   C     C_R   0.292875 0.609738 0.955553 -0.124928
Cl1   Cl    Cl    0.287728 0.315105 0.630708 -0.549128
Cl2   Cl    Cl    0.568029 0.499302 0.215645 -0.684410
Cu1   Cu    Cu3+1 0.140660 0.499990 0.500010 1.045176
Cu2   Cu    Cu3+1 0.859340 0.500010 0.499990 0.986038
H1    H     H_    0.815616 0.455875 0.089292 0.152008
H2    H     H_    0.325562 0.421852 0.220186 0.190176
H3    H     H_    0.466205 0.824705 0.286749 0.134460
H4    H     H_    0.301397 0.677310 0.376485 0.172611
H5    H     H_    0.929520 0.596984 0.214906 0.152725
H6    H     H_    0.222686 0.650632 0.917894 0.128827
H7    H     H_    0.004900 0.445008 0.951634 0.119559
H8    H     H_    0.086198 0.459305 0.787763 0.174820
H9    H     H_    0.653086 0.524626 0.775050 0.134818
H10   H     H_    0.467075 0.614721 0.840465 0.133566
H11   H     H_    0.024102 0.644156 0.053402 0.124872
H12   H     H_    0.129036 0.240355 0.331942 0.118837
H13   H     H_    0.226509 0.134252 0.192985 0.125009
H14   H     H_    0.216523 0.904703 0.192103 0.129612
H15   H     H_    0.110101 0.781116 0.330275 0.096457
H16   H     H_    0.587589 0.356688 0.599593 0.169125
H17   H     H_    0.808091 0.671917 0.375078 0.166597
H18   H     H_    0.722485 0.821056 0.284952 0.125953
N1    N     N_R   0.648320 0.501210 0.499140 -0.276741
N2    N     N_R   0.352470 0.501290 0.499110 -0.238113
O1    O     O_R   0.118810 0.319640 0.500010 -0.436121
O2    O     O_R   0.881240 0.319660 0.500000 -0.489418
O3    O     O_R   0.055570 0.499980 0.629840 -0.449190
O4    O     O_R   0.818000 0.500010 0.629830 -0.497221
O5    O     O_R   0.118760 0.680340 0.500000 -0.523287
O6    O     O_R   0.881190 0.680360 0.499990 -0.508446
O7    O     O_R   0.182000 0.499990 0.370170 -0.519061
O8    O     O_R   0.944430 0.500020 0.370160 -0.520948

loop_
_geom_bond_atom_site_label_1
_geom_bond_atom_site_label_2
_ccdc_geom_bond_type
C4    O3    A    
C4    C30   S    
C38   H1    S    
C16   C19   S    
C39   C40   A    
C1    O2    A    
C5    C6    A    
Cu1   Cu2   S    
Cu2   O2    S    
C24   C25   A    
C29   Cl1   S    
C8    H12   S    
C22   C24   A    
C24   H4    S    
C23   C38   A    
C12   C34   A    
C36   C37   A    
C28   O8    A    
Cu1   O5    S    
C13   C14   A    
C22   H3    S    
Cu1   O7    S    
C32   C33   A    
C20   H17   S    
C17   C18   A    
C14   C15   A    
Cu1   O1    S    
C21   C22   A    
Cu2   O6    S    
C23   C32   A    
C20   C26   A    
C3    C36   A    
C33   H8    S    
C7    C31   A    
C34   C39   A    
C2    C5    A    
C9    H13   S    
C16   O6    A    
Br1   C17   S    
Br2   C18   S    
C30   C33   A    
Cu2   N1    S    
C37   C38   A    
C28   O7    A    
Cu1   O3    S    
C10   H14   S    
C39   H10   S    
C3    C7    A    
C30   C35   A    
C18   C19   A    
C6    H5    S    
C7    H2    S    
C27   N1    A    
C21   H18   S    
C11   C13   A    
Cu2   O8    S    
C16   O5    A    
C4    O4    A    
C27   H16   S    
C28   C31   S    
C29   N2    A    
C1    O1    A    
C2    C3    A    
C9    C10   A    
C37   Cl2   S    
C34   C36   A    
C26   N1    A    
C27   C29   A    
C25   N2    A    
C8    C14   A    
C12   C35   A    
C2    C40   A    
C15   C17   A    
C1    C15   S    
C6    C31   A    
C12   C23   A    
Cu2   O4    S    
C8    C9    A    
C35   H9    S    
C13   C19   A    
C11   H15   S    
C10   C11   A    
C32   H7    S    
Cu1   N2    S    
C20   C21   A    
C5    H11   S    
C40   H6    S    
C25   C26   A    
