data_mof_unit_25357.cif
_audit_creation_date              2012-10-26T21:13:42-0400
_audit_creation_method            fapswitch 2.2
_symmetry_space_group_name_H-M    P1
_symmetry_Int_Tables_number       1
_space_group_crystal_system       triclinic
_cell_length_a                    9.058175
_cell_length_b                    10.812843
_cell_length_c                    9.567872
_cell_angle_alpha                 90.123142
_cell_angle_beta                  90.03641
_cell_angle_gamma                 90.133415
_cell_volume                      937.11672973

loop_
_atom_site_label
_atom_site_type_symbol
_atom_type_description
_atom_site_fract_x
_atom_site_fract_y
_atom_site_fract_z
_atom_type_partial_charge
C1    C     C_R   0.501137 0.262494 0.499935 0.547280
C2    C     C_R   0.626059 0.527213 0.926782 0.143631
C3    C     C_3   0.716269 0.644804 0.924341 0.353944
C4    C     C_R   0.220764 0.500042 0.499951 0.542775
C5    C     C_3   0.717040 0.641419 0.085157 0.043463
C6    C     C_R   0.501372 0.737556 0.500166 0.546789
C7    C     C_R   0.779224 0.500013 0.500027 0.557931
C8    C     C_1   0.065591 0.500007 0.499918 -0.067213
C9    C     C_1   0.934391 0.499967 0.499963 -0.055343
C10   C     C_R   0.476412 0.064112 0.622352 0.042118
C11   C     C_R   0.510305 0.129326 0.500819 0.012155
C12   C     C_R   0.561654 0.935484 0.383368 -0.156108
C13   C     C_R   0.560954 0.064447 0.382970 -0.149110
C14   C     C_3   0.948265 0.722952 0.182944 -0.286542
C15   C     C_3   0.922096 0.727374 0.778107 -0.223450
C16   C     C_R   0.511454 0.870810 0.501463 0.006514
C17   C     C_R   0.476552 0.936489 0.622610 -0.021875
C18   C     C_3   0.341612 0.927598 0.712417 -0.154114
C19   C     C_3   0.340503 0.068321 0.712436 0.448948
C20   C     C_R   0.625973 0.526573 0.074095 0.114445
C21   C     C_R   0.380217 0.461043 0.074000 -0.009370
C22   C     C_R   0.380281 0.460882 0.925526 0.001644
Cu1   Cu    Cu3+1 0.499990 0.499980 0.640670 0.979788
Cu2   Cu    Cu3+1 0.500010 0.500020 0.359330 0.952216
H1    H     H_    0.595561 0.112881 0.289531 0.144402
H2    H     H_    0.048251 0.693311 0.241016 0.148984
H3    H     H_    0.884722 0.787217 0.250682 0.146543
H4    H     H_    0.983172 0.771584 0.086413 0.160090
H5    H     H_    0.226011 0.208046 0.647983 0.348859
H6    H     H_    0.457334 0.089924 0.883739 0.310569
H7    H     H_    0.888181 0.540076 0.827847 0.240064
H8    H     H_    0.039390 0.707467 0.753168 0.109156
H9    H     H_    0.917336 0.816157 0.836498 0.179407
H10   H     H_    0.859237 0.735829 0.678874 0.179423
H11   H     H_    0.656586 0.718120 0.137123 0.129595
H12   H     H_    0.596606 0.886957 0.290154 0.123398
H13   H     H_    0.246533 0.884878 0.656467 0.128504
H14   H     H_    0.365279 0.886589 0.816266 0.112528
H15   H     H_    0.282248 0.430844 0.128657 0.134239
H16   H     H_    0.282461 0.430383 0.870562 0.141264
H17   H     H_    0.542086 0.752315 0.916960 0.294863
H18   H     H_    0.918362 0.542530 0.107072 0.257077
N1    N     N_R   0.500920 0.500930 0.147930 -0.253137
N2    N     N_R   0.500930 0.500890 0.852020 -0.238996
N3    N     N_2   0.859805 0.615787 0.148338 -0.495007
N4    N     N_2   0.861949 0.627937 0.861761 -0.484849
O1    O     O_R   0.500000 0.319640 0.618810 -0.486511
O2    O     O_3   0.216405 0.116692 0.643889 -0.676251
O3    O     O_3   0.362999 0.121900 0.845243 -0.680421
O4    O     O_R   0.500020 0.319680 0.381230 -0.499584
O5    O     O_R   0.288380 0.499980 0.618770 -0.519026
O6    O     O_R   0.288400 0.500020 0.381190 -0.505768
O7    O     O_R   0.499980 0.680320 0.618770 -0.458143
O8    O     O_R   0.500000 0.680360 0.381190 -0.518036
O9    O     O_R   0.711600 0.499980 0.618810 -0.495378
O10   O     O_R   0.711620 0.500020 0.381230 -0.467283
O11   O     O_3   0.639083 0.746819 0.869117 -0.681094

loop_
_geom_bond_atom_site_label_1
_geom_bond_atom_site_label_2
_ccdc_geom_bond_type
Cu2   O6    S    
Cu1   Cu2   S    
Cu1   O9    S    
C14   H3    S    
Cu2   O10   S    
C6    C16   S    
C1    O4    A    
C19   O3    S    
C3    N4    S    
Cu1   O5    S    
C21   H15   S    
C7    O9    A    
C10   C19   S    
C4    C8    S    
C22   H16   S    
C2    C3    S    
C18   H14   S    
H17   O11   S    
C15   H8    S    
C5    C20   S    
C21   C22   A    
C14   H2    S    
C11   C13   A    
C13   H1    S    
C16   C17   A    
C7    O10   A    
C4    O6    A    
C5    H11   S    
H6    O3    S    
C6    O8    A    
Cu1   O7    S    
C14   N3    S    
Cu2   O4    S    
Cu2   N1    S    
C6    O7    A    
C12   H12   S    
C10   C11   A    
C4    O5    A    
Cu2   O8    S    
C10   C17   A    
C3    O11   S    
H5    O2    S    
C20   N1    A    
Cu1   O1    S    
C12   C13   A    
H7    N4    S    
C17   C18   S    
C18   C19   S    
C2    N2    A    
C7    C9    S    
C2    C20   A    
C19   O2    S    
C1    O1    A    
C15   H10   S    
C15   N4    S    
C14   H4    S    
C21   N1    A    
C5    N3    S    
C18   H13   S    
C22   N2    A    
Cu1   N2    S    
C12   C16   A    
C15   H9    S    
C8    C9    T    
C3    C5    S    
H18   N3    S    
C1    C11   S    
