data_mof_unit_53526.cif
_audit_creation_date              2012-12-10T17:58:21-0500
_audit_creation_method            fapswitch 2.2
_symmetry_space_group_name_H-M    P1
_symmetry_Int_Tables_number       1
_space_group_crystal_system       triclinic
_cell_length_a                    9.637583
_cell_length_b                    10.813691
_cell_length_c                    15.788339
_cell_angle_alpha                 89.871953
_cell_angle_beta                  72.11921
_cell_angle_gamma                 89.751676
_cell_volume                      1565.93286004

loop_
_atom_site_label
_atom_site_type_symbol
_atom_type_description
_atom_site_fract_x
_atom_site_fract_y
_atom_site_fract_z
_atom_type_partial_charge
C1    C     C_R   0.999769 0.262590 0.501252 0.819148
C2    C     C_R   0.088776 0.061816 0.542229 0.166183
C3    C     C_R   0.999708 0.871395 0.498094 -0.041516
C4    C     C_R   0.000420 0.128551 0.501750 -0.043890
C5    C     C_R   0.543843 0.431784 0.560558 -0.030206
C6    C     C_R   0.456161 0.568230 0.439448 -0.034632
C7    C     C_R   0.395903 0.431764 0.560508 -0.019627
C8    C     C_R   0.604112 0.568234 0.439483 -0.017016
C9    C     C_R   0.915774 0.501066 0.671072 0.808195
C10   C     C_R   0.084173 0.500841 0.328913 0.807982
C11   C     C_R   0.864127 0.512475 0.767382 -0.083302
C12   C     C_R   0.000264 0.737391 0.498693 0.819308
C13   C     C_R   0.135106 0.509702 0.232419 -0.071743
C14   C     C_R   0.873601 0.617602 0.900657 0.245122
C15   C     C_R   0.116340 0.601419 0.096508 0.238410
C16   C     C_R   0.932452 0.594615 0.809612 -0.228717
C17   C     C_R   0.061436 0.585372 0.188772 -0.272068
C18   C     C_R   0.729591 0.461887 0.814622 -0.247131
C19   C     C_R   0.270531 0.459830 0.185285 -0.254415
C20   C     C_R   0.670774 0.483228 0.906091 0.022601
C21   C     C_R   0.326527 0.477028 0.093055 0.008124
C22   C     C_R   0.756951 0.543017 0.951364 0.121934
C23   C     C_R   0.580041 0.483227 0.090972 -0.269089
C24   C     C_R   0.236006 0.529379 0.047323 0.124675
C25   C     C_R   0.522184 0.464749 0.952268 0.050549
C26   C     C_R   0.475964 0.464814 0.046590 0.051231
C27   C     C_R   0.417027 0.476583 0.907617 -0.281730
C28   C     C_R   0.716104 0.531630 0.044687 0.113398
C29   C     C_R   0.277229 0.518544 0.954045 0.138549
C30   C     C_R   0.912089 0.066520 0.460094 -0.293093
C31   C     C_R   0.088076 0.933409 0.539712 -0.291658
C32   C     C_R   0.911528 0.938100 0.457487 0.167034
Cu1   Cu    Cu3+1 0.140660 0.500020 0.500000 0.947657
Cu2   Cu    Cu3+1 0.859340 0.499980 0.500000 0.950765
H1    H     H_    0.332153 0.409045 0.220929 0.155394
H2    H     H_    0.425542 0.623360 0.390718 0.121290
H3    H     H_    0.316824 0.376558 0.609184 0.135392
H4    H     H_    0.683214 0.623413 0.390784 0.128961
H5    H     H_    0.761473 0.627903 0.141738 0.198395
H6    H     H_    0.832418 0.483691 0.125621 0.232286
H7    H     H_    0.227150 0.616036 0.858510 0.206081
H8    H     H_    0.162681 0.470011 0.872118 0.221381
H9    H     H_    0.013496 0.748986 0.918212 0.252729
H10   H     H_    0.846053 0.751651 0.998286 0.249397
H11   H     H_    0.991557 0.757154 0.103128 0.203505
H12   H     H_    0.670978 0.406911 0.779667 0.147255
H13   H     H_    0.158801 0.763292 0.030832 0.204285
H14   H     H_    0.716133 0.902698 0.440391 0.216761
H15   H     H_    0.857801 0.906541 0.345335 0.202011
H16   H     H_    0.284531 0.097221 0.558773 0.215221
H17   H     H_    0.143426 0.093129 0.654083 0.209181
H18   H     H_    0.966937 0.637796 0.227082 0.145201
H19   H     H_    0.022789 0.650206 0.770275 0.147880
H20   H     H_    0.551326 0.480866 0.162753 0.147174
H21   H     H_    0.446711 0.475155 0.835765 0.147862
H22   H     H_    0.845294 0.117736 0.427922 0.160781
H23   H     H_    0.154853 0.882189 0.571899 0.159034
H24   H     H_    0.574462 0.376670 0.609298 0.115883
N1    N     N_R   0.352080 0.500030 0.499980 -0.159503
N2    N     N_R   0.647920 0.499970 0.500020 -0.157778
N3    N     N_3   0.813646 0.563339 0.092995 -0.570339
N4    N     N_3   0.177973 0.549158 0.906081 -0.563972
N5    N     N_3   0.901668 0.737098 0.931174 -0.596891
N6    N     N_3   0.069138 0.704952 0.055628 -0.570331
N7    N     N_3   0.824865 0.876149 0.411421 -0.593157
N8    N     N_3   0.175850 0.123706 0.588044 -0.587724
O1    O     O_R   0.118740 0.319660 0.500000 -0.550453
O2    O     O_R   0.881260 0.680340 0.500000 -0.549620
O3    O     O_R   0.881170 0.319630 0.500010 -0.596202
O4    O     O_R   0.118830 0.680370 0.499990 -0.597113
O5    O     O_R   0.055570 0.500030 0.629830 -0.587557
O6    O     O_R   0.944430 0.499970 0.370170 -0.585820
O7    O     O_R   0.818000 0.500000 0.629840 -0.587132
O8    O     O_R   0.182000 0.500000 0.370160 -0.590784

loop_
_geom_bond_atom_site_label_1
_geom_bond_atom_site_label_2
_ccdc_geom_bond_type
C21   C26   A    
C11   C18   A    
C27   C29   A    
H9    N5    S    
C12   O2    A    
H15   N7    S    
C5    H24   S    
C19   C21   A    
C27   H21   S    
C20   C25   A    
C23   C26   A    
C16   H19   S    
C3    C12   S    
C24   C29   A    
C15   N6    S    
H14   N7    S    
H8    N4    S    
C28   N3    S    
Cu1   N1    S    
C22   C28   A    
Cu2   N2    S    
C8    H4    S    
H7    N4    S    
C18   H12   S    
C17   H18   S    
C7    N1    A    
H10   N5    S    
H5    N3    S    
C13   C19   A    
Cu2   O2    S    
H13   N6    S    
C5    C7    A    
C6    C8    A    
C25   C26   A    
C30   H22   S    
C1    O3    A    
H6    N3    S    
C2    C31   A    
H17   N8    S    
C2    C4    A    
C9    C11   S    
C11   C16   A    
Cu1   Cu2   S    
C7    H3    S    
C23   C28   A    
C3    C31   A    
H16   N8    S    
Cu2   O3    S    
Cu1   O4    S    
C15   C24   A    
C20   C22   A    
C14   C16   A    
Cu2   O6    S    
Cu1   O1    S    
C23   H20   S    
C15   C17   A    
C12   O4    A    
C29   N4    S    
C5    N2    A    
C6    N1    A    
C9    O7    A    
C9    O5    A    
C2    N8    S    
C10   C13   S    
C25   C27   A    
H11   N6    S    
C13   C17   A    
C1    C4    S    
C31   H23   S    
C19   H1    S    
C8    N2    A    
C30   C32   A    
C10   O8    A    
C14   C22   A    
C14   N5    S    
C1    O1    A    
C6    H2    S    
C18   C20   A    
C3    C32   A    
Cu1   O5    S    
Cu2   O7    S    
Cu1   O8    S    
C21   C24   A    
C4    C30   A    
C32   N7    S    
C10   O6    A    
