data_mof_unit_61783.cif
_audit_creation_date              2013-03-05T15:46:44-0500
_audit_creation_method            fapswitch 2.2
_symmetry_space_group_name_H-M    P1
_symmetry_Int_Tables_number       1
_space_group_crystal_system       triclinic
_cell_length_a                    21.596365
_cell_length_b                    21.680917
_cell_length_c                    47.122773
_cell_angle_alpha                 89.063602
_cell_angle_beta                  89.054321
_cell_angle_gamma                 90.122249
_cell_volume                      22058.2334487

loop_
_atom_site_label
_atom_site_type_symbol
_atom_site_description
_atom_site_fract_x
_atom_site_fract_y
_atom_site_fract_z
_atom_type_partial_charge
O1    O     O_R   0.591590 0.499950 0.976370 -0.518905
O2    O     O_R   0.500050 0.591590 0.976370 -0.581541
O3    O     O_R   0.408410 0.500050 0.976370 -0.599594
O4    O     O_R   0.499950 0.408410 0.976370 -0.579845
O5    O     O_R   0.091590 0.999950 0.476370 -0.588932
O6    O     O_R   0.000050 0.091590 0.476370 -0.586798
O7    O     O_R   0.908410 0.000050 0.476370 -0.592525
O8    O     O_R   0.999950 0.908410 0.476370 -0.584629
O9    O     O_R   0.591570 0.499930 0.023700 -0.634544
O10   O     O_R   0.500070 0.591570 0.023700 -0.630707
O11   O     O_R   0.408430 0.500070 0.023700 -0.614644
O12   O     O_R   0.499930 0.408430 0.023700 -0.614187
O13   O     O_R   0.091570 0.999930 0.523700 -0.627580
O14   O     O_R   0.000070 0.091570 0.523700 -0.625427
O15   O     O_R   0.908430 0.000070 0.523700 -0.625279
O16   O     O_R   0.999930 0.908430 0.523700 -0.624697
C1    C     C_R   0.620393 0.497397 0.999745 0.903690
C2    C     C_R   0.505144 0.620031 0.999570 0.964287
C3    C     C_R   0.380237 0.507074 0.000365 1.004956
C4    C     C_R   0.495094 0.380159 0.000406 0.948509
C5    C     C_R   0.119970 0.994114 0.500022 1.005382
C6    C     C_R   0.005165 0.119957 0.499974 1.000441
C7    C     C_R   0.880084 0.006143 0.500315 1.002975
C8    C     C_R   0.994527 0.880086 0.500419 0.999378
H1    H     H_    0.586199 0.962439 0.142920 0.175676
H2    H     H_    0.027718 0.593137 0.141636 0.174782
H3    H     H_    0.408131 0.051820 0.141197 0.172301
H4    H     H_    0.969361 0.402830 0.142865 0.177929
H5    H     H_    0.088419 0.467554 0.643183 0.174088
H6    H     H_    0.518796 0.091751 0.642971 0.174696
H7    H     H_    0.900980 0.535109 0.641499 0.172487
H8    H     H_    0.480843 0.896635 0.642022 0.173508
C9    C     C_R   0.548894 0.979952 0.101748 -0.198893
C10   C     C_R   0.013800 0.552564 0.101126 -0.180431
C11   C     C_R   0.447585 0.028130 0.100807 -0.158388
C12   C     C_R   0.983441 0.444707 0.101766 -0.110443
C13   C     C_R   0.050176 0.482305 0.601924 -0.184622
C14   C     C_R   0.509282 0.052055 0.601874 -0.169489
C15   C     C_R   0.943996 0.518679 0.601045 -0.167615
C16   C     C_R   0.489562 0.941848 0.601381 -0.169778
H9    H     H_    0.588507 0.959911 0.090965 0.197374
H10   H     H_    0.026301 0.594756 0.089795 0.189826
H11   H     H_    0.408607 0.046544 0.089265 0.178343
H12   H     H_    0.971746 0.402728 0.090947 0.192772
H13   H     H_    0.092129 0.467565 0.591133 0.192270
H14   H     H_    0.517252 0.095786 0.590980 0.194935
H15   H     H_    0.903317 0.533145 0.589587 0.188988
H16   H     H_    0.481461 0.899495 0.590140 0.195866
Zn1   Zn    Zn3+2 0.500000 0.500000 0.968430 1.205024
Zn2   Zn    Zn3+2 0.000000 0.000000 0.468430 1.159579
Zn3   Zn    Zn3+2 0.500000 0.500000 0.031640 1.090070
Zn4   Zn    Zn3+2 0.000000 0.000000 0.531640 1.094671
C17   C     C_R   0.497067 0.007395 0.145665 0.264510
C18   C     C_R   0.998356 0.497992 0.145855 0.259044
C19   C     C_R   0.994442 0.501325 0.645905 0.264861
C20   C     C_R   0.500003 0.993900 0.646072 0.265309
C21   C     C_R   0.994899 0.447298 0.868947 0.333730
C22   C     C_R   0.556229 0.999891 0.868550 0.315117
C23   C     C_R   0.973934 0.558509 0.869729 0.327505
C24   C     C_R   0.449774 0.959915 0.870678 0.325715
C25   C     C_R   0.499324 0.947422 0.368875 0.343104
C26   C     C_R   0.058870 0.508314 0.368869 0.344662
C27   C     C_R   0.501099 0.060641 0.369174 0.345838
C28   C     C_R   0.946069 0.493789 0.369237 0.343493
C29   C     C_R   0.547732 0.981474 0.131239 -0.073218
C30   C     C_R   0.014552 0.551818 0.130604 -0.081331
C31   C     C_R   0.447209 0.031143 0.130283 -0.061864
C32   C     C_R   0.982386 0.444548 0.131289 -0.065625
C33   C     C_R   0.048203 0.482315 0.631473 -0.074465
C34   C     C_R   0.510134 0.049914 0.631426 -0.079372
C35   C     C_R   0.942506 0.519804 0.630540 -0.075365
C36   C     C_R   0.489307 0.940011 0.630896 -0.080361
H17   H     H_    0.462264 0.690014 0.038987 0.220233
H18   H     H_    0.306651 0.462406 0.040762 0.226102
H19   H     H_    0.569370 0.310099 0.028860 0.192664
H20   H     H_    0.687644 0.591272 0.013498 0.212202
H21   H     H_    0.949707 0.189887 0.537183 0.218159
H22   H     H_    0.806406 0.962708 0.540973 0.219936
H23   H     H_    0.051803 0.808263 0.536432 0.217650
H24   H     H_    0.191316 0.034164 0.540523 0.219576
C37   C     C_R   0.560974 0.694123 0.949489 0.356576
C38   C     C_R   0.307415 0.594755 0.963271 0.339448
C39   C     C_R   0.390972 0.306749 0.975828 0.334592
C40   C     C_R   0.696146 0.386474 0.986065 0.262698
C41   C     C_R   0.095697 0.195647 0.464241 0.334757
C42   C     C_R   0.807102 0.090248 0.461550 0.335579
C43   C     C_R   0.901580 0.806524 0.467705 0.336303
C44   C     C_R   0.195759 0.914885 0.460050 0.337830
C45   C     C_R   0.568228 0.731954 0.925225 -0.159175
C46   C     C_R   0.276106 0.614894 0.939064 -0.217331
C47   C     C_R   0.357576 0.275070 0.955403 -0.207017
C48   C     C_R   0.723604 0.330075 0.993317 -0.214597
C49   C     C_R   0.118874 0.229373 0.440746 -0.199846
C50   C     C_R   0.775721 0.108096 0.436977 -0.207036
C51   C     C_R   0.877628 0.774798 0.444632 -0.204338
C52   C     C_R   0.229172 0.899646 0.435414 -0.205167
H25   H     H_    0.582717 0.712526 0.905164 0.217012
H26   H     H_    0.294393 0.652376 0.925954 0.219501
H27   H     H_    0.314357 0.293190 0.947505 0.229715
H28   H     H_    0.705095 0.287160 0.985580 0.228713
H29   H     H_    0.157665 0.212275 0.428357 0.226664
H30   H     H_    0.793863 0.144543 0.423212 0.224495
H31   H     H_    0.838178 0.792671 0.433272 0.227426
H32   H     H_    0.212091 0.864776 0.421317 0.222589
C53   C     C_R   0.570933 0.795519 0.928169 -0.240277
C54   C     C_R   0.222884 0.584581 0.930684 -0.204121
C55   C     C_R   0.381082 0.221400 0.943929 -0.213908
C56   C     C_R   0.774493 0.328320 0.010923 -0.208489
C57   C     C_R   0.089603 0.283353 0.431998 -0.209286
C58   C     C_R   0.722704 0.076616 0.429106 -0.208401
C59   C     C_R   0.906783 0.721862 0.434941 -0.211448
C60   C     C_R   0.282904 0.931889 0.427914 -0.206207
H33   H     H_    0.589820 0.822876 0.910619 0.213144
H34   H     H_    0.204739 0.594953 0.909858 0.225096
H35   H     H_    0.358957 0.202272 0.925566 0.222922
H36   H     H_    0.791686 0.284024 0.018216 0.219447
H37   H     H_    0.101850 0.303200 0.411423 0.223440
H38   H     H_    0.704730 0.084886 0.408069 0.224476
H39   H     H_    0.893572 0.703665 0.414645 0.223051
H40   H     H_    0.302520 0.926013 0.406837 0.224602
C61   C     C_R   0.570944 0.818889 0.955532 0.361869
C62   C     C_R   0.197008 0.537095 0.947560 0.407018
C63   C     C_R   0.435343 0.195302 0.954438 0.444270
C64   C     C_R   0.802866 0.382918 0.019346 0.496239
C65   C     C_R   0.040145 0.307176 0.447953 0.397587
C66   C     C_R   0.697109 0.030393 0.446828 0.392357
C67   C     C_R   0.956800 0.696653 0.449643 0.409623
C68   C     C_R   0.306972 0.976196 0.446051 0.384737
C69   C     C_R   0.537139 0.785159 0.976807 -0.090979
C70   C     C_R   0.220781 0.526388 0.975081 -0.085166
C71   C     C_R   0.462209 0.220136 0.979044 -0.099498
C72   C     C_R   0.780352 0.440586 0.008941 -0.115377
C73   C     C_R   0.027723 0.281471 0.475237 -0.086925
C74   C     C_R   0.720703 0.022907 0.474575 -0.085047
C75   C     C_R   0.970943 0.720419 0.476584 -0.089524
C76   C     C_R   0.281379 0.980194 0.473837 -0.086925
C77   C     C_R   0.536314 0.720355 0.975047 -0.011922
C78   C     C_R   0.281631 0.545777 0.980075 -0.051560
C79   C     C_R   0.447509 0.281300 0.985740 -0.056665
C80   C     C_R   0.720890 0.441907 0.997085 -0.087429
C81   C     C_R   0.045110 0.220007 0.480126 -0.044242
C82   C     C_R   0.781500 0.042604 0.479216 -0.038337
C83   C     C_R   0.953201 0.781265 0.482159 -0.048478
C84   C     C_R   0.220080 0.960443 0.478169 -0.034426
C85   C     C_R   0.510013 0.686407 0.998524 -0.112056
C86   C     C_R   0.313790 0.514768 0.001691 -0.093234
C87   C     C_R   0.490909 0.314099 0.001626 -0.071521
C88   C     C_R   0.687189 0.497469 0.999332 -0.073593
C89   C     C_R   0.010327 0.186217 0.500547 -0.094320
C90   C     C_R   0.813632 0.013142 0.501345 -0.095049
C91   C     C_R   0.988835 0.813832 0.501684 -0.096589
C92   C     C_R   0.186457 0.987718 0.500499 -0.096326
C93   C     C_R   0.482609 0.716464 0.021499 -0.173303
C94   C     C_R   0.281708 0.483041 0.023292 -0.136952
C95   C     C_R   0.536952 0.283720 0.016569 -0.215680
C96   C     C_R   0.715374 0.550764 0.009266 -0.179136
C97   C     C_R   0.974500 0.216336 0.520925 -0.160141
C98   C     C_R   0.781508 0.982705 0.523327 -0.157993
C99   C     C_R   0.026249 0.782626 0.520917 -0.161206
C100  C     C_R   0.217208 0.015695 0.522733 -0.165497
C101  C     C_R   0.477656 0.779621 0.021856 0.431939
C102  C     C_R   0.218114 0.477224 0.022549 0.414973
C103  C     C_R   0.541165 0.220228 0.016139 0.423964
C104  C     C_R   0.778556 0.552421 0.013902 0.425730
C105  C     C_R   0.970822 0.279888 0.520803 0.418376
C106  C     C_R   0.717760 0.978260 0.522903 0.418486
C107  C     C_R   0.030855 0.719106 0.520466 0.418721
C108  C     C_R   0.280940 0.019412 0.522496 0.418871
C109  C     C_R   0.504167 0.814031 0.999283 -0.197996
C110  C     C_R   0.187195 0.498140 0.997996 -0.175589
C111  C     C_R   0.503059 0.187544 0.997225 -0.185703
C112  C     C_R   0.812884 0.497546 0.010598 -0.176239
C113  C     C_R   0.997236 0.313089 0.497551 -0.183143
C114  C     C_R   0.686967 0.997573 0.498070 -0.178033
C115  C     C_R   0.003021 0.687319 0.497958 -0.183859
C116  C     C_R   0.313426 0.002613 0.497590 -0.179407
C117  C     C_R   0.498548 0.002720 0.086400 -0.054869
C118  C     C_R   0.998621 0.498888 0.086497 -0.038935
C119  C     C_R   0.997937 0.500199 0.586544 -0.066974
C120  C     C_R   0.499411 0.997910 0.586631 -0.055565
O17   O     O_R   0.448240 0.999940 0.041970 -0.605537
O18   O     O_R   0.000060 0.448240 0.041970 -0.568650
O19   O     O_R   0.551760 0.000060 0.041970 -0.599078
O20   O     O_R   0.999940 0.551760 0.041970 -0.617241
O21   O     O_R   0.948240 0.499940 0.541970 -0.604806
O22   O     O_R   0.500060 0.948240 0.541970 -0.596351
O23   O     O_R   0.051760 0.500060 0.541970 -0.597348
O24   O     O_R   0.499940 0.051760 0.541970 -0.596868
C121  C     C_R   0.499530 0.000556 0.055433 0.972486
C122  C     C_R   0.999340 0.499581 0.055439 0.995009
C123  C     C_R   0.999475 0.499882 0.555474 1.002557
C124  C     C_R   0.499780 0.999485 0.555482 1.022070
O25   O     O_R   0.448230 0.908340 0.000040 -0.587015
O26   O     O_R   0.091660 0.448230 0.000040 -0.523739
O27   O     O_R   0.551770 0.091660 0.000040 -0.528168
O28   O     O_R   0.908340 0.551770 0.000040 -0.564477
O29   O     O_R   0.948230 0.408340 0.500040 -0.527487
O30   O     O_R   0.591660 0.948230 0.500040 -0.526914
O31   O     O_R   0.051770 0.591660 0.500040 -0.526215
O32   O     O_R   0.408340 0.051770 0.500040 -0.527938
O33   O     O_R   0.551670 0.908330 0.000040 -0.560155
O34   O     O_R   0.091670 0.551670 0.000040 -0.632042
O35   O     O_R   0.448330 0.091670 0.000040 -0.640884
O36   O     O_R   0.908330 0.448330 0.000040 -0.592982
O37   O     O_R   0.051670 0.408330 0.500040 -0.638993
O38   O     O_R   0.591670 0.051670 0.500040 -0.633002
O39   O     O_R   0.948330 0.591670 0.500040 -0.643075
O40   O     O_R   0.408330 0.948330 0.500040 -0.629604
C125  C     C_R   0.500545 0.879951 0.999726 0.924038
C126  C     C_R   0.120373 0.499672 0.998578 0.987483
C127  C     C_R   0.500618 0.120599 0.999016 1.007049
C128  C     C_R   0.879925 0.499601 0.004150 0.940955
C129  C     C_R   0.999488 0.379710 0.498526 0.991257
C130  C     C_R   0.620298 0.999586 0.498559 0.981191
C131  C     C_R   0.000633 0.620509 0.498936 0.993916
C132  C     C_R   0.379948 0.000529 0.498187 0.982038
Zn5   Zn    Zn3+2 0.430890 0.999960 0.000050 1.096748
Zn6   Zn    Zn3+2 0.000040 0.430890 0.000050 1.159992
Zn7   Zn    Zn3+2 0.569110 0.000040 0.000050 1.165412
Zn8   Zn    Zn3+2 0.999960 0.569110 0.000050 1.101696
Zn9   Zn    Zn3+2 0.930890 0.499960 0.500050 1.111216
Zn10  Zn    Zn3+2 0.500040 0.930890 0.500050 1.114417
Zn11  Zn    Zn3+2 0.069110 0.500040 0.500050 1.114618
Zn12  Zn    Zn3+2 0.499960 0.069110 0.500050 1.113339
C133  C     C_R   0.996773 0.446597 0.898556 -0.189369
C134  C     C_R   0.555749 0.002498 0.898153 -0.208070
C135  C     C_R   0.978995 0.556818 0.899266 -0.225327
C136  C     C_R   0.449829 0.965702 0.900179 -0.227112
C137  C     C_R   0.498037 0.946736 0.398519 -0.200764
C138  C     C_R   0.057613 0.506145 0.398502 -0.196831
C139  C     C_R   0.502961 0.058392 0.398765 -0.177459
C140  C     C_R   0.945883 0.495364 0.398815 -0.164368
O41   O     O_R   0.448240 0.999980 0.958120 -0.612662
O42   O     O_R   0.000020 0.448240 0.958120 -0.608174
O43   O     O_R   0.551760 0.000020 0.958120 -0.577859
O44   O     O_R   0.999980 0.551760 0.958120 -0.626644
O45   O     O_R   0.948240 0.499980 0.458120 -0.616950
O46   O     O_R   0.500020 0.948240 0.458120 -0.623168
O47   O     O_R   0.051760 0.500020 0.458120 -0.623860
O48   O     O_R   0.499980 0.051760 0.458120 -0.620213
C141  C     C_R   0.500595 0.995696 0.944772 0.977035
C142  C     C_R   0.997402 0.500427 0.944688 0.947195
C143  C     C_R   0.000459 0.500093 0.444612 0.986088
C144  C     C_R   0.500136 0.000495 0.444632 0.950004
H41   H     H_    0.006129 0.403585 0.909665 0.200151
H42   H     H_    0.596400 0.019212 0.908800 0.215598
H43   H     H_    0.972795 0.598922 0.911026 0.213444
H44   H     H_    0.409050 0.952427 0.912524 0.206313
H45   H     H_    0.496994 0.902902 0.409870 0.194939
H46   H     H_    0.100512 0.510974 0.409840 0.193874
H47   H     H_    0.504251 0.101150 0.410304 0.192822
H48   H     H_    0.902367 0.490371 0.410376 0.192352
C145  C     C_R   0.990755 0.501292 0.913743 -0.110590
C146  C     C_R   0.502195 0.987618 0.913928 -0.108562
C147  C     C_R   0.500328 0.001842 0.413541 -0.063385
C148  C     C_R   0.001397 0.500424 0.413545 -0.053798
C149  C     C_R   0.031093 0.534164 0.809805 0.680194
C150  C     C_R   0.464842 0.021839 0.810887 0.679506
C151  C     C_R   0.936250 0.477323 0.810141 0.675438
C152  C     C_R   0.536474 0.938150 0.809600 0.677906
C153  C     C_R   0.550011 0.026705 0.308978 0.676334
C154  C     C_R   0.976071 0.548957 0.309532 0.673793
C155  C     C_R   0.446618 0.987425 0.310405 0.676970
C156  C     C_R   0.030411 0.453163 0.309941 0.678473
N1    N     N_R   0.983284 0.505426 0.823959 -0.342552
N2    N     N_R   0.501122 0.979289 0.824228 -0.340318
N3    N     N_R   0.498831 0.006316 0.323672 -0.345759
N4    N     N_R   0.003412 0.501232 0.323714 -0.346180
C157  C     C_R   0.938957 0.471444 0.780393 -0.130430
C158  C     C_R   0.541364 0.942352 0.779736 -0.130205
C159  C     C_R   0.030803 0.540058 0.780006 -0.135555
C160  C     C_R   0.458719 0.021303 0.781185 -0.136591
C161  C     C_R   0.446243 0.982292 0.280649 -0.133210
C162  C     C_R   0.035901 0.454226 0.280128 -0.134163
C163  C     C_R   0.548400 0.034384 0.279273 -0.132952
C164  C     C_R   0.968742 0.546621 0.279948 -0.132644
C165  C     C_R   0.985817 0.505398 0.765290 -0.093949
C166  C     C_R   0.499995 0.983093 0.765544 -0.094271
C167  C     C_R   0.496968 0.008758 0.265055 -0.094595
C168  C     C_R   0.001724 0.499994 0.265148 -0.094095
C169  C     C_R   0.897285 0.433611 0.765074 0.431520
C170  C     C_R   0.585172 0.907874 0.763431 0.433933
C171  C     C_R   0.073889 0.577764 0.764262 0.433842
C172  C     C_R   0.414305 0.057824 0.766402 0.431327
C173  C     C_R   0.397706 0.952587 0.265794 0.433744
C174  C     C_R   0.072913 0.411449 0.264641 0.432577
C175  C     C_R   0.595858 0.065505 0.263149 0.433323
C176  C     C_R   0.930580 0.588603 0.264514 0.433165
C177  C     C_R   0.399013 0.953446 0.236146 -0.181760
C178  C     C_R   0.071286 0.412415 0.235024 -0.181243
C179  C     C_R   0.593508 0.065836 0.233550 -0.181926
C180  C     C_R   0.929721 0.585829 0.234943 -0.182131
C181  C     C_R   0.900957 0.433551 0.735448 -0.182648
C182  C     C_R   0.584074 0.911989 0.733817 -0.183874
C183  C     C_R   0.074547 0.575875 0.734654 -0.182318
C184  C     C_R   0.415602 0.059362 0.736763 -0.181141
C185  C     C_R   0.447481 0.981502 0.220734 -0.075741
C186  C     C_R   0.035336 0.455286 0.220251 -0.075023
C187  C     C_R   0.544865 0.037730 0.219434 -0.077232
C188  C     C_R   0.964388 0.542033 0.220223 -0.079070
C189  C     C_R   0.945477 0.468450 0.720502 -0.076955
C190  C     C_R   0.542135 0.950260 0.719791 -0.078002
C191  C     C_R   0.032602 0.539431 0.720105 -0.077051
C192  C     C_R   0.458055 0.024324 0.721268 -0.077856
C193  C     C_R   0.496390 0.009407 0.235109 0.000529
C194  C     C_R   0.000484 0.499103 0.235241 0.000676
C195  C     C_R   0.987913 0.504481 0.735335 0.000993
C196  C     C_R   0.500031 0.985844 0.735572 0.001497
C197  C     C_R   0.448823 0.980880 0.190979 0.556067
C198  C     C_R   0.034618 0.456163 0.190508 0.555419
C199  C     C_R   0.543263 0.038101 0.189702 0.557377
C200  C     C_R   0.962932 0.539670 0.190546 0.561620
C201  C     C_R   0.949159 0.467185 0.690773 0.556476
C202  C     C_R   0.542130 0.954481 0.690042 0.556082
C203  C     C_R   0.033619 0.538199 0.690353 0.556945
C204  C     C_R   0.458492 0.025992 0.691490 0.556942
N5    N     N_R   0.496167 0.009135 0.176088 -0.357424
N6    N     N_R   0.998403 0.497700 0.176285 -0.355827
N7    N     N_R   0.992525 0.502080 0.676331 -0.357011
N8    N     N_R   0.500392 0.991624 0.676516 -0.357048
O49   O     O_2   0.079036 0.555137 0.824830 -0.432834
O50   O     O_2   0.436504 0.065093 0.826605 -0.426481
O51   O     O_2   0.887296 0.456199 0.825472 -0.441624
O52   O     O_2   0.565656 0.893381 0.824254 -0.455367
O53   O     O_2   0.602064 0.037997 0.323365 -0.433359
O54   O     O_2   0.957259 0.598311 0.324322 -0.429585
O55   O     O_2   0.395575 0.974935 0.326271 -0.433897
O56   O     O_2   0.050255 0.404473 0.325354 -0.431008
H49   H     H_    0.361948 0.931332 0.224918 0.239153
H50   H     H_    0.098846 0.379504 0.223321 0.239071
H51   H     H_    0.630047 0.088633 0.221352 0.239032
H52   H     H_    0.901287 0.618113 0.223244 0.238708
H53   H     H_    0.868971 0.405325 0.723867 0.239238
H54   H     H_    0.616875 0.885353 0.721505 0.239398
H55   H     H_    0.107962 0.603695 0.722779 0.238709
H56   H     H_    0.382563 0.087894 0.725614 0.239034
O57   O     O_2   0.403669 0.951422 0.177037 -0.518572
O58   O     O_2   0.070491 0.416389 0.175894 -0.518993
O59   O     O_2   0.588219 0.067521 0.174490 -0.515870
O60   O     O_2   0.925957 0.578696 0.176037 -0.512227
O61   O     O_2   0.910118 0.430881 0.676397 -0.516378
O62   O     O_2   0.583905 0.922171 0.674736 -0.512910
O63   O     O_2   0.074879 0.573360 0.675523 -0.517919
O64   O     O_2   0.416872 0.061105 0.677588 -0.513232
C205  C     C_R   0.983340 0.503623 0.854409 0.052231
C206  C     C_R   0.502751 0.978748 0.854673 0.051736
C207  C     C_R   0.499876 0.004781 0.354096 0.061052
C208  C     C_R   0.002822 0.501147 0.354132 0.060912
S1    S     S_3+6 0.843358 0.381165 0.781290 0.125185
O65   O     O_2   0.790637 0.416785 0.794223 -0.194795
O66   O     O_2   0.817898 0.337769 0.759791 -0.251013
O67   O     O_3   0.878745 0.339368 0.806656 -0.452418
H57   H     H_    0.845109 0.315659 0.816368 0.410312
S2    S     S_3+6 0.645921 0.863078 0.778313 0.121727
O68   O     O_2   0.619145 0.805270 0.791669 -0.206007
O69   O     O_2   0.692483 0.845410 0.755819 -0.250856
O70   O     O_3   0.682302 0.904227 0.803037 -0.451442
H58   H     H_    0.711045 0.874758 0.812191 0.409719
S3    S     S_3+6 0.124264 0.632332 0.779793 0.120182
O71   O     O_2   0.177349 0.598866 0.793331 -0.201666
O72   O     O_2   0.149624 0.676731 0.757652 -0.252259
O73   O     O_3   0.085194 0.672597 0.804485 -0.456278
H59   H     H_    0.117118 0.697371 0.813994 0.407515
S4    S     S_3+6 0.352510 0.098159 0.783246 0.123473
O74   O     O_2   0.377519 0.155419 0.796561 -0.194358
O75   O     O_2   0.304290 0.116480 0.762068 -0.251053
O76   O     O_3   0.318985 0.052623 0.808377 -0.455708
H60   H     H_    0.289538 0.079769 0.818544 0.409106
S5    S     S_3+6 0.337308 0.908663 0.282569 0.120975
O77   O     O_2   0.291646 0.951674 0.296252 -0.199390
O78   O     O_2   0.304023 0.870305 0.261302 -0.251006
O79   O     O_3   0.367320 0.861227 0.307368 -0.457210
H61   H     H_    0.331023 0.843392 0.317703 0.405503
S6    S     S_3+6 0.126524 0.359639 0.280503 0.121554
O80   O     O_2   0.091691 0.306958 0.294492 -0.198235
O81   O     O_2   0.170380 0.334272 0.258519 -0.251815
O82   O     O_3   0.167981 0.396887 0.304856 -0.455842
H62   H     H_    0.191865 0.364228 0.314695 0.407333
S7    S     S_3+6 0.656094 0.109658 0.278319 0.121616
O83   O     O_2   0.703746 0.066779 0.290525 -0.199100
O84   O     O_2   0.686870 0.150668 0.256220 -0.250786
O85   O     O_3   0.626527 0.154166 0.304115 -0.455593
H63   H     H_    0.662996 0.172286 0.313386 0.406779
S8    S     S_3+6 0.878457 0.641578 0.280625 0.122603
O86   O     O_2   0.914570 0.694552 0.292288 -0.198124
O87   O     O_2   0.833350 0.666343 0.259329 -0.251287
O88   O     O_3   0.838397 0.605793 0.307056 -0.453634
H64   H     H_    0.815461 0.639081 0.316782 0.407367
N9    N     N_R   0.591722 0.635789 0.949160 0.220179
O89   O     O_R   0.589338 0.601394 0.926821 -0.322315
O90   O     O_R   0.633231 0.624192 0.968134 -0.407235
N10   N     N_R   0.359672 0.629702 0.972532 0.188557
O91   O     O_R   0.394311 0.659544 0.954058 -0.388559
O92   O     O_R   0.364505 0.642540 0.999283 -0.425909
N11   N     N_R   0.362701 0.359230 0.988804 0.179597
O93   O     O_R   0.321942 0.391147 0.974836 -0.381770
O94   O     O_R   0.365235 0.365158 0.016193 -0.407118
N12   N     N_R   0.650079 0.387233 0.964460 0.206838
O95   O     O_R   0.656416 0.425616 0.943081 -0.286058
O96   O     O_R   0.613147 0.340218 0.961923 -0.377803
N13   N     N_R   0.129015 0.142220 0.473813 0.187643
O97   O     O_R   0.159327 0.108742 0.455628 -0.340111
O98   O     O_R   0.140160 0.134988 0.500713 -0.422805
N14   N     N_R   0.859081 0.126323 0.470237 0.191786
O99   O     O_R   0.893947 0.154552 0.451322 -0.334089
O100  O     O_R   0.863655 0.141411 0.496728 -0.430709
N15   N     N_R   0.868229 0.858708 0.478377 0.185947
O101  O     O_R   0.834891 0.892205 0.461319 -0.348496
O102  O     O_R   0.860079 0.864376 0.505630 -0.422293
N16   N     N_R   0.142990 0.877995 0.468312 0.194394
O103  O     O_R   0.109255 0.852470 0.449088 -0.332778
O104  O     O_R   0.136419 0.859605 0.494607 -0.431394
S9    S     S_3+6 0.644309 0.849866 0.964427 0.086748
O105  O     O_2   0.655225 0.843291 0.995772 -0.236212
O106  O     O_2   0.694297 0.815268 0.948849 -0.217375
O107  O     O_3   0.648855 0.924416 0.954446 -0.537915
H65   H     H_    0.689337 0.938776 0.961421 0.386006
S10   S     S_3+6 0.165407 0.476183 0.927925 0.044005
O108  O     O_2   0.123466 0.502680 0.905801 -0.312874
O109  O     O_2   0.218394 0.444662 0.913064 -0.209651
O110  O     O_3   0.127519 0.423124 0.947846 -0.551610
H66   H     H_    0.115643 0.390637 0.934426 0.390566
S11   S     S_3+6 0.479677 0.155363 0.929032 0.043927
O111  O     O_2   0.440872 0.104135 0.917747 -0.296036
O112  O     O_2   0.494227 0.199771 0.904980 -0.216611
O113  O     O_3   0.546717 0.128413 0.941837 -0.581812
H67   H     H_    0.575811 0.128146 0.925378 0.394054
S12   S     S_3+6 0.853770 0.376287 0.048313 0.038548
O114  O     O_2   0.865986 0.437948 0.061211 -0.317105
O115  O     O_2   0.824547 0.334444 0.070521 -0.258994
O116  O     O_3   0.920462 0.344358 0.037002 -0.538515
H68   H     H_    0.939794 0.327082 0.054296 0.375737
S13   S     S_3+6 0.977617 0.333469 0.427349 0.039032
O117  O     O_2   0.001926 0.368762 0.401842 -0.311175
O118  O     O_2   0.943875 0.277444 0.417247 -0.193461
O119  O     O_3   0.927178 0.376594 0.445725 -0.573037
H69   H     H_    0.890647 0.380632 0.433405 0.393729
S14   S     S_3+6 0.668982 0.965836 0.428433 0.044550
O120  O     O_2   0.633482 0.987573 0.403050 -0.317886
O121  O     O_2   0.724326 0.930211 0.418108 -0.195210
O122  O     O_3   0.624923 0.918078 0.448506 -0.551485
H70   H     H_    0.612723 0.884654 0.435637 0.391180
S15   S     S_3+6 0.016949 0.668618 0.427534 0.039484
O123  O     O_2   0.989686 0.631903 0.404056 -0.314470
O124  O     O_2   0.049657 0.723746 0.414556 -0.195964
O125  O     O_3   0.069253 0.626337 0.445090 -0.572875
H71   H     H_    0.104318 0.621424 0.431511 0.393185
S16   S     S_3+6 0.334213 0.043820 0.428350 0.044684
O126  O     O_2   0.368238 0.026699 0.401585 -0.312907
O127  O     O_2   0.278493 0.081277 0.420360 -0.190325
O128  O     O_3   0.379495 0.087756 0.448332 -0.554547
H72   H     H_    0.390705 0.123716 0.436053 0.391506
S17   S     S_3+6 0.442464 0.813776 0.052102 0.066376
O129  O     O_2   0.386480 0.850172 0.043530 -0.239922
O130  O     O_2   0.422930 0.765135 0.073567 -0.260961
O131  O     O_3   0.494045 0.860961 0.066919 -0.584222
H73   H     H_    0.477281 0.868360 0.086254 0.389722
S18   S     S_3+6 0.179773 0.446235 0.053252 0.056991
O132  O     O_2   0.138218 0.393513 0.045745 -0.240471
O133  O     O_2   0.226177 0.423479 0.074433 -0.257375
O134  O     O_3   0.137472 0.502591 0.067957 -0.601695
H74   H     H_    0.133906 0.491100 0.088351 0.391033
S19   S     S_3+6 0.594300 0.184921 0.039771 0.054511
O135  O     O_2   0.646146 0.155950 0.023044 -0.261257
O136  O     O_2   0.621124 0.231846 0.059283 -0.259533
O137  O     O_3   0.557385 0.130572 0.059456 -0.580156
H75   H     H_    0.589311 0.113578 0.072236 0.396381
S20   S     S_3+6 0.810536 0.621569 0.027022 0.093297
O138  O     O_2   0.837306 0.659026 0.002636 -0.241149
O139  O     O_2   0.761123 0.658708 0.041662 -0.241738
O140  O     O_3   0.866440 0.604777 0.050347 -0.526302
H76   H     H_    0.886327 0.644849 0.054337 0.387608
S21   S     S_3+6 0.934321 0.315268 0.550382 0.064542
O141  O     O_2   0.879088 0.351842 0.540986 -0.234383
O142  O     O_2   0.913312 0.267310 0.571890 -0.260149
O143  O     O_3   0.985507 0.362352 0.565532 -0.597052
H77   H     H_    0.968427 0.369482 0.584835 0.392062
S22   S     S_3+6 0.678982 0.951412 0.554272 0.055990
O144  O     O_2   0.636029 0.898987 0.547970 -0.244320
O145  O     O_2   0.725023 0.929743 0.575850 -0.259820
O146  O     O_3   0.638199 0.010333 0.567717 -0.594797
H78   H     H_    0.635576 0.001795 0.588417 0.393081
S23   S     S_3+6 0.070277 0.682216 0.548811 0.065100
O147  O     O_2   0.124309 0.645831 0.537655 -0.231574
O148  O     O_2   0.093711 0.729121 0.569237 -0.260404
O149  O     O_3   0.020496 0.634798 0.566109 -0.599524
H79   H     H_    0.039193 0.627245 0.584900 0.395022
S24   S     S_3+6 0.317684 0.042686 0.554040 0.056232
O150  O     O_2   0.358898 0.097508 0.548225 -0.244414
O151  O     O_2   0.270218 0.059385 0.576321 -0.261433
O152  O     O_3   0.360290 0.983420 0.566167 -0.592783
H80   H     H_    0.363195 0.989790 0.586869 0.390517
N17   N     N_R   0.006464 0.391017 0.853955 0.242740
O153  O     O_R   0.992229 0.338042 0.865734 -0.310300
O154  O     O_R   0.037315 0.391719 0.829999 -0.328485
N18   N     N_R   0.610448 0.020559 0.852909 0.243279
O155  O     O_R   0.664907 0.015628 0.864135 -0.302067
O156  O     O_R   0.605355 0.050485 0.828904 -0.328242
N19   N     N_R   0.959563 0.616009 0.855587 0.243226
O157  O     O_R   0.973594 0.668177 0.867183 -0.303537
O158  O     O_R   0.927392 0.616905 0.832478 -0.328296
N20   N     N_R   0.395702 0.935559 0.857241 0.239686
O159  O     O_R   0.341524 0.939748 0.869559 -0.307496
O160  O     O_R   0.400805 0.904164 0.834023 -0.339868
N21   N     N_R   0.500665 0.889814 0.354088 0.240339
O161  O     O_R   0.476371 0.840456 0.365802 -0.319536
O162  O     O_R   0.531502 0.884719 0.330289 -0.327179
N22   N     N_R   0.116963 0.518494 0.354065 0.240928
O163  O     O_R   0.168616 0.501400 0.365628 -0.317226
O164  O     O_R   0.119343 0.550407 0.330443 -0.325148
N23   N     N_R   0.499377 0.119705 0.354780 0.240551
O165  O     O_R   0.524578 0.167747 0.366153 -0.319658
O166  O     O_R   0.467186 0.127371 0.331896 -0.324717
N24   N     N_R   0.888678 0.483777 0.354858 0.239822
O167  O     O_R   0.836561 0.501499 0.366301 -0.315523
O168  O     O_R   0.887269 0.451143 0.331946 -0.327189

loop_
_geom_bond_atom_site_label_1
_geom_bond_atom_site_label_2
_geom_bond_distance
_ccdc_geom_bond_type
O70   H58   0.990530 S    
C13   C33   1.392383 A    
C161  C173  1.428149 A    
C10   H10   1.083042 S    
C163  C175  1.427451 A    
C58   H38   1.082917 S    
C14   C34   1.393023 A    
C135  C145  1.399769 A    
S21   O143  1.678919 S    
C155  N3    1.363761 A    
C22   C206  1.415654 A    
C71   C111  1.421067 A    
O85   H63   0.990522 S    
C15   H15   1.083049 S    
C155  O55   1.346227 S    
S13   O118  1.503200 D    
C190  C196  1.405139 A    
O48   C144  1.289356 A    
O79   H61   0.990527 S    
C197  O57   1.350066 S    
C5    C92   1.443378 S    
O33   C125  1.263241 A    
N13   O98   1.301193 A    
C16   C120  1.404362 A    
N15   O101  1.301591 A    
O14   Zn4   2.014244 S    
C164  C168  1.423179 A    
C20   C36   1.400508 A    
O9    Zn3   2.006593 S    
O19   Zn7   2.004532 S    
C184  H56   1.082325 S    
C37   N9    1.429906 S    
C140  H48   1.082793 S    
C40   N12   1.435136 S    
C87   C95   1.388930 A    
C62   S10   1.767157 S    
S5    O79   1.682818 S    
O38   C130  1.290879 A    
C83   C91   1.407001 A    
S9    O106  1.504079 D    
O21   Zn9   2.016669 S    
C202  N8    1.368417 A    
C157  C169  1.428816 A    
C56   C64   1.398037 A    
O10   Zn3   2.014244 S    
O19   C121  1.285140 A    
C103  S19   1.777882 S    
C137  C147  1.399803 A    
C192  C204  1.402968 A    
S11   O113  1.680049 S    
H5    C33   1.082827 S    
N20   O160  1.301230 A    
C106  C114  1.413426 A    
C168  C194  1.410458 A    
O35   Zn5   2.022916 S    
S19   O135  1.503168 D    
C47   C55   1.384945 A    
C149  N1    1.363828 A    
O33   Zn7   2.022934 S    
H8    C36   1.082895 S    
C49   H29   1.082735 S    
C60   H40   1.082881 S    
O37   Zn11  2.022934 S    
C156  C162  1.407723 A    
C93   C101  1.374075 A    
S17   O131  1.679024 S    
C113  C129  1.446640 S    
C24   N20   1.440859 S    
C8    C91   1.441615 S    
C188  C200  1.401105 A    
C86   C94   1.393233 A    
C44   C84   1.421495 A    
S13   O119  1.676384 S    
C189  C201  1.402590 A    
O67   H57   0.990517 S    
O12   C4    1.271607 A    
C39   N11   1.433409 S    
O13   C5    1.272522 A    
C21   C205  1.415104 A    
C178  H50   1.082303 S    
N17   O154  1.301194 A    
N9    O89   1.301608 A    
C12   H12   1.081899 S    
C41   C81   1.421669 A    
O88   H64   0.990515 S    
O30   C130  1.272894 A    
O8    Zn2   2.014677 S    
O12   Zn3   2.026274 S    
O119  H69   0.990400 S    
C23   N19   1.440815 S    
C77   C85   1.427968 A    
C16   H16   1.082902 S    
C160  C166  1.423223 A    
C74   C114  1.417772 A    
C203  N7    1.367774 A    
S8    O87   1.503715 D    
C12   C32   1.390959 A    
C39   C47   1.400234 A    
O4    Zn1   2.014677 S    
C177  C185  1.396724 A    
S16   O126  1.501449 D    
C175  S7    1.779739 S    
C38   C78   1.421323 A    
Zn11  O47   2.017146 S    
C186  C198  1.401737 A    
C158  C166  1.424559 A    
C181  H53   1.082163 S    
O10   C2    1.287792 A    
C22   N18   1.440007 S    
C171  S3    1.779876 S    
S24   O150  1.502281 D    
C99   C107  1.381451 A    
C100  C108  1.378402 A    
O149  H79   0.990583 S    
S15   O124  1.503253 D    
O28   C128  1.295909 A    
H19   C95   1.084078 S    
O20   Zn8   2.004828 S    
S23   O149  1.678131 S    
C119  C123  1.464029 S    
N2    C206  1.435511 S    
C133  C145  1.400187 A    
O137  H75   0.990640 S    
S3    O71   1.503451 D    
C15   C35   1.390337 A    
O47   C143  1.286808 A    
C18   N6    1.433887 S    
C48   C56   1.388116 A    
C73   C113  1.418327 A    
C19   C35   1.400743 A    
C183  H55   1.082342 S    
C160  C172  1.428104 A    
C76   C116  1.417792 A    
S1    O65   1.503462 D    
C107  S23   1.775969 S    
C204  O64   1.350045 S    
C56   H36   1.083170 S    
C139  H47   1.082901 S    
C10   C30   1.389302 A    
O27   Zn7   2.022175 S    
N13   O97   1.301371 A    
O134  H74   0.990556 S    
O25   Zn5   2.022188 S    
C179  H51   1.082340 S    
O31   C131  1.271742 A    
C53   H33   1.083496 S    
H4    C32   1.082838 S    
C172  S4    1.780015 S    
O29   Zn9   2.022188 S    
C65   S13   1.766241 S    
C167  C193  1.411231 A    
C18   C32   1.401710 A    
O73   H59   0.990530 S    
C28   C208  1.414568 A    
O40   Zn10  2.017171 S    
C173  C177  1.396748 A    
S4    O74   1.503453 D    
H18   C94   1.082441 S    
C59   H39   1.082894 S    
O34   Zn8   2.017159 S    
C164  C176  1.427587 A    
S6    O80   1.503449 D    
O43   C141  1.284456 A    
C180  H52   1.082264 S    
C169  C181  1.396996 A    
C41   C49   1.401693 A    
H22   C98   1.082797 S    
O116  H68   0.990277 S    
O38   Zn12  2.017159 S    
O131  H73   0.990479 S    
C26   C138  1.396240 A    
C43   C51   1.401553 A    
C162  C174  1.427466 A    
C11   H11   1.083166 S    
C101  S17   1.777230 S    
C101  C109  1.402853 A    
H7    C35   1.082896 S    
O35   C127  1.290370 A    
C185  C193  1.405294 A    
C69   C77   1.408896 A    
C51   H31   1.082705 S    
S10   O109  1.503159 D    
N21   O162  1.301229 A    
C3    C86   1.445475 S    
C60   C68   1.400987 A    
S18   O132  1.502145 D    
C9    C117  1.401949 A    
H2    C30   1.082894 S    
S16   O128  1.675139 S    
Zn7   O43   2.017146 S    
C1    C88   1.442345 S    
C12   C118  1.402876 A    
N14   O99   1.301547 A    
C97   C105  1.380247 A    
C187  C193  1.405535 A    
S7    O85   1.682794 S    
C182  H54   1.082155 S    
C95   C103  1.380212 A    
S24   O152  1.680091 S    
O6    Zn2   2.026699 S    
C25   C207  1.415277 A    
O36   Zn6   2.017171 S    
C24   C136  1.397898 A    
S6    O82   1.682791 S    
C91   C99   1.392314 A    
O26   C126  1.275271 A    
S10   O110  1.676111 S    
C159  C171  1.427820 A    
S23   O147  1.502525 D    
C110  C126  1.443379 S    
C11   C31   1.391506 A    
C54   C62   1.400298 A    
N18   O156  1.301160 A    
O146  H78   0.990511 S    
C157  C165  1.424250 A    
C44   N16   1.435716 S    
C158  C170  1.428998 A    
O3    C3    1.286533 A    
Zn12  O48   2.017369 S    
C50   H30   1.082695 S    
N16   O103  1.301580 A    
C19   C33   1.401991 A    
C170  S2    1.780400 S    
C58   C66   1.400835 A    
O39   Zn9   2.022916 S    
S1    O67   1.682771 S    
O17   Zn5   2.016669 S    
C200  N6    1.368371 A    
C104  C112  1.412583 A    
C181  C189  1.396472 A    
N23   O165  1.301464 A    
C150  N2    1.364011 A    
C103  C111  1.419905 A    
S12   O114  1.502192 D    
C27   C139  1.395707 A    
S4    O75   1.503734 D    
C187  C199  1.401935 A    
C184  C192  1.396345 A    
C173  S5    1.780238 S    
C16   C36   1.390677 A    
C94   C102  1.379986 A    
C151  O51   1.345866 S    
O7    Zn2   2.007019 S    
C22   C134  1.396943 A    
C15   C119  1.403285 A    
C136  H44   1.083209 S    
S21   O142  1.504158 D    
C72   C112  1.423399 A    
O1    C1    1.274375 A    
S4    O76   1.682808 S    
O24   C124  1.290854 A    
C63   S11   1.760495 S    
O14   C6    1.270441 A    
N24   O167  1.301469 A    
C84   C92   1.407512 A    
C61   S9    1.778681 S    
O42   C142  1.289222 A    
O23   Zn11  2.004532 S    
C78   C86   1.405289 A    
O7    C7    1.283481 A    
O8    C8    1.283592 A    
C201  O61   1.350089 S    
C107  C115  1.415805 A    
N12   O96   1.301201 A    
N15   O102  1.301214 A    
C152  C158  1.410952 A    
S22   O144  1.502086 D    
C17   C31   1.402056 A    
C137  H45   1.082921 S    
C14   H14   1.082864 S    
C71   C79   1.403934 A    
C191  C203  1.402503 A    
O128  H72   0.990495 S    
C192  C196  1.406128 A    
S20   O138  1.503261 D    
S2    O68   1.503480 D    
C45   C53   1.388567 A    
C142  C145  1.467446 S    
C40   C48   1.399908 A    
C47   H27   1.082730 S    
C199  O59   1.350108 S    
C49   C57   1.391113 A    
N22   O163  1.301480 A    
S5    O78   1.503719 D    
C11   C117  1.402114 A    
C28   C140  1.394709 A    
C44   C52   1.401275 A    
C169  S1    1.780394 S    
S9    O105  1.504106 D    
C178  C186  1.396825 A    
C55   C63   1.396937 A    
C2    C85   1.442686 S    
C39   C79   1.423636 A    
C57   H37   1.082849 S    
S7    O83   1.503445 D    
S11   O112  1.503863 D    
C37   C77   1.435311 A    
O11   C3    1.272790 A    
O110  H66   0.990448 S    
C176  C180  1.396178 A    
C183  C191  1.396453 A    
C67   C75   1.415650 A    
S5    O77   1.503479 D    
C138  C148  1.399967 A    
C68   C76   1.416807 A    
H23   C99   1.083170 S    
C118  C122  1.463196 S    
H24   C100  1.082679 S    
O2    C2    1.270117 A    
O113  H67   0.990181 S    
C172  C184  1.396370 A    
O6    C6    1.285991 A    
C20   C34   1.401965 A    
C108  C116  1.410716 A    
S17   O130  1.504111 D    
S14   O120  1.501327 D    
O17   C121  1.285700 A    
C155  C161  1.408566 A    
C140  C148  1.400222 A    
S19   O137  1.679407 S    
C25   C137  1.396580 A    
C201  N7    1.368118 A    
C149  C159  1.408065 A    
C24   C206  1.415617 A    
C23   C135  1.397814 A    
C151  C157  1.409927 A    
S12   O116  1.681899 S    
C37   C45   1.402659 A    
O22   Zn10  2.016920 S    
C6    C89   1.441400 S    
O37   C129  1.288888 A    
N17   O153  1.301450 A    
C190  C202  1.403334 A    
N19   O158  1.301237 A    
C104  S20   1.773904 S    
O143  H77   0.990533 S    
H6    C34   1.082821 S    
C134  H42   1.083006 S    
C38   N10   1.435833 S    
C13   C119  1.402933 A    
C27   N23   1.440122 S    
C156  O56   1.346374 S    
C174  C178  1.396482 A    
C81   C89   1.406325 A    
C14   C120  1.403932 A    
C46   C54   1.388966 A    
C152  O52   1.345803 S    
O45   C143  1.285764 A    
C170  C182  1.397469 A    
C174  S6    1.779790 S    
C150  O50   1.346394 S    
H20   C96   1.083401 S    
C143  C148  1.463683 S    
C26   C208  1.414909 A    
C114  C130  1.440389 S    
O5    C5    1.285372 A    
S16   O127  1.502806 D    
C163  C167  1.423177 A    
O140  H76   0.990457 S    
C74   C82   1.401524 A    
O13   Zn4   2.006593 S    
C67   S15   1.766812 S    
C102  C110  1.414142 A    
S20   O140  1.682556 S    
S24   O151  1.504262 D    
H3    C31   1.082832 S    
O15   Zn4   2.018721 S    
O9    C1    1.282093 A    
C150  C160  1.408303 A    
C185  C197  1.402241 A    
C102  S18   1.776694 S    
C18   C30   1.401144 A    
N10   O92   1.301193 A    
S23   O148  1.504221 D    
C7    C90   1.443533 S    
C41   N13   1.435315 S    
S9    O107  1.678182 S    
O5    Zn2   2.019146 S    
C10   C118  1.403215 A    
O31   Zn11  2.022175 S    
N1    C205  1.434798 S    
C165  C195  1.412008 A    
O29   C129  1.271833 A    
C98   C106  1.380379 A    
C166  C196  1.412673 A    
C23   C205  1.415213 A    
C188  C194  1.405210 A    
N20   O159  1.301516 A    
C90   C98   1.393463 A    
C63   C71   1.418568 A    
C17   N5    1.434550 S    
N4    C208  1.433207 S    
O16   Zn4   2.026274 S    
C61   C69   1.422128 A    
N10   O91   1.301607 A    
C159  C165  1.423246 A    
N11   O93   1.301473 A    
C72   C80   1.409008 A    
C73   C81   1.401726 A    
C38   C46   1.399842 A    
C105  S21   1.775918 S    
C204  N8    1.367795 A    
C9    H9    1.083196 S    
C176  S8    1.780017 S    
C26   N22   1.440234 S    
C76   C84   1.401220 A    
C96   C104  1.385920 A    
C139  C147  1.400635 A    
C70   C110  1.420510 A    
C199  N5    1.368359 A    
C50   C58   1.390435 A    
O11   Zn3   2.018721 S    
C203  O63   1.350064 S    
C182  C190  1.396661 A    
C66   S14   1.769962 S    
N3    C207  1.434043 S    
C177  H49   1.082227 S    
C171  C183  1.396315 A    
Zn9   O45   2.004980 S    
N9    O90   1.298581 A    
C189  C195  1.405209 A    
C43   N15   1.435926 S    
C88   C96   1.396013 A    
C89   C97   1.394736 A    
S14   O122  1.675222 S    
C115  C131  1.449276 S    
C68   S16   1.769626 S    
C92   C100  1.395986 A    
O125  H71   0.990379 S    
N23   O166  1.301227 A    
C108  S24   1.776391 S    
O16   C8    1.273094 A    
O76   H60   0.990522 S    
C64   S12   1.770967 S    
C82   C90   1.407485 A    
S8    O86   1.503455 D    
C80   C88   1.413318 A    
O3    Zn1   2.007019 S    
C9    C29   1.390475 A    
O26   Zn6   2.013260 S    
C52   C60   1.391063 A    
C79   C87   1.407946 A    
N21   O161  1.301476 A    
C161  C167  1.423463 A    
S18   O133  1.504341 D    
C54   H34   1.083089 S    
C162  C168  1.423088 A    
C69   C109  1.421013 A    
O30   Zn10  2.013260 S    
N14   O100  1.300936 A    
C153  N3    1.363533 A    
C154  N4    1.363430 A    
O21   C123  1.285504 A    
S7    O84   1.503711 D    
C105  C113  1.412788 A    
N19   O157  1.301513 A    
O46   C144  1.289936 A    
O44   C142  1.290846 A    
O41   C141  1.289027 A    
S15   O125  1.676643 S    
C153  O53   1.346373 S    
C42   C50   1.400779 A    
O32   C132  1.272727 A    
C197  N5    1.368462 A    
Zn5   O41   2.004980 S    
C28   N24   1.440075 S    
C144  C147  1.464826 S    
C42   N14   1.435728 S    
C149  O49   1.346407 S    
O152  H80   0.990469 S    
C116  C132  1.438153 S    
S3    O73   1.682801 S    
C179  C187  1.396771 A    
N16   O104  1.300853 A    
C85   C93   1.396643 A    
O15   C7    1.274469 A    
S1    O66   1.503745 D    
O36   C128  1.286672 A    
O34   C126  1.289978 A    
C202  O62   1.350045 S    
C66   C74   1.418102 A    
O39   C131  1.289784 A    
O28   Zn8   2.013278 S    
C64   C72   1.424943 A    
S12   O115  1.503747 D    
O18   C122  1.290345 A    
C200  O60   1.350190 S    
C133  H41   1.082992 S    
C117  C121  1.460592 S    
O32   Zn12  2.013278 S    
C42   C82   1.421288 A    
H1    C29   1.082856 S    
Zn6   O42   2.005305 S    
C25   N21   1.440234 S    
C120  C124  1.467532 S    
C27   C207  1.414526 A    
S11   O111  1.499603 D    
C191  C195  1.406033 A    
C198  N6    1.368384 A    
S22   O146  1.679859 S    
S21   O141  1.502553 D    
C135  H43   1.083012 S    
Zn10  O46   2.005305 S    
C21   N17   1.440152 S    
C45   H25   1.082975 S    
C75   C115  1.418040 A    
N24   O168  1.301240 A    
O27   C127  1.272829 A    
C151  N1    1.363504 A    
O2    Zn1   2.026699 S    
C111  C127  1.453305 S    
O25   C125  1.287735 A    
C156  N4    1.363637 A    
C109  C125  1.431987 S    
C106  S22   1.775993 S    
C4    C87   1.435031 S    
C53   C61   1.393101 A    
S3    O72   1.503722 D    
S22   O145  1.504332 D    
C55   H35   1.083356 S    
O82   H62   0.990521 S    
C186  C194  1.405480 A    
C136  C146  1.398733 A    
O24   Zn12  2.004828 S    
C57   C65   1.400539 A    
S20   O139  1.503528 D    
O18   Zn6   2.016920 S    
S2    O69   1.503739 D    
C59   C67   1.400133 A    
C152  N2    1.363543 A    
C175  C179  1.396425 A    
S8    O88   1.682776 S    
C198  O58   1.350073 S    
C17   C29   1.402045 A    
C48   H28   1.082906 S    
N22   O164  1.301232 A    
S10   O108  1.500405 D    
C65   C73   1.414263 A    
C154  O54   1.346338 S    
O20   C122  1.288032 A    
O23   C123  1.286924 A    
Zn8   O44   2.017369 S    
C112  C128  1.474881 S    
C19   N7    1.433996 S    
C20   N8    1.434849 S    
C153  C163  1.407957 A    
O4    C4    1.281485 A    
S2    O70   1.682787 S    
C154  C164  1.407365 A    
O107  H65   0.990444 S    
C52   H32   1.082682 S    
C21   C133  1.396372 A    
S15   O123  1.500867 D    
C51   C59   1.390284 A    
N11   O94   1.301141 A    
O122  H70   0.990518 S    
O1    Zn1   2.019146 S    
C75   C83   1.402214 A    
N18   O155  1.301458 A    
S18   O134  1.679061 S    
S6    O81   1.503710 D    
C46   H26   1.082677 S    
O22   C124  1.289525 A    
S17   O129  1.502474 D    
S14   O121  1.502962 D    
C180  C188  1.396657 A    
C134  C146  1.398750 A    
C40   C80   1.423520 A    
O40   C132  1.290593 A    
S13   O117  1.501107 D    
H17   C93   1.082827 S    
S19   O136  1.503894 D    
N12   O95   1.301432 A    
C141  C146  1.466630 S    
C43   C83   1.422022 A    
C138  H46   1.082820 S    
C13   H13   1.083000 S    
C62   C70   1.418434 A    
H21   C97   1.083160 S    
C70   C78   1.403620 A    
