data_mof_unit_56167.cif
_audit_creation_date              2012-12-11T15:37:34-0500
_audit_creation_method            fapswitch 2.2
_symmetry_space_group_name_H-M    P1
_symmetry_Int_Tables_number       1
_space_group_crystal_system       triclinic
_cell_length_a                    17.293374
_cell_length_b                    24.348459
_cell_length_c                    14.681943
_cell_angle_alpha                 89.438108
_cell_angle_beta                  125.629168
_cell_angle_gamma                 90.339572
_cell_volume                      5024.58093549

loop_
_atom_site_label
_atom_site_type_symbol
_atom_type_description
_atom_site_fract_x
_atom_site_fract_y
_atom_site_fract_z
_atom_type_partial_charge
C1    C     C_R   0.851498 0.653092 0.908415 -0.253643
C2    C     C_3   0.574677 0.500375 0.645531 0.178410
C3    C     C_3   0.046594 0.010458 0.526546 -0.133832
C4    C     C_3   0.723009 0.426982 0.453593 -0.966467
C5    C     C_3   0.756144 0.585509 0.152612 -0.926668
C6    C     C_3   0.949868 0.361769 0.400398 -0.888958
C7    C     C_3   0.973095 0.633294 0.535484 -0.833000
C8    C     C_3   0.221502 0.928144 0.452662 -0.954444
C9    C     C_3   0.256637 0.086051 0.153074 -0.928225
C10   C     C_3   0.448078 0.861761 0.399511 -0.888996
C11   C     C_3   0.474328 0.133238 0.536262 -0.830921
C12   C     C_3   0.901947 0.000024 0.467587 0.181937
C13   C     C_3   0.075367 0.999154 0.645486 0.177254
C14   C     C_R   0.800242 0.229717 0.902582 -0.191908
C15   C     C_R   0.343361 0.686019 0.103221 -0.201454
C16   C     C_R   0.339812 0.310882 0.103362 -0.200111
C17   C     C_R   0.797358 0.769887 0.902761 -0.192013
C18   C     C_R   0.300459 0.729605 0.902939 -0.191979
C19   C     C_R   0.843371 0.185990 0.102857 -0.200941
C20   C     C_R   0.839853 0.810918 0.103395 -0.200717
C21   C     C_R   0.190840 0.374588 0.093096 -0.207886
C22   C     C_R   0.297339 0.269875 0.902721 -0.191902
C23   C     C_R   0.249635 0.684848 0.901014 -0.142463
C24   C     C_R   0.893270 0.230994 0.104898 -0.157121
C25   C     C_R   0.888831 0.766007 0.104959 -0.154267
C26   C     C_R   0.247396 0.314620 0.901248 -0.135275
C27   C     C_R   0.749212 0.185077 0.900617 -0.142655
C28   C     C_R   0.393056 0.731122 0.105217 -0.156412
C29   C     C_R   0.388809 0.265987 0.104920 -0.154577
C30   C     C_R   0.747433 0.814644 0.901282 -0.135545
C31   C     C_R   0.263328 0.667317 0.000583 0.182472
C32   C     C_R   0.191170 0.625065 0.092877 -0.209220
C33   C     C_R   0.864940 0.256680 0.004169 0.187757
C34   C     C_R   0.861271 0.741861 0.003974 0.183878
C35   C     C_R   0.261051 0.331040 0.000876 0.179277
C36   C     C_R   0.763029 0.167516 0.000233 0.182579
C37   C     C_R   0.364879 0.756703 0.004449 0.187777
C38   C     C_R   0.361256 0.241850 0.003932 0.183693
C39   C     C_R   0.761098 0.831081 0.000906 0.179594
C40   C     C_R   0.850809 0.455189 0.439211 0.118387
C41   C     C_R   0.864282 0.548918 0.341794 0.101452
C42   C     C_R   0.870875 0.449852 0.359311 0.050476
C43   C     C_R   0.852734 0.346742 0.908936 -0.252900
C44   C     C_R   0.873957 0.553539 0.443445 0.045315
C45   C     C_R   0.349966 0.955610 0.438773 0.115968
C46   C     C_R   0.364592 0.049229 0.342088 0.101788
C47   C     C_R   0.370168 0.950158 0.358947 0.051401
C48   C     C_R   0.374305 0.053835 0.443762 0.044832
C49   C     C_R   0.888956 0.498192 0.319567 -0.003677
C50   C     C_R   0.877548 0.504733 0.499683 -0.000344
C51   C     C_R   0.388866 0.998426 0.319605 -0.003291
C52   C     C_R   0.377324 0.005028 0.499629 -0.000903
C53   C     C_R   0.948859 0.347761 0.094505 0.665646
C54   C     C_R   0.351455 0.153076 0.908384 -0.253378
C55   C     C_R   0.096162 0.625406 0.905980 0.704851
C56   C     C_R   0.095224 0.374036 0.906143 0.704940
C57   C     C_R   0.947459 0.651327 0.094291 0.680195
C58   C     C_R   0.448809 0.847799 0.094586 0.666059
C59   C     C_R   0.595978 0.125525 0.905862 0.704847
C60   C     C_R   0.595256 0.874081 0.906145 0.705094
C61   C     C_R   0.447471 0.151335 0.094268 0.680008
C62   C     C_R   0.980887 0.545139 0.250847 -0.107823
C63   C     C_R   0.943823 0.456105 0.689506 -0.030487
C64   C     C_R   0.940797 0.546939 0.690658 -0.015911
C65   C     C_R   0.690858 0.874612 0.093117 -0.207588
C66   C     C_R   0.977374 0.453177 0.245668 -0.124809
C67   C     C_R   0.480951 0.045179 0.250891 -0.107484
C68   C     C_R   0.443609 0.956173 0.689342 -0.028875
C69   C     C_R   0.440735 0.047000 0.690696 -0.016258
C70   C     C_R   0.477360 0.953222 0.245764 -0.124957
C71   C     C_R   0.731399 0.454383 0.753202 -0.132232
C72   C     C_R   0.258843 0.544956 0.303723 -0.131560
C73   C     C_R   0.259036 0.454075 0.302635 -0.117716
C74   C     C_R   0.731641 0.545774 0.752534 -0.125199
C75   C     C_R   0.231776 0.954006 0.753191 -0.119422
C76   C     C_R   0.690918 0.125429 0.092711 -0.208779
C77   C     C_R   0.759878 0.045416 0.301789 -0.121473
C78   C     C_R   0.759815 0.954475 0.302645 -0.128591
C79   C     C_R   0.231578 0.045326 0.754073 -0.137969
C80   C     C_R   0.885189 0.684450 0.002726 -0.114134
C81   C     C_R   0.186782 0.360864 0.998923 -0.141232
C82   C     C_R   0.187882 0.638300 0.998663 -0.140288
C83   C     C_R   0.887610 0.314633 0.003288 -0.109405
C84   C     C_R   0.385176 0.184445 0.002688 -0.114332
C85   C     C_R   0.686820 0.860905 0.998942 -0.141693
C86   C     C_R   0.687592 0.138586 0.998452 -0.140181
C87   C     C_R   0.352754 0.846717 0.909024 -0.253764
C88   C     C_R   0.387544 0.814652 0.003427 -0.109279
C89   C     C_R   0.945180 0.498458 0.271914 0.055538
C90   C     C_R   0.921171 0.502821 0.622257 -0.003931
C91   C     C_R   0.445173 0.998547 0.271986 0.055156
C92   C     C_R   0.420998 0.002945 0.622198 -0.004934
C93   C     C_R   0.676018 0.500169 0.728812 0.023458
C94   C     C_R   0.308211 0.499200 0.363677 0.014729
C95   C     C_R   0.176288 0.999375 0.730327 0.023035
C96   C     C_R   0.809922 0.999954 0.361783 0.015035
C97   C     C_3   0.497218 0.464303 0.635067 -0.151189
C98   C     C_3   0.400190 0.498840 0.469589 0.182738
C99   C     C_3   0.478228 0.534735 0.481109 -0.151301
C100  C     C_3   0.465248 0.448470 0.516134 -0.160133
C101  C     C_3   0.509616 0.550805 0.599289 -0.162445
C102  C     C_3   0.008391 0.949664 0.605506 -0.164469
C103  C     C_3   0.969084 0.049423 0.507907 -0.162977
C104  C     C_3   0.978988 0.961158 0.485794 -0.151895
C105  C     C_3   0.998827 0.038189 0.628058 -0.152675
C106  C     C_3   0.429519 0.514863 0.586296 -0.136856
C107  C     C_3   0.543683 0.484478 0.527907 -0.143767
C108  C     C_3   0.929203 0.988611 0.585616 -0.135048
F1    F     F_    0.017654 0.329806 0.199396 -0.747374
F2    F     F_    0.057863 0.637650 0.797623 -0.766520
F3    F     F_    0.055879 0.360974 0.798227 -0.759233
F4    F     F_    0.016132 0.668996 0.198885 -0.749214
F5    F     F_    0.517604 0.829867 0.199497 -0.747187
F6    F     F_    0.557573 0.137726 0.797468 -0.766591
F7    F     F_    0.555967 0.861147 0.798180 -0.759193
F8    F     F_    0.516181 0.169022 0.198832 -0.749088
H1    H     H_    0.811610 0.667247 0.822508 0.137979
H2    H     H_    0.925078 0.414513 0.660336 0.193607
H3    H     H_    0.913344 0.587895 0.664000 0.178783
H4    H     H_    0.962779 0.410747 0.248214 0.185342
H5    H     H_    0.473652 0.087489 0.264909 0.176183
H6    H     H_    0.424689 0.914610 0.659942 0.192408
H7    H     H_    0.413203 0.087949 0.664096 0.178425
H8    H     H_    0.462779 0.910798 0.248526 0.185217
H9    H     H_    0.708481 0.412016 0.737210 0.111801
H10   H     H_    0.272762 0.586764 0.333626 0.113131
H11   H     H_    0.272197 0.411906 0.331654 0.106323
H12   H     H_    0.249287 0.369449 0.179777 0.134760
H13   H     H_    0.709478 0.588251 0.736469 0.105423
H14   H     H_    0.209421 0.911561 0.736631 0.106112
H15   H     H_    0.773329 0.087275 0.331290 0.107456
H16   H     H_    0.773970 0.912462 0.332717 0.111543
H17   H     H_    0.208609 0.087677 0.737995 0.112111
H18   H     H_    0.379462 0.527158 0.606540 0.122015
H19   H     H_    0.591740 0.472094 0.504769 0.126661
H20   H     H_    0.877836 0.979751 0.606022 0.121856
H21   H     H_    0.096441 0.019342 0.503740 0.119300
H22   H     H_    0.507965 0.435801 0.700996 0.120784
H23   H     H_    0.249401 0.630141 0.179547 0.135320
H24   H     H_    0.468922 0.563368 0.416043 0.114678
H25   H     H_    0.446190 0.406498 0.480525 0.112443
H26   H     H_    0.529614 0.592608 0.635657 0.118206
H27   H     H_    0.026749 0.909022 0.648157 0.118279
H28   H     H_    0.951955 0.090256 0.466120 0.112599
H29   H     H_    0.969253 0.929832 0.425430 0.115311
H30   H     H_    0.009914 0.069398 0.689235 0.122260
H31   H     H_    0.781668 0.245742 0.823321 0.124597
H32   H     H_    0.362182 0.670373 0.182771 0.118952
H33   H     H_    0.358250 0.325287 0.183019 0.120728
H34   H     H_    0.813373 0.333191 0.823126 0.140120
H35   H     H_    0.779089 0.754825 0.823497 0.124976
H36   H     H_    0.281978 0.745579 0.823685 0.124386
H37   H     H_    0.862360 0.170230 0.182405 0.119440
H38   H     H_    0.858293 0.825336 0.183047 0.119825
H39   H     H_    0.279084 0.254819 0.823460 0.125211
H40   H     H_    0.194920 0.667762 0.820726 0.188656
H41   H     H_    0.946482 0.248110 0.185660 0.192542
H42   H     H_    0.940812 0.747839 0.185563 0.194820
H43   H     H_    0.193591 0.332818 0.821225 0.191302
H44   H     H_    0.694278 0.168128 0.820289 0.188940
H45   H     H_    0.311464 0.167191 0.822441 0.138312
H46   H     H_    0.445968 0.748386 0.185941 0.192399
H47   H     H_    0.440790 0.247819 0.185524 0.194938
H48   H     H_    0.693627 0.832835 0.821254 0.191280
H49   H     H_    0.797610 0.374986 0.420936 0.189669
H50   H     H_    0.696458 0.390905 0.474657 0.254050
H51   H     H_    0.666190 0.441126 0.367271 0.257378
H52   H     H_    0.739276 0.459983 0.513962 0.257090
H53   H     H_    0.833463 0.632573 0.295801 0.184035
H54   H     H_    0.743586 0.622640 0.101108 0.252091
H55   H     H_    0.691352 0.577058 0.149331 0.255553
H56   H     H_    0.749292 0.869493 0.179823 0.134559
H57   H     H_    0.769699 0.550532 0.115755 0.258410
H58   H     H_    0.806640 0.377710 0.274153 0.168543
H59   H     H_    0.949978 0.324351 0.357846 0.264266
H60   H     H_    0.943136 0.349083 0.468256 0.251383
H61   H     H_    0.018986 0.383238 0.438276 0.266601
H62   H     H_    0.824504 0.631402 0.440234 0.162952
H63   H     H_    0.975890 0.671894 0.576922 0.273344
H64   H     H_    0.982489 0.643540 0.468637 0.229240
H65   H     H_    0.032634 0.606422 0.598964 0.278919
H66   H     H_    0.295494 0.875736 0.419681 0.188518
H67   H     H_    0.748975 0.130981 0.179241 0.135075
H68   H     H_    0.194163 0.892169 0.472944 0.253884
H69   H     H_    0.165069 0.942694 0.366512 0.255323
H70   H     H_    0.238092 0.960963 0.513520 0.257145
H71   H     H_    0.334304 0.132949 0.296479 0.184011
H72   H     H_    0.244264 0.123220 0.101737 0.251985
H73   H     H_    0.191817 0.077708 0.149795 0.255646
H74   H     H_    0.269971 0.051062 0.116031 0.258566
H75   H     H_    0.305156 0.878291 0.273171 0.168706
H76   H     H_    0.447880 0.824350 0.356732 0.263911
H77   H     H_    0.440903 0.849096 0.467039 0.251431
H78   H     H_    0.313469 0.833094 0.823267 0.139841
H79   H     H_    0.517492 0.882946 0.437837 0.266349
H80   H     H_    0.325728 0.131879 0.441178 0.162341
H81   H     H_    0.477523 0.171883 0.577828 0.273240
H82   H     H_    0.483798 0.143358 0.469429 0.228959
H83   H     H_    0.533593 0.106192 0.599646 0.278732
H84   H     H_    0.973468 0.587436 0.264841 0.175956
N1    N     N_R   0.892620 0.603790 0.941800 -0.072589
N2    N     N_R   0.047790 0.602400 0.942090 -0.106803
N3    N     N_R   0.047790 0.397600 0.942090 -0.105560
N4    N     N_R   0.952210 0.602400 0.057910 -0.097712
N5    N     N_R   0.452210 0.897600 0.057910 -0.101045
N6    N     N_R   0.547790 0.102400 0.942090 -0.106766
N7    N     N_R   0.547790 0.897600 0.942090 -0.105623
N8    N     N_R   0.452210 0.102400 0.057910 -0.097732
N9    N     N_R   0.026300 0.529110 0.206760 -0.045415
N10   N     N_R   0.973700 0.470890 0.793240 -0.066352
N11   N     N_R   0.973700 0.529110 0.793240 -0.068188
N12   N     N_R   0.107380 0.396210 0.058200 -0.067655
N13   N     N_R   0.026300 0.470890 0.206760 -0.044807
N14   N     N_R   0.526300 0.029110 0.206760 -0.045631
N15   N     N_R   0.473700 0.970890 0.793240 -0.066285
N16   N     N_R   0.473700 0.029110 0.793240 -0.068052
N17   N     N_R   0.526300 0.970890 0.206760 -0.044763
N18   N     N_R   0.818530 0.472270 0.792960 -0.042292
N19   N     N_R   0.181470 0.527730 0.207040 -0.038103
N20   N     N_R   0.181470 0.472270 0.207040 -0.038499
N21   N     N_R   0.818530 0.527730 0.792960 -0.046255
N22   N     N_R   0.318530 0.972270 0.792960 -0.042923
N23   N     N_R   0.107380 0.603790 0.058200 -0.067793
N24   N     N_R   0.681470 0.027730 0.207040 -0.038176
N25   N     N_R   0.681470 0.972270 0.207040 -0.037808
N26   N     N_R   0.318530 0.027730 0.792960 -0.046381
N27   N     N_2   0.807072 0.411650 0.460398 -0.112589
N28   N     N_2   0.836679 0.594857 0.267245 -0.118192
N29   N     N_2   0.871796 0.397145 0.319120 -0.126441
N30   N     N_2   0.882714 0.606218 0.489364 -0.126342
N31   N     N_2   0.305455 0.912353 0.459500 -0.114024
N32   N     N_2   0.337255 0.095226 0.267737 -0.118061
N33   N     N_2   0.370548 0.897459 0.318362 -0.126268
N34   N     N_R   0.892620 0.396210 0.941800 -0.072116
N35   N     N_2   0.383681 0.106490 0.490070 -0.126323
N36   N     N_R   0.392620 0.103790 0.941800 -0.072246
N37   N     N_R   0.607380 0.896210 0.058200 -0.067397
N38   N     N_R   0.607380 0.103790 0.058200 -0.068034
N39   N     N_R   0.392620 0.896210 0.941800 -0.072320
N40   N     N_R   0.952210 0.397600 0.057910 -0.101204
Ni1   Ni    Ni4+2 0.934150 0.565840 0.869060 0.211343
Ni2   Ni    Ni4+2 0.065850 0.434160 0.130940 0.261200
Ni3   Ni    Ni4+2 0.065850 0.565840 0.130940 0.260530
Ni4   Ni    Ni4+2 0.934150 0.434160 0.869060 0.218423
Ni5   Ni    Ni4+2 0.434150 0.065840 0.869060 0.210711
Ni6   Ni    Ni4+2 0.565850 0.934160 0.130940 0.261465
Ni7   Ni    Ni4+2 0.565850 0.065840 0.130940 0.261029
Ni8   Ni    Ni4+2 0.434150 0.934160 0.869060 0.218605

loop_
_geom_bond_atom_site_label_1
_geom_bond_atom_site_label_2
_ccdc_geom_bond_type
C3    C104  S    
C87   C88   A    
C43   C83   A    
C29   H47   S    
C37   C88   S    
C70   C91   A    
C74   C93   A    
C54   N36   A    
C9    H72   S    
C1    N1    A    
N7    Ni8   S    
N9    Ni3   S    
C14   C33   A    
C54   C84   A    
C35   C81   S    
C28   H46   S    
C56   C81   A    
C56   N3    A    
N21   Ni1   S    
C74   N21   A    
C71   N18   A    
C20   H38   S    
N11   Ni1   S    
C13   C95   S    
C9    N32   S    
N13   Ni2   S    
C18   C37   A    
C12   C104  S    
C19   C36   A    
C16   C35   A    
C15   H32   S    
C8    N31   S    
C9    H73   S    
C57   F4    S    
C20   C25   A    
C94   C98   S    
C3    C103  S    
C22   C38   A    
C62   C89   A    
C2    C107  S    
H49   N27   S    
N1    Ni1   S    
C6    N29   S    
C15   C31   A    
C76   N38   A    
C77   H15   S    
C4    N27   S    
N5    N39   A    
C68   N15   A    
C44   N30   S    
C107  H19   S    
C77   N24   A    
C51   C91   S    
N22   Ni8   S    
C50   C90   S    
N36   Ni5   S    
C30   H48   S    
C75   N22   A    
C78   C96   A    
C100  C107  S    
C59   C86   A    
C29   C38   A    
C30   C39   A    
C58   F5    S    
N12   Ni2   S    
C5    H54   S    
C64   N11   A    
C102  C108  S    
C16   H33   S    
C3    H21   S    
N18   Ni4   S    
C14   C27   A    
C69   C92   A    
N8    N36   A    
C79   N26   A    
C21   N12   A    
C3    C13   S    
C75   H14   S    
C25   C34   A    
C72   C94   A    
C8    H68   S    
C78   N25   A    
C40   C42   A    
C41   N28   S    
N15   Ni8   S    
C66   H4    S    
C23   H40   S    
N24   N25   A    
C17   C30   A    
C57   C80   A    
C65   N37   A    
C17   H35   S    
C69   N16   A    
C46   N32   S    
C73   C94   A    
C18   H36   S    
C67   H5    S    
C53   N40   A    
C41   C49   A    
C32   N23   A    
C11   H83   S    
C45   C52   A    
C66   C89   A    
C31   C82   S    
C22   H39   S    
C45   C47   A    
C11   N35   S    
C79   H17   S    
C105  C108  S    
C46   C48   A    
C70   N17   A    
C87   N39   A    
C67   C91   A    
C7    H65   S    
C65   H56   S    
C75   C95   A    
C18   C23   A    
C64   C90   A    
N6    Ni5   S    
N17   Ni6   S    
C2    C97   S    
C32   H23   S    
N6    N38   A    
N5    Ni6   S    
C10   H77   S    
C68   H6    S    
N19   N20   A    
C12   C108  S    
C20   C39   A    
C24   H41   S    
C78   H16   S    
N3    Ni4   S    
C42   C49   A    
C58   N5    A    
C36   C86   S    
N16   Ni5   S    
C73   H11   S    
N2    Ni1   S    
N20   Ni2   S    
C46   C51   A    
N14   N17   A    
N22   N26   A    
N9    N13   A    
C4    H52   S    
C73   N20   A    
C72   H10   S    
N39   Ni8   S    
C55   C82   A    
C23   C31   A    
N38   Ni7   S    
N15   N16   A    
C11   H81   S    
C79   C95   A    
C101  H26   S    
H66   N31   S    
N24   Ni7   S    
N26   Ni5   S    
C43   N34   A    
C48   C52   A    
C104  H29   S    
C61   F8    S    
N40   Ni2   S    
C5    H55   S    
H53   N28   S    
C7    H63   S    
C26   H43   S    
C103  C105  S    
C1    H1    S    
C21   H12   S    
C102  C104  S    
C33   C83   S    
C108  H20   S    
N14   Ni7   S    
C43   H34   S    
C12   C103  S    
C97   C106  S    
C59   N6    A    
C13   C105  S    
C99   C101  S    
C21   C81   A    
N10   N11   A    
C98   C100  S    
C55   F2    S    
C22   C26   A    
C19   H37   S    
C41   C44   A    
N3    N12   A    
C52   C92   S    
C102  H27   S    
C39   C85   S    
C63   N10   A    
C64   H3    S    
C9    H74   S    
C76   H67   S    
C76   C86   A    
C97   H22   S    
C101  C106  S    
N4    Ni3   S    
C32   C82   A    
N18   N21   A    
C44   C50   A    
N25   Ni6   S    
C63   H2    S    
C72   N19   A    
C10   N33   S    
C97   C100  S    
C56   F3    S    
N1    N4    A    
C38   C84   S    
C5    H57   S    
N2    N23   A    
C2    C93   S    
C12   C96   S    
C87   H78   S    
C49   C89   S    
C67   N14   A    
C61   C84   A    
C98   C106  S    
C47   C51   A    
C60   C85   A    
C4    H51   S    
C60   N7    A    
H62   N30   S    
C71   C93   A    
H80   N35   S    
C8    H69   S    
H75   N33   S    
C99   C107  S    
N34   N40   A    
C77   C96   A    
N23   Ni3   S    
C24   C33   A    
C2    C101  S    
C5    N28   S    
C53   C83   A    
C27   C36   A    
C34   C80   S    
C66   N13   A    
C57   N4    A    
C100  H25   S    
C27   H44   S    
C11   H82   S    
C62   H84   S    
C6    H61   S    
C65   C85   A    
C10   H79   S    
C55   N2    A    
N37   Ni6   S    
C17   C34   A    
C8    H70   S    
C6    H60   S    
C28   C37   A    
C40   N27   S    
C59   F6    S    
C40   C50   A    
C105  H30   S    
C14   H31   S    
C63   C90   A    
C68   C92   A    
C62   N9    A    
C4    H50   S    
C7    H64   S    
C19   C24   A    
C54   H45   S    
C99   H24   S    
H58   N29   S    
C10   H76   S    
N8    Ni7   S    
C48   N35   S    
N7    N37   A    
C61   N8    A    
N10   Ni4   S    
C15   C28   A    
C42   N29   S    
C70   H8    S    
C26   C35   A    
C106  H18   S    
C16   C29   A    
C98   C99   S    
C6    H59   S    
C74   H13   S    
C25   H42   S    
C1    C80   A    
C69   H7    S    
C71   H9    S    
C60   F7    S    
C53   F1    S    
C45   N31   S    
N19   Ni3   S    
C13   C102  S    
C58   C88   A    
C7    N30   S    
N34   Ni4   S    
C47   N33   S    
C103  H28   S    
H71   N32   S    
