data_mof_unit_19354.cif
_audit_creation_date              2012-12-11T15:48:34-0500
_audit_creation_method            fapswitch 2.2
_symmetry_space_group_name_H-M    P1
_symmetry_Int_Tables_number       1
_space_group_crystal_system       triclinic
_cell_length_a                    11.269761
_cell_length_b                    11.298092
_cell_length_c                    18.722971
_cell_angle_alpha                 90.254506
_cell_angle_beta                  89.463246
_cell_angle_gamma                 60.65236
_cell_volume                      2077.78372312

loop_
_atom_site_label
_atom_site_type_symbol
_atom_type_description
_atom_site_fract_x
_atom_site_fract_y
_atom_site_fract_z
_atom_type_partial_charge
C1    C     C_R   0.229003 0.648884 0.606372 0.557943
C2    C     C_3   0.798430 0.541361 0.786911 -0.279884
C3    C     C_3   0.711133 0.686807 0.809913 -0.025108
C4    C     C_3   0.669203 0.656358 0.675322 0.083643
C5    C     C_3   0.734465 0.748887 0.678700 0.151448
C6    C     C_3   0.775831 0.522133 0.710276 -0.333283
C7    C     C_R   0.694063 0.130056 0.817741 -0.020011
C8    C     C_R   0.805987 0.114238 0.777698 0.124123
C9    C     C_R   0.805634 0.113425 0.702388 -0.052376
C10   C     C_R   0.590039 0.123101 0.705652 -0.128726
C11   C     C_R   0.585580 0.132600 0.779419 -0.196585
C12   C     C_R   0.652710 0.622495 0.600288 0.543537
C13   C     C_3   0.863189 0.207574 0.778567 0.170296
C14   C     C_3   0.892131 0.179006 0.698670 -0.256662
C15   C     C_R   0.684346 0.141913 0.666362 0.003825
C16   C     C_R   0.165809 0.681976 0.828862 0.015403
C17   C     C_R   0.206068 0.558221 0.792731 -0.071915
C18   C     C_R   0.192471 0.558091 0.717972 0.017994
C19   C     C_R   0.122362 0.792386 0.711983 -0.104220
C20   C     C_R   0.137476 0.795723 0.785602 0.281766
C21   C     C_3   0.156086 0.459638 0.803393 -0.273183
C22   C     C_3   0.109705 0.490135 0.726437 0.128523
C23   C     C_R   0.630726 0.223969 0.600655 0.502359
C24   C     C_R   0.160411 0.671244 0.676419 -0.044820
C25   C     C_R   0.664938 0.670914 0.170171 -0.045458
C26   C     C_R   0.751538 0.546883 0.203342 0.073097
C27   C     C_R   0.749167 0.538566 0.277228 0.048975
C28   C     C_R   0.583290 0.774992 0.287739 -0.131031
C29   C     C_R   0.586024 0.784885 0.213587 -0.179442
C30   C     C_3   0.905209 0.480773 0.202877 0.198124
C31   C     C_3   0.899265 0.472796 0.283212 0.185646
C32   C     C_R   0.661605 0.649489 0.319593 -0.037194
C33   C     C_R   0.639394 0.166056 0.172719 -0.003585
C34   C     C_R   0.227542 0.646570 0.400465 0.529082
C35   C     C_R   0.561369 0.127723 0.215312 0.014479
C36   C     C_R   0.561325 0.142246 0.288578 -0.044829
C37   C     C_R   0.714179 0.232905 0.277791 -0.127649
C38   C     C_R   0.715220 0.219390 0.204166 0.226403
C39   C     C_3   0.408721 0.191981 0.214187 0.149060
C40   C     C_3   0.410967 0.208048 0.293428 -0.202966
C41   C     C_R   0.639869 0.191070 0.320742 -0.066167
C42   C     C_R   0.175725 0.657631 0.176380 0.006854
C43   C     C_R   0.231022 0.728553 0.212216 -0.058412
C44   C     C_R   0.216040 0.742277 0.284415 0.083491
C45   C     C_R   0.643157 0.621335 0.393136 0.541693
C46   C     C_R   0.169082 0.559869 0.291303 -0.192753
C47   C     C_R   0.165840 0.557271 0.216121 -0.186855
C48   C     C_3   0.230867 0.861473 0.209432 -0.167412
C49   C     C_3   0.197540 0.882464 0.290170 0.540376
C50   C     C_R   0.187939 0.658767 0.326591 -0.012092
C51   C     C_R   0.704932 0.094117 0.894145 0.554272
C52   C     C_R   0.745204 0.703452 0.883735 0.543365
C53   C     C_R   0.112300 0.710351 0.903673 0.536214
C54   C     C_R   0.673593 0.107225 0.102426 0.573223
C55   C     C_R   0.698940 0.691451 0.097835 0.540214
C56   C     C_R   0.613042 0.236448 0.393906 0.536588
C57   C     C_R   0.097434 0.708028 0.110550 0.543349
C58   C     C_3   0.560956 0.717179 0.803201 0.216909
C59   C     C_3   0.528224 0.725211 0.721246 0.557119
C60   C     C_3   0.739771 0.781278 0.759504 -0.230956
Cr1   Cr    Cr6+3 0.392960 0.397920 0.502240 0.996706
Cr2   Cr    Cr6+3 0.398340 0.708480 0.501250 0.977818
Cr3   Cr    Cr6+3 0.708670 0.393570 0.496460 1.011305
Cr4   Cr    Cr6+3 0.937650 0.938540 0.007610 1.025947
Cr5   Cr    Cr6+3 0.625330 0.937370 0.994520 0.952502
Cr6   Cr    Cr6+3 0.937940 0.625230 0.001190 0.945027
H1    H     H_    0.493711 0.818442 0.827725 0.116827
H2    H     H_    0.874973 0.475873 0.681075 0.183874
H3    H     H_    0.839482 0.774444 0.771356 0.077965
H4    H     H_    0.840631 0.691547 0.657566 0.094053
H5    H     H_    0.513647 0.109993 0.678831 0.181640
H6    H     H_    0.778308 0.306240 0.794667 0.083710
H7    H     H_    0.000303 0.104991 0.686915 0.143841
H8    H     H_    0.091670 0.883077 0.681472 0.115736
H9    H     H_    0.074298 0.491275 0.843293 0.152116
H10   H     H_    0.242647 0.357056 0.813786 0.116980
H11   H     H_    0.004079 0.570073 0.722666 0.113516
H12   H     H_    0.525836 0.865345 0.320068 0.184753
H13   H     H_    0.536183 0.882838 0.190252 0.208170
H14   H     H_    0.940029 0.552208 0.185796 0.092591
H15   H     H_    0.931383 0.537125 0.313604 0.054968
H16   H     H_    0.770690 0.277324 0.300934 0.222611
H17   H     H_    0.357930 0.290514 0.185863 0.104631
H18   H     H_    0.155819 0.487108 0.322221 0.112059
H19   H     H_    0.149660 0.481958 0.189479 0.119845
H20   H     H_    0.333973 0.844116 0.196014 0.142266
H21   H     H_    0.743041 0.448078 0.707921 0.105952
O1    O     O_R   0.507380 0.255700 0.581440 -0.551181
O2    O     O_R   0.524480 0.695810 0.424040 -0.501775
O3    O     O_R   0.736390 0.504290 0.414790 -0.485804
O4    O     O_R   0.691300 0.277290 0.422170 -0.508366
O5    O     O_3   0.499990 0.499990 0.499980 -0.271274
O6    O     O_R   0.089400 0.825690 0.930570 -0.479629
O7    O     O_R   0.818460 0.054440 0.929850 -0.452257
O8    O     O_R   0.606060 0.077150 0.915510 -0.548412
O9    O     O_R   0.646550 0.806680 0.917570 -0.535673
O10   O     O_R   0.837170 0.593410 0.915250 -0.555232
O11   O     O_R   0.065200 0.635530 0.931570 -0.533205
O12   O     O_R   0.280320 0.527350 0.578930 -0.488552
O13   O     O_R   0.068260 0.828890 0.091840 -0.554826
O14   O     O_R   0.798870 0.057410 0.079340 -0.493936
O15   O     O_R   0.584930 0.080350 0.076780 -0.547883
O16   O     O_R   0.626960 0.809650 0.067060 -0.527997
O17   O     O_R   0.816040 0.596610 0.076510 -0.551412
O18   O     O_R   0.045610 0.638500 0.081060 -0.528863
O19   O     O_3   0.833640 0.833710 0.001100 -0.271200
O20   O     O_R   0.260510 0.739590 0.584590 -0.544194
O21   O     O_R   0.532300 0.695080 0.573820 -0.487250
O22   O     O_R   0.744840 0.503500 0.576370 -0.554016
O23   O     O_R   0.699120 0.276560 0.571960 -0.523618
O24   O     O_R   0.498940 0.256500 0.419860 -0.529898
O25   O     O_R   0.272500 0.528080 0.429150 -0.509858
O26   O     O_R   0.252060 0.740380 0.423010 -0.526808
H22   H     H_    0.500388 0.131187 0.805828 0.144643
O27   O     O_3   0.976736 0.160276 0.823027 -0.499042
C61   C     C_3   0.036011 0.244199 0.819954 -0.144862
H23   H     H_    0.145443 0.184321 0.832425 0.105389
H24   H     H_    0.990491 0.322914 0.862433 0.127867
H25   H     H_    0.031033 0.286407 0.766043 0.161416
H26   H     H_    0.854919 0.263976 0.661630 0.141735
O28   O     O_3   0.536383 0.617759 0.836838 -0.612854
C62   C     C_3   0.525913 0.627130 0.912214 -0.125410
H27   H     H_    0.626891 0.562813 0.936248 0.169211
H28   H     H_    0.459825 0.585232 0.929879 0.131439
H29   H     H_    0.478695 0.732502 0.933569 0.115916
O29   O     O_3   0.106931 0.918222 0.815123 -0.494752
C63   C     C_3   0.225627 0.913259 0.841780 -0.036974
H30   H     H_    0.198351 0.980991 0.889271 0.140324
H31   H     H_    0.269784 0.950716 0.800881 0.137155
H32   H     H_    0.300531 0.811915 0.860405 0.131104
O30   O     O_3   0.134111 0.383818 0.677951 -0.592180
C64   C     C_3   0.269216 0.280020 0.677178 -0.093434
H33   H     H_    0.287411 0.211666 0.723000 0.094785
H34   H     H_    0.340819 0.320376 0.678126 0.165104
H35   H     H_    0.288281 0.220841 0.626879 0.143608
O31   O     O_3   0.976024 0.349017 0.172064 -0.547849
C65   C     C_3   0.000853 0.347571 0.098127 -0.056252
H36   H     H_    0.046621 0.411755 0.083739 0.144672
H37   H     H_    0.908747 0.367781 0.067876 0.189992
H38   H     H_    0.074001 0.244405 0.080244 0.044428
O32   O     O_3   0.951407 0.339917 0.309099 -0.526976
C66   C     C_3   0.093753 0.278432 0.313179 -0.081934
H39   H     H_    0.123190 0.292294 0.367697 0.091009
H40   H     H_    0.140264 0.314731 0.272461 0.139410
H41   H     H_    0.136476 0.169912 0.300594 0.218280
O33   O     O_3   0.438592 0.670338 0.707905 -0.546346
C67   C     C_3   0.501154 0.526415 0.702281 -0.061715
H42   H     H_    0.556302 0.487117 0.651445 0.137138
H43   H     H_    0.425358 0.494234 0.699539 0.125438
H44   H     H_    0.559973 0.470698 0.749088 0.142766
O34   O     O_3   0.801692 0.244677 0.163297 -0.541599
C68   C     C_3   0.932606 0.131343 0.169214 -0.003833
H45   H     H_    0.934049 0.034521 0.183304 0.142428
H46   H     H_    0.990059 0.151134 0.210172 0.240301
H47   H     H_    0.985893 0.113402 0.117002 0.127631
O35   O     O_3   0.359412 0.101189 0.199788 -0.589062
C69   C     C_3   0.326620 0.102211 0.127415 -0.105363
H48   H     H_    0.290931 0.201705 0.100923 0.101395
H49   H     H_    0.246858 0.072542 0.124582 0.107406
H50   H     H_    0.413254 0.022010 0.097317 0.176692
H51   H     H_    0.364963 0.315030 0.310697 0.132614
H52   H     H_    0.379861 0.145453 0.324903 0.151783
H53   H     H_    0.157284 0.933117 0.172781 0.098388
O36   O     O_3   0.460593 0.869132 0.708880 -0.595407
C70   C     C_3   0.350816 0.923670 0.661361 -0.036035
H54   H     H_    0.284223 0.880216 0.667315 0.188822
H55   H     H_    0.385300 0.922471 0.605716 0.161125
H56   H     H_    0.284024 0.031115 0.675839 0.068535
O37   O     O_3   0.301740 0.891157 0.328422 -0.546106
C71   C     C_3   0.259075 0.973437 0.391506 -0.037495
H57   H     H_    0.316871 0.913823 0.437871 0.160456
H58   H     H_    0.150042 0.021571 0.406359 0.141075
H59   H     H_    0.287329 0.053390 0.387370 0.049620
O38   O     O_3   0.062943 0.992451 0.301495 -0.623828
C72   C     C_3   0.978737 0.960795 0.344370 -0.160248
H60   H     H_    0.894956 0.056292 0.365807 0.158018
H61   H     H_    0.028797 0.903633 0.392651 0.129781
H62   H     H_    0.935693 0.908342 0.312166 0.114636
H63   H     H_    0.660692 0.885911 0.771601 0.185089
O39   O     O_3   0.657681 0.869575 0.639358 -0.548249
C73   C     C_3   0.725657 0.869346 0.575482 -0.132124
H64   H     H_    0.819638 0.874274 0.587465 0.111623
H65   H     H_    0.657422 0.960654 0.544425 0.147995
H66   H     H_    0.750735 0.778900 0.541539 0.113845
H67   H     H_    0.903679 0.509957 0.794492 0.119550
H68   H     H_    0.776663 0.478069 0.822982 0.188188

loop_
_geom_bond_atom_site_label_1
_geom_bond_atom_site_label_2
_ccdc_geom_bond_type
C44   C49   S    
C57   O18   A    
C31   O32   S    
C69   H48   S    
C22   O30   S    
C34   O25   A    
O37   C71   S    
Cr5   O19   S    
C54   O14   A    
C35   C36   A    
C9    C14   S    
C1    O12   A    
C63   H31   S    
C7    C8    A    
C72   H61   S    
C48   H53   S    
C2    C6    S    
C73   H64   S    
C60   H63   S    
C7    C11   A    
C65   H37   S    
C21   H10   S    
C28   C29   A    
C26   C27   A    
O29   C63   S    
C18   C24   A    
C47   H19   S    
Cr6   O10   S    
O36   C70   S    
C67   H43   S    
Cr4   O6    S    
C10   C15   A    
C30   C31   S    
Cr2   O21   S    
C71   H57   S    
O27   C61   S    
Cr2   O2    S    
C55   O16   A    
C52   O10   A    
C61   H23   S    
C4    C59   S    
C32   C45   S    
C11   H22   S    
O38   C72   S    
C49   O38   S    
C59   O36   S    
C16   C53   S    
Cr5   O9    S    
C67   H42   S    
C64   H33   S    
Cr2   O5    S    
Cr3   O5    S    
O34   C68   S    
C4    C12   S    
C28   H12   S    
C43   C48   S    
C56   O24   A    
Cr1   O5    S    
C3    C58   S    
C30   H14   S    
C3    C60   S    
C15   C23   S    
C69   H49   S    
C21   C22   S    
C5    O39   S    
Cr4   O7    S    
C66   H41   S    
C36   C41   A    
Cr1   O12   S    
Cr5   O15   S    
Cr6   O19   S    
C42   C57   S    
C12   O22   A    
C72   H62   S    
C56   O4    A    
C25   C29   A    
Cr4   O14   S    
C65   H38   S    
C34   C50   S    
Cr5   O8    S    
C27   C31   S    
C14   H7    S    
Cr6   O17   S    
C28   C32   A    
C67   H44   S    
Cr2   O26   S    
C4    C6    S    
C73   H65   S    
C39   C40   S    
C12   O21   A    
C8    C9    A    
C70   H55   S    
Cr2   O20   S    
C58   C59   S    
C57   O13   A    
C53   O6    A    
C55   O17   A    
C17   C21   S    
C6    H21   S    
C34   O26   A    
Cr3   O22   S    
C35   C39   S    
C43   C44   A    
C2    H68   S    
C41   C56   S    
C40   H52   S    
C37   C38   A    
Cr1   O1    S    
C58   H1    S    
C72   H60   S    
C29   H13   S    
C68   H47   S    
C36   C40   S    
C16   C20   A    
C17   C18   A    
C45   O3    A    
O28   C62   S    
C13   O27   S    
C1    O20   A    
C46   H18   S    
C48   C49   S    
C68   H46   S    
C26   C30   S    
C69   H50   S    
C30   O31   S    
C23   O1    A    
C66   H40   S    
C37   H16   S    
C42   C43   A    
Cr5   O16   S    
Cr6   O18   S    
C62   H28   S    
O30   C64   S    
Cr1   O24   S    
C38   O34   S    
C45   O2    A    
O39   C73   S    
O33   C67   S    
C73   H66   S    
C44   C50   A    
C33   C54   S    
C23   O23   A    
C46   C50   A    
C46   C47   A    
O35   C69   S    
C58   O28   S    
C5    C60   S    
C27   C32   A    
C18   C22   S    
C19   C24   A    
C54   O15   A    
C19   H8    S    
C25   C55   S    
C22   H11   S    
O31   C65   S    
C5    H4    S    
C19   C20   A    
C3    C52   S    
Cr4   O19   S    
C13   H6    S    
C53   O11   A    
C70   H56   S    
C65   H36   S    
C21   H9    S    
C14   H26   S    
C33   C38   A    
C31   H15   S    
C61   H25   S    
C39   O35   S    
Cr6   O11   S    
C62   H29   S    
C2    C3    S    
C25   C26   A    
C63   H32   S    
C7    C51   S    
C40   H51   S    
O32   C66   S    
C10   H5    S    
C49   O37   S    
C16   C17   A    
C71   H58   S    
C60   H3    S    
Cr3   O23   S    
C64   H35   S    
C4    C5    S    
Cr3   O3    S    
C6    H2    S    
C33   C35   A    
C61   H24   S    
C20   O29   S    
C52   O9    A    
C48   H20   S    
C42   C47   A    
C8    C13   S    
C37   C41   A    
C2    H67   S    
C10   C11   A    
C51   O7    A    
C39   H17   S    
C59   O33   S    
C70   H54   S    
Cr4   O13   S    
C68   H45   S    
C1    C24   S    
C64   H34   S    
Cr3   O4    S    
C66   H39   S    
C62   H27   S    
C13   C14   S    
Cr1   O25   S    
C63   H30   S    
C9    C15   A    
C51   O8    A    
C71   H59   S    
