data_mof_unit_39923.cif
_audit_creation_date              2012-12-10T18:57:12-0500
_audit_creation_method            fapswitch 2.2
_symmetry_space_group_name_H-M    P1
_symmetry_Int_Tables_number       1
_space_group_crystal_system       triclinic
_cell_length_a                    10.698362
_cell_length_b                    9.850856
_cell_length_c                    10.657325
_cell_angle_alpha                 89.023056
_cell_angle_beta                  91.036166
_cell_angle_gamma                 89.354804
_cell_volume                      1122.73233406

loop_
_atom_site_label
_atom_site_type_symbol
_atom_type_description
_atom_site_fract_x
_atom_site_fract_y
_atom_site_fract_z
_atom_type_partial_charge
C1    C     C_R   0.259974 0.500854 0.496326 0.873670
C2    C     C_R   0.739589 0.499257 0.497589 0.849951
C3    C     C_R   0.577885 0.069397 0.579046 -0.076734
C4    C     C_R   0.423967 0.074400 0.419173 -0.058636
C5    C     C_R   0.577096 0.925605 0.579894 -0.058397
C6    C     C_R   0.424910 0.930688 0.418509 -0.066093
C7    C     C_R   0.508749 0.501214 0.260597 0.894683
C8    C     C_R   0.506535 0.498911 0.740182 0.906124
C9    C     C_R   0.481839 0.614097 0.061161 0.093833
C10   C     C_R   0.479423 0.611247 0.934219 0.091245
C11   C     C_R   0.534319 0.506876 0.130146 -0.158357
C12   C     C_R   0.527310 0.500025 0.872644 -0.173938
C13   C     C_R   0.613367 0.411861 0.071042 0.160276
C14   C     C_R   0.606182 0.404848 0.938397 0.164583
C15   C     C_3   0.352501 0.675727 0.924152 -0.463773
C16   C     C_3   0.354954 0.678185 0.066227 -0.446108
C17   C     C_R   0.066168 0.405246 0.562965 -0.198210
C18   C     C_R   0.938238 0.403578 0.562704 -0.202971
C19   C     C_R   0.871438 0.498056 0.488762 -0.069331
C20   C     C_R   0.127059 0.502201 0.490221 -0.080013
C21   C     C_R   0.930767 0.591702 0.409501 -0.052527
C22   C     C_R   0.060454 0.595815 0.412103 -0.042095
H1    H     H_    0.354954 0.778600 0.879772 0.213484
H2    H     H_    0.285152 0.609696 0.109270 0.202010
H3    H     H_    0.280775 0.606766 0.884615 0.195704
H4    H     H_    0.358577 0.782615 0.103888 0.217163
H5    H     H_    0.117760 0.333058 0.622493 0.158323
H6    H     H_    0.891350 0.330707 0.622343 0.148578
H7    H     H_    0.641573 0.121638 0.640777 0.125214
H8    H     H_    0.363179 0.130709 0.354362 0.136192
H9    H     H_    0.638872 0.869240 0.643716 0.132088
H10   H     H_    0.366553 0.878467 0.352174 0.149001
N1    N     N_R   0.500000 0.857200 0.500000 -0.083382
N2    N     N_R   0.500000 0.142810 0.500000 -0.081142
O1    O     O_R   0.316770 0.614620 0.499990 -0.611640
O2    O     O_R   0.683230 0.614620 0.500010 -0.614328
O3    O     O_R   0.316800 0.385290 0.500000 -0.620290
O4    O     O_R   0.683200 0.385290 0.500000 -0.632325
O5    O     O_R   0.500000 0.614690 0.316780 -0.609909
O6    O     O_R   0.500000 0.614690 0.683220 -0.617904
O7    O     O_R   0.500020 0.385360 0.316780 -0.618315
O8    O     O_R   0.499980 0.385360 0.683220 -0.616329
Zn1   Zn    Zn3+2 0.500000 0.653120 0.500000 0.963612
Zn2   Zn    Zn3+2 0.500000 0.346880 0.500000 0.941670
C23   C     C_3   0.703075 0.320985 0.146484 -0.846657
H11   H     H_    0.799046 0.331754 0.110019 0.228698
H12   H     H_    0.710922 0.348959 0.246380 0.247733
H13   H     H_    0.673430 0.213594 0.140659 0.249012
C24   C     C_3   0.676150 0.296332 0.868073 -0.875727
H14   H     H_    0.747474 0.240222 0.925276 0.238264
H15   H     H_    0.608414 0.220431 0.834028 0.246738
H16   H     H_    0.725546 0.342852 0.787667 0.226962
C25   C     C_1   0.859269 0.679623 0.322916 0.188942
N3    N     N_1   0.802332 0.749353 0.253980 -0.191636
C26   C     C_1   0.122206 0.694641 0.333317 0.169267
N4    N     N_1   0.168250 0.775258 0.269730 -0.246254

loop_
_geom_bond_atom_site_label_1
_geom_bond_atom_site_label_2
_ccdc_geom_bond_type
C5    H9    S    
C6    H10   S    
C26   N4    T    
O4    Zn2   S    
C22   C26   S    
C21   C25   S    
O1    Zn1   S    
C9    C10   A    
C2    O4    A    
C6    N1    A    
C1    O3    A    
C8    C12   S    
C24   H16   S    
O3    Zn2   S    
C15   H1    S    
C17   C18   A    
C12   C14   A    
C18   H6    S    
C16   H2    S    
C13   C14   A    
C7    C11   S    
C11   C13   A    
C1    O1    A    
O8    Zn2   S    
C10   C12   A    
C7    O7    A    
C19   C21   A    
C9    C16   S    
C8    O8    A    
C18   C19   A    
C10   C15   S    
C9    C11   A    
C16   H4    S    
O7    Zn2   S    
C4    N2    A    
C15   H3    S    
C14   C24   S    
C15   C16   S    
C17   H5    S    
C23   H11   S    
C17   C20   A    
N2    Zn2   S    
C13   C23   S    
C4    C6    A    
C24   H14   S    
C23   H12   S    
C2    O2    A    
C8    O6    A    
C3    H7    S    
C7    O5    A    
C1    C20   S    
O5    Zn1   S    
C23   H13   S    
C3    N2    A    
C3    C5    A    
C2    C19   S    
C21   C22   A    
N1    Zn1   S    
O6    Zn1   S    
C4    H8    S    
C24   H15   S    
C25   N3    T    
C20   C22   A    
O2    Zn1   S    
C5    N1    A    
