data_mof_unit_28731.cif
_audit_creation_date              2012-10-26T19:56:46-0400
_audit_creation_method            fapswitch 2.2
_symmetry_space_group_name_H-M    P1
_symmetry_Int_Tables_number       1
_space_group_crystal_system       triclinic
_cell_length_a                    15.748641
_cell_length_b                    15.127087
_cell_length_c                    9.881235
_cell_angle_alpha                 87.256705
_cell_angle_beta                  59.690249
_cell_angle_gamma                 88.668833
_cell_volume                      2029.91561809

loop_
_atom_site_label
_atom_site_type_symbol
_atom_type_description
_atom_site_fract_x
_atom_site_fract_y
_atom_site_fract_z
_atom_type_partial_charge
C1    C     C_R   0.369053 0.116765 0.560866 0.605889
C2    C     C_2   0.489887 0.003421 0.082761 0.037659
C3    C     C_2   0.010165 0.509608 0.915713 0.074576
C4    C     C_2   0.989919 0.508374 0.082637 0.088096
C5    C     C_2   0.293507 0.815090 0.607498 0.027911
C6    C     C_2   0.712192 0.178944 0.390073 0.016157
C7    C     C_2   0.690654 0.802247 0.420437 0.015877
C8    C     C_2   0.290914 0.181423 0.589451 0.003901
C9    C     C_2   0.794491 0.314333 0.607184 0.024285
C10   C     C_2   0.209380 0.682105 0.390659 0.018572
C11   C     C_2   0.190788 0.302438 0.420117 -0.018169
C12   C     C_R   0.624663 0.877613 0.442674 0.524819
C13   C     C_2   0.792727 0.682473 0.588020 0.001478
C14   C     C_2   0.297610 0.765345 0.494902 0.001038
C15   C     C_2   0.709134 0.231720 0.498663 0.006521
C16   C     C_2   0.661523 0.736548 0.534656 0.138860
C17   C     C_2   0.229959 0.167726 0.532554 0.097673
C18   C     C_2   0.799921 0.263695 0.494600 0.009272
C19   C     C_2   0.206258 0.733080 0.501219 -0.001167
C20   C     C_2   0.161947 0.236610 0.534013 0.061478
C21   C     C_2   0.729356 0.668106 0.535508 0.127760
C22   C     C_2   0.659242 0.999281 0.010571 0.391507
C23   C     C_R   0.629861 0.117951 0.434885 0.587473
C24   C     C_2   0.345032 0.975998 0.992187 0.449525
C25   C     C_2   0.157462 0.483489 0.011836 0.398301
C26   C     C_2   0.844972 0.474101 0.989551 0.430878
C27   C     C_2   0.793361 0.184324 0.223995 0.279055
C28   C     C_2   0.217466 0.798941 0.775284 0.280487
C29   C     C_2   0.283291 0.262520 0.674303 0.266440
C30   C     C_2   0.788641 0.804556 0.273940 0.247998
C31   C     C_2   0.287137 0.693856 0.222841 0.271613
C32   C     C_2   0.718029 0.298500 0.774946 0.273353
C33   C     C_2   0.793809 0.764526 0.664220 0.257899
C34   C     C_R   0.371505 0.880704 0.564600 0.591884
C35   C     C_2   0.288403 0.304777 0.272814 0.256317
C36   C     C_R   0.869253 0.616784 0.560642 0.529373
C37   C     C_R   0.124683 0.377666 0.442656 0.524390
C38   C     C_R   0.129195 0.618639 0.435057 0.587918
C39   C     C_R   0.871764 0.380542 0.564510 0.602908
C40   C     C_2   0.510333 0.007373 0.915596 0.026978
Cu1   Cu    Cu3+1 0.522650 0.000000 0.349410 1.043427
Cu2   Cu    Cu3+1 0.477350 0.000000 0.650590 1.127820
Cu3   Cu    Cu3+1 0.022650 0.500000 0.349410 1.053908
Cu4   Cu    Cu3+1 0.977350 0.500000 0.650590 1.031072
H1    H     H_    0.414670 0.006362 0.177324 0.146894
H2    H     H_    0.178385 0.736253 0.813929 0.124837
H3    H     H_    0.230326 0.313707 0.689103 0.157491
H4    H     H_    0.810984 0.863767 0.197464 0.157024
H5    H     H_    0.328141 0.755453 0.180052 0.136307
H6    H     H_    0.678099 0.236234 0.813465 0.126491
H7    H     H_    0.849060 0.772429 0.697437 0.159249
H8    H     H_    0.310043 0.363759 0.195777 0.152556
H9    H     H_    0.584460 0.020587 0.820892 0.193429
H10   H     H_    0.915179 0.518522 0.175650 0.193098
H11   H     H_    0.084341 0.523426 0.821276 0.168909
H12   H     H_    0.709496 0.035190 0.032429 0.168433
H13   H     H_    0.328259 0.938359 0.099069 0.059533
H14   H     H_    0.214053 0.508949 0.031255 0.167339
H15   H     H_    0.785363 0.496472 0.971540 0.165184
H16   H     H_    0.836628 0.244415 0.176096 0.188641
I1    I     I_    0.568201 0.291638 0.648532 -0.148860
I2    I     I_    0.440644 0.709903 0.340452 -0.253590
I3    I     I_    0.215338 0.043247 0.454170 -0.202942
I4    I     I_    0.514133 0.722019 0.726489 -0.169374
I5    I     I_    0.064266 0.790231 0.655764 -0.274491
I6    I     I_    0.943615 0.207979 0.345058 -0.192201
I7    I     I_    0.712290 0.542207 0.464033 -0.187263
I8    I     I_    0.015492 0.222594 0.728622 -0.168257
N1    N     N_2   0.443290 0.000000 0.876860 -0.259482
N2    N     N_2   0.556710 0.000000 0.123140 -0.259003
N3    N     N_2   0.943290 0.500000 0.876860 -0.271946
N4    N     N_2   0.056710 0.500000 0.123140 -0.273738
O1    O     O_R   0.422430 0.089640 0.419570 -0.491463
O2    O     O_R   0.615830 0.910350 0.326090 -0.503652
O3    O     O_R   0.615830 0.089650 0.326090 -0.488720
O4    O     O_R   0.384170 0.910350 0.673910 -0.441555
O5    O     O_R   0.884170 0.589650 0.673910 -0.514467
O6    O     O_R   0.115830 0.410350 0.326090 -0.497789
O7    O     O_R   0.115830 0.589650 0.326090 -0.476816
O8    O     O_R   0.884170 0.410350 0.673910 -0.462778
O9    O     O_2   0.692841 0.953077 0.897045 -0.464082
O10   O     O_2   0.277562 0.995660 0.969504 -0.378470
O11   O     O_2   0.181302 0.435170 0.902801 -0.514936
O12   O     O_R   0.577570 0.910360 0.580430 -0.471239
O13   O     O_2   0.827130 0.421444 0.098349 -0.517166
O14   O     O_2   0.812348 0.122092 0.138980 -0.474429
O15   O     O_2   0.197813 0.854958 0.871716 -0.405636
O16   O     O_2   0.335851 0.272745 0.730121 -0.406754
O17   O     O_2   0.844273 0.741197 0.234938 -0.486411
O18   O     O_2   0.305664 0.635445 0.130761 -0.469438
O19   O     O_2   0.699172 0.354285 0.871549 -0.450598
O20   O     O_2   0.733821 0.823468 0.691805 -0.434524
O21   O     O_2   0.344547 0.241780 0.233836 -0.464624
O22   O     O_R   0.577570 0.089640 0.580430 -0.504212
O23   O     O_R   0.422430 0.910360 0.419570 -0.498270
O24   O     O_R   0.922430 0.589640 0.419570 -0.474930
O25   O     O_R   0.077570 0.410360 0.580430 -0.487873
O26   O     O_R   0.077570 0.589640 0.580430 -0.505551
O27   O     O_R   0.922430 0.410360 0.419570 -0.477054
O28   O     O_R   0.384170 0.089650 0.673910 -0.413838

loop_
_geom_bond_atom_site_label_1
_geom_bond_atom_site_label_2
_ccdc_geom_bond_type
C15   C18   S    
Cu3   N4    S    
C12   O2    A    
C1    C8    S    
Cu1   Cu2   S    
C38   O26   A    
C37   O25   A    
C36   O5    A    
Cu3   O6    S    
C28   H2    S    
C16   C21   S    
C29   H3    S    
C8    C29   S    
C30   H4    S    
Cu4   O5    S    
Cu3   O27   S    
C27   H16   S    
C32   O19   D    
C38   O7    A    
Cu3   O7    S    
C14   I2    S    
C9    C39   S    
C17   C20   S    
C12   O12   A    
Cu4   N3    S    
C11   C37   S    
C24   O10   D    
C29   O16   D    
C9    C32   S    
Cu1   O2    S    
C3    H11   S    
C10   C31   S    
C24   H13   S    
C26   H15   S    
C6    C15   D    
C7    C30   S    
C21   I7    S    
C26   N3    S    
Cu4   O26   S    
C31   H5    S    
C30   O17   D    
C1    O28   A    
C24   N1    S    
C35   O21   D    
C2    H1    S    
C7    C12   S    
C11   C20   D    
C40   N1    D    
C22   O9    D    
Cu4   O8    S    
Cu2   O12   S    
C34   O23   A    
C13   C36   S    
C33   O20   D    
C22   H12   S    
Cu2   N1    S    
C27   O14   D    
C3    N3    D    
Cu3   Cu4   S    
C13   C33   S    
Cu2   O28   S    
Cu1   O3    S    
C5    C28   S    
Cu4   O25   S    
C36   O24   A    
C39   O27   A    
C6    C27   S    
C10   C19   D    
C31   O18   D    
C5    C34   S    
C28   O15   D    
Cu3   O24   S    
C15   I1    S    
C13   C21   D    
C25   N4    S    
C32   H6    S    
C5    C14   D    
C7    C16   D    
C18   I6    S    
C25   H14   S    
C3    C4    S    
C4    N4    D    
C4    H10   S    
Cu2   O22   S    
C14   C19   S    
C20   I8    S    
C23   O3    A    
C33   H7    S    
C37   O6    A    
Cu2   O4    S    
C8    C17   D    
C23   O22   A    
C10   C38   S    
C1    O1    A    
C39   O8    A    
C11   C35   S    
C17   I3    S    
Cu1   O23   S    
C26   O13   D    
C6    C23   S    
C19   I5    S    
Cu1   O1    S    
C2    C40   S    
C9    C18   D    
C40   H9    S    
C35   H8    S    
C25   O11   D    
C16   I4    S    
C2    N2    D    
C22   N2    S    
C34   O4    A    
Cu1   N2    S    
