data_mof_unit_9157.cif
_audit_creation_date              2012-12-11T16:05:06-0500
_audit_creation_method            fapswitch 2.2
_symmetry_space_group_name_H-M    P1
_symmetry_Int_Tables_number       1
_space_group_crystal_system       triclinic
_cell_length_a                    10.658639
_cell_length_b                    10.566425
_cell_length_c                    16.911931
_cell_angle_alpha                 98.652332
_cell_angle_beta                  98.767459
_cell_angle_gamma                 61.935923
_cell_volume                      1654.3139179

loop_
_atom_site_label
_atom_site_type_symbol
_atom_type_description
_atom_site_fract_x
_atom_site_fract_y
_atom_site_fract_z
_atom_type_partial_charge
C1    C     C_R   0.352993 0.779524 0.400384 0.539252
C2    C     C_3   0.411347 0.701028 0.256515 -0.103840
C3    C     C_3   0.341137 0.823498 0.321772 0.051214
C4    C     C_R   0.370576 0.346518 0.358852 0.530864
C5    C     C_3   0.395376 0.916229 0.291083 -0.133096
C6    C     C_3   0.254261 0.980131 0.236181 -0.125600
C7    C     C_3   0.200927 0.886489 0.268321 -0.124326
C8    C     C_3   0.270396 0.764495 0.202455 -0.102635
C9    C     C_3   0.323911 0.856898 0.171032 0.070412
C10   C     C_3   0.458044 0.284965 0.780552 -0.126724
C11   C     C_3   0.377466 0.421941 0.735165 -0.122245
C12   C     C_3   0.727739 0.300573 0.236649 -0.140504
C13   C     C_3   0.339194 0.332673 0.663732 0.039840
C14   C     C_3   0.418293 0.198416 0.709192 -0.003266
C15   C     C_3   0.278314 0.234507 0.742525 -0.118096
C16   C     C_R   0.715807 0.410408 0.389473 0.548052
C17   C     C_3   0.198273 0.371785 0.696832 -0.133514
C18   C     C_3   0.236245 0.460122 0.769657 -0.110343
C19   C     C_3   0.317628 0.323283 0.813615 0.045094
C20   C     C_1   0.767506 0.367904 0.715637 -0.041859
C21   C     C_1   0.812381 0.330149 0.782312 -0.045906
C22   C     C_1   0.338485 0.812351 0.709789 -0.043038
C23   C     C_3   0.775717 0.371655 0.312892 0.042073
C24   C     C_1   0.313056 0.839146 0.778481 -0.044623
C25   C     C_R   0.950538 0.287665 0.103265 0.544261
C26   C     C_R   0.319252 0.299878 0.120154 0.543214
C27   C     C_R   0.294880 0.890424 0.088566 0.565093
C28   C     C_R   0.356695 0.771998 0.627170 0.544883
C29   C     C_R   0.878216 0.302425 0.862199 0.560280
C30   C     C_R   0.308134 0.295050 0.892390 0.555668
C31   C     C_R   0.279911 0.884439 0.859013 0.552468
C32   C     C_R   0.368092 0.345423 0.585581 0.537075
C33   C     C_R   0.717609 0.410754 0.635739 0.550079
C34   C     C_3   0.933621 0.269486 0.302526 -0.112130
C35   C     C_1   0.343849 0.336292 0.275085 -0.065978
C36   C     C_1   0.331972 0.326622 0.203840 -0.062276
C37   C     C_3   0.886890 0.198453 0.224574 -0.134870
C38   C     C_1   0.517435 0.053857 0.676961 0.220351
C39   C     C_1   0.625130 0.480368 0.122959 0.210003
C40   C     C_3   0.936061 0.381510 0.254453 -0.137995
C41   C     C_3   0.777277 0.484129 0.265696 -0.127882
C42   C     C_3   0.732056 0.411214 0.189086 -0.000194
C43   C     C_3   0.888875 0.311068 0.177896 0.044683
C44   C     C_3   0.464539 0.794946 0.224073 -0.117452
Cr1   Cr    Cr6+3 0.608340 0.611040 0.520430 1.048418
Cr2   Cr    Cr6+3 0.287650 0.601120 0.489350 1.025583
Cr3   Cr    Cr6+3 0.604040 0.287870 0.490280 1.033162
Cr4   Cr    Cr6+3 0.054020 0.052700 0.970850 1.034643
Cr5   Cr    Cr6+3 0.059230 0.375120 0.993390 1.033593
Cr6   Cr    Cr6+3 0.374950 0.061200 0.992340 1.038834
H1    H     H_    0.640881 0.269082 0.231312 0.125515
H2    H     H_    0.929359 0.082757 0.203155 0.128168
H3    H     H_    0.014921 0.211911 0.351084 0.128270
H4    H     H_    0.473116 0.585811 0.267771 0.097716
H5    H     H_    0.568994 0.761658 0.201570 0.124145
H6    H     H_    0.444655 0.979022 0.329474 0.135853
H7    H     H_    0.022847 0.413212 0.259993 0.120135
H8    H     H_    0.735096 0.600044 0.286487 0.121593
H9    H     H_    0.192310 0.095272 0.224796 0.100127
H10   H     H_    0.095311 0.922509 0.290163 0.123575
H11   H     H_    0.221289 0.700957 0.164646 0.132968
H12   H     H_    0.418589 0.499166 0.730208 0.108998
H13   H     H_    0.563437 0.250949 0.816193 0.129180
H14   H     H_    0.237733 0.156825 0.747567 0.117422
H15   H     H_    0.093291 0.405416 0.660834 0.147632
H16   H     H_    0.163235 0.567745 0.797051 0.141716
N1    N     N_1   0.596230 0.940125 0.651628 -0.268901
N2    N     N_1   0.541327 0.533863 0.070493 -0.308186
O1    O     O_R   0.751220 0.499230 0.435170 -0.504577
O2    O     O_R   0.412990 0.180750 0.091610 -0.505575
O3    O     O_R   0.366620 0.943130 0.065760 -0.497633
O4    O     O_R   0.477220 0.727600 0.436870 -0.513666
O5    O     O_R   0.160510 0.906330 0.879210 -0.506137
O6    O     O_R   0.930190 0.179050 0.889450 -0.488573
O7    O     O_R   0.909140 0.398170 0.896710 -0.497537
O8    O     O_R   0.186190 0.363460 0.918830 -0.499874
O9    O     O_R   0.401670 0.173200 0.913310 -0.509608
O10   O     O_R   0.356120 0.936130 0.900470 -0.490717
O11   O     O_3   0.162740 0.163010 0.985530 -0.281418
O12   O     O_R   0.297880 0.469080 0.560050 -0.497990
O13   O     O_R   0.258650 0.745120 0.411470 -0.512857
O14   O     O_R   0.297070 0.467240 0.395960 -0.495044
O15   O     O_R   0.488830 0.252610 0.387790 -0.523085
O16   O     O_R   0.724400 0.302390 0.420980 -0.490214
O17   O     O_R   0.752100 0.501210 0.612190 -0.490661
O18   O     O_R   0.478040 0.729440 0.600970 -0.487208
O19   O     O_R   0.259530 0.747110 0.588490 -0.504784
O20   O     O_R   0.489720 0.254590 0.564810 -0.513630
O21   O     O_R   0.725220 0.304230 0.585080 -0.481772
O22   O     O_3   0.500010 0.500010 0.500020 -0.299338
O23   O     O_R   0.171830 0.913880 0.057510 -0.528514
O24   O     O_R   0.940690 0.186050 0.054730 -0.496839
O25   O     O_R   0.920470 0.405720 0.075010 -0.503092
O26   O     O_R   0.196690 0.370460 0.084120 -0.516279

loop_
_geom_bond_atom_site_label_1
_geom_bond_atom_site_label_2
_ccdc_geom_bond_type
C26   O26   A    
C11   C18   S    
C25   O25   A    
C34   C37   S    
C41   C42   S    
C13   C32   S    
C35   C36   T    
C11   H12   S    
Cr6   O11   S    
C25   C43   S    
C6    C9    S    
C7    C8    S    
C15   C19   S    
C12   C23   S    
C34   C40   S    
Cr4   O11   S    
C41   H8    S    
C3    C7    S    
C5    C6    S    
C31   O5    A    
C32   O12   A    
C1    O13   A    
C32   O20   A    
C16   O16   A    
C18   C19   S    
C39   N2    T    
C12   C37   S    
C33   O17   A    
C12   C42   S    
C5    H6    S    
Cr2   O14   S    
C30   O9    A    
C40   C43   S    
C10   H13   S    
C2    C44   S    
C8    C9    S    
C9    C44   S    
Cr4   O23   S    
C15   H14   S    
Cr5   O7    S    
C27   O23   A    
Cr3   O15   S    
Cr5   O26   S    
C8    H11   S    
C4    C35   S    
C22   C28   S    
C13   C14   S    
Cr1   O4    S    
Cr3   O21   S    
Cr6   O10   S    
C39   C42   S    
C1    O4    A    
Cr1   O1    S    
Cr4   O6    S    
C2    H4    S    
C37   H2    S    
C29   O6    A    
C21   C29   S    
Cr5   O11   S    
C1    C3    S    
C37   C43   S    
Cr1   O17   S    
Cr6   O3    S    
C33   O21   A    
C14   C38   S    
Cr2   O13   S    
C30   O8    A    
C10   C19   S    
C23   C34   S    
C28   O19   A    
C17   C18   S    
Cr5   O8    S    
Cr3   O16   S    
C38   N1    T    
Cr1   O22   S    
Cr2   O22   S    
C20   C33   S    
C26   C36   S    
C40   C41   S    
C5    C44   S    
C16   C23   S    
C28   O18   A    
C26   O2    A    
Cr3   O22   S    
C22   C24   T    
C42   C43   S    
Cr6   O9    S    
C7    H10   S    
C12   H1    S    
C27   O3    A    
C9    C27   S    
C31   O10   A    
Cr2   O19   S    
C15   C17   S    
C25   O24   A    
C40   H7    S    
C6    H9    S    
C2    C8    S    
C16   O1    A    
Cr4   O5    S    
C3    C5    S    
C6    C7    S    
C29   O7    A    
C18   H16   S    
C17   H15   S    
C23   C41   S    
C13   C17   S    
Cr3   O20   S    
C2    C3    S    
Cr6   O2    S    
C24   C31   S    
Cr2   O12   S    
C11   C13   S    
C44   H5    S    
C4    O15   A    
Cr1   O18   S    
C10   C11   S    
C4    O14   A    
C20   C21   T    
C34   H3    S    
Cr4   O24   S    
C14   C15   S    
Cr5   O25   S    
C19   C30   S    
C10   C14   S    
