data_mof_unit_30365.cif
_audit_creation_date              2012-10-26T19:27:14-0400
_audit_creation_method            fapswitch 2.2
_symmetry_space_group_name_H-M    P1
_symmetry_Int_Tables_number       1
_space_group_crystal_system       triclinic
_cell_length_a                    13.677995
_cell_length_b                    15.0803
_cell_length_c                    17.325536
_cell_angle_alpha                 90.013114
_cell_angle_beta                  85.499078
_cell_angle_gamma                 90.041072
_cell_volume                      3562.68627158

loop_
_atom_site_label
_atom_site_type_symbol
_atom_type_description
_atom_site_fract_x
_atom_site_fract_y
_atom_site_fract_z
_atom_type_partial_charge
C1    C     C_R   0.500014 0.671524 0.500003 0.551844
C2    C     C_R   0.589314 0.906993 0.489561 -0.030320
C3    C     C_R   0.500230 0.046487 0.499956 0.004164
C4    C     C_R   0.499770 0.953513 0.500043 0.004164
C5    C     C_R   0.590152 0.092963 0.489517 0.026815
C6    C     C_R   0.409848 0.907037 0.510482 0.026813
C7    C     C_R   0.321894 0.046739 0.521127 -0.110120
C8    C     C_R   0.678106 0.953261 0.478872 -0.110121
C9    C     C_R   0.320651 0.954026 0.520174 0.261472
C10   C     C_R   0.679349 0.045974 0.479825 0.261472
C11   C     C_R   0.211110 0.560604 0.456208 0.037014
C12   C     C_R   0.499986 0.328476 0.499997 0.551844
C13   C     C_R   0.788890 0.439396 0.543792 0.037014
C14   C     C_R   0.202542 0.439598 0.544109 0.043526
C15   C     C_R   0.797458 0.560402 0.455891 0.043527
C16   C     C_R   0.486833 0.498444 0.650072 0.554258
C17   C     C_R   0.513167 0.501555 0.349928 0.554258
C18   C     C_R   0.099044 0.438209 0.545844 -0.003782
C19   C     C_R   0.900956 0.561791 0.454155 -0.003782
C20   C     C_R   0.051808 0.499966 0.500216 -0.003321
C21   C     C_R   0.948191 0.500034 0.499783 -0.003321
C22   C     C_R   0.108231 0.561841 0.455115 -0.060339
C23   C     C_R   0.588979 0.185561 0.489449 -0.122889
C24   C     C_R   0.891768 0.438159 0.544885 -0.060339
C25   C     C_R   0.041694 0.377130 0.591938 0.262241
C26   C     C_R   0.958306 0.622870 0.408062 0.262240
C27   C     C_R   0.939026 0.376616 0.589975 -0.127739
C28   C     C_R   0.060974 0.623384 0.410025 -0.127738
C29   C     C_R   0.478836 0.492733 0.734447 -0.027028
C30   C     C_R   0.521164 0.507266 0.265553 -0.027030
C31   C     C_R   0.561217 0.469108 0.772919 -0.149923
C32   C     C_R   0.438782 0.530888 0.227080 -0.149923
C33   C     C_R   0.555152 0.464831 0.853005 -0.160568
C34   C     C_R   0.411020 0.814439 0.510550 -0.122891
C35   C     C_R   0.444847 0.535163 0.146995 -0.160567
C36   C     C_R   0.466812 0.485197 0.896047 0.048009
C37   C     C_R   0.533188 0.514800 0.103953 0.048006
C38   C     C_R   0.382310 0.504513 0.857893 0.277144
C39   C     C_R   0.617691 0.495487 0.142107 0.277144
C40   C     C_R   0.389231 0.509578 0.776980 -0.115980
C41   C     C_R   0.610770 0.490423 0.223020 -0.115977
C42   C     C_2   0.461996 0.486318 0.980884 -0.113060
C43   C     C_2   0.538003 0.513678 0.019116 -0.113063
C44   C     C_3   0.103859 0.349934 0.708492 -0.022438
C45   C     C_R   0.500021 0.231699 0.499904 -0.024461
C46   C     C_3   0.019242 0.329630 0.768515 -0.385154
C47   C     C_3   0.896141 0.650066 0.291508 -0.022438
C48   C     C_3   0.980759 0.670368 0.231485 -0.385155
C49   C     C_3   0.227653 0.458579 0.896431 -0.019971
C50   C     C_3   0.137593 0.479582 0.950529 -0.371607
C51   C     C_3   0.772340 0.541431 0.103563 -0.019971
C52   C     C_3   0.862406 0.520427 0.049471 -0.371609
C53   C     C_3   0.186330 0.904109 0.464334 -0.028089
C54   C     C_3   0.091336 0.852006 0.478433 -0.360501
C55   C     C_3   0.813673 0.095887 0.535664 -0.028093
C56   C     C_R   0.499979 0.768300 0.500096 -0.024460
C57   C     C_3   0.908661 0.147997 0.521567 -0.360502
C58   C     C_R   0.411223 0.185327 0.510380 -0.132424
C59   C     C_R   0.588777 0.814673 0.489619 -0.132424
C60   C     C_R   0.410686 0.093007 0.510438 -0.030321
Cu1   Cu    Cu3+1 0.402580 0.500010 0.500000 0.937316
Cu2   Cu    Cu3+1 0.597420 0.499990 0.500000 0.937317
H1    H     H_    0.240820 0.392773 0.578171 0.150061
H2    H     H_    0.657613 0.778988 0.481221 0.135452
H3    H     H_    0.630533 0.453766 0.741143 0.133079
H4    H     H_    0.369465 0.546229 0.258857 0.133080
H5    H     H_    0.255507 0.607692 0.421743 0.116937
H6    H     H_    0.744493 0.392308 0.578257 0.116937
H7    H     H_    0.119036 0.422722 0.707170 0.109377
H8    H     H_    0.170890 0.317740 0.727537 0.144278
H9    H     H_    0.002617 0.257532 0.768821 0.165781
H10   H     H_    0.039557 0.349338 0.826858 0.094953
H11   H     H_    0.952842 0.367236 0.755395 0.137889
H12   H     H_    0.759180 0.607226 0.421828 0.150061
H13   H     H_    0.829111 0.682261 0.272462 0.144278
H14   H     H_    0.880962 0.577278 0.292830 0.109380
H15   H     H_    0.047158 0.632760 0.244605 0.137889
H16   H     H_    0.960444 0.650660 0.173142 0.094954
H17   H     H_    0.997385 0.742465 0.231179 0.165781
H18   H     H_    0.258780 0.394469 0.915196 0.123092
H19   H     H_    0.204148 0.451465 0.836696 0.116030
H20   H     H_    0.102831 0.541792 0.932029 0.161155
H21   H     H_    0.083591 0.424700 0.949381 0.090509
H22   H     H_    0.158875 0.487680 0.010698 0.153664
H23   H     H_    0.896251 0.328045 0.624134 0.108577
H24   H     H_    0.795841 0.548561 0.163298 0.116027
H25   H     H_    0.741207 0.605534 0.084787 0.123094
H26   H     H_    0.841129 0.512312 0.989302 0.153667
H27   H     H_    0.916400 0.575316 0.050611 0.090509
H28   H     H_    0.897175 0.458226 0.067983 0.161153
H29   H     H_    0.380196 0.554491 0.118891 0.122956
H30   H     H_    0.619802 0.445502 0.881109 0.122955
H31   H     H_    0.657321 0.221994 0.481246 0.169711
H32   H     H_    0.342679 0.778006 0.518753 0.169709
H33   H     H_    0.253160 0.082396 0.530312 0.127671
H34   H     H_    0.103749 0.671955 0.375866 0.108577
H35   H     H_    0.746840 0.917604 0.469687 0.127669
H36   H     H_    0.233904 0.868921 0.418949 0.121709
H37   H     H_    0.168161 0.971346 0.443005 0.131141
H38   H     H_    0.040724 0.886993 0.521504 0.162284
H39   H     H_    0.055324 0.845286 0.423461 0.127214
H40   H     H_    0.106970 0.784834 0.500664 0.164006
H41   H     H_    0.831849 0.028648 0.556985 0.131143
H42   H     H_    0.766098 0.131065 0.581053 0.121710
H43   H     H_    0.893020 0.215169 0.499337 0.164009
H44   H     H_    0.944672 0.154719 0.576540 0.127214
H45   H     H_    0.674770 0.471450 0.252204 0.129788
H46   H     H_    0.959277 0.113016 0.478495 0.162283
H47   H     H_    0.325231 0.528554 0.747796 0.129785
H48   H     H_    0.606296 0.533720 0.987755 0.147000
H49   H     H_    0.393704 0.466276 0.012244 0.147002
H50   H     H_    0.342386 0.221012 0.518778 0.135452
N1    N     N_R   0.256180 0.500070 0.500030 -0.245776
N2    N     N_R   0.743820 0.499930 0.499970 -0.245776
O1    O     O_R   0.417720 0.629750 0.499980 -0.512751
O2    O     O_3   0.914584 0.686197 0.364411 -0.578350
O3    O     O_3   0.296213 0.528161 0.900100 -0.560202
O4    O     O_3   0.703789 0.471841 0.099901 -0.560202
O5    O     O_3   0.232532 0.909646 0.534222 -0.561182
O6    O     O_3   0.767468 0.090354 0.465777 -0.561182
O7    O     O_R   0.582280 0.370250 0.500020 -0.512751
O8    O     O_R   0.582260 0.629730 0.499990 -0.507077
O9    O     O_R   0.417740 0.370270 0.500010 -0.507077
O10   O     O_R   0.408190 0.500030 0.613590 -0.511611
O11   O     O_R   0.591810 0.499970 0.386410 -0.511611
O12   O     O_R   0.572730 0.500000 0.613600 -0.501450
O13   O     O_R   0.427270 0.500000 0.386400 -0.501450
O14   O     O_3   0.085415 0.313803 0.635589 -0.578350

loop_
_geom_bond_atom_site_label_1
_geom_bond_atom_site_label_2
_ccdc_geom_bond_type
C57   H43   S    
C34   C56   A    
C23   C45   A    
C14   C18   A    
C54   H39   S    
C36   C42   S    
C24   C27   A    
C42   H49   S    
C51   O4    S    
C6    C9    A    
C50   H22   S    
C39   C41   A    
C53   C54   S    
C53   H37   S    
C15   C19   A    
C59   H2    S    
Cu1   O10   S    
C58   H50   S    
C48   H17   S    
C35   C37   A    
C25   O14   S    
C47   H14   S    
Cu2   N2    S    
C58   C60   A    
C55   H41   S    
C33   C36   A    
C18   C20   A    
C31   H3    S    
C48   H16   S    
C27   H23   S    
C19   C26   A    
C1    O8    A    
C38   O3    S    
C52   H28   S    
C49   O3    S    
C12   O7    A    
C44   C46   S    
Cu1   O1    S    
C31   C33   A    
C30   C41   A    
C44   H8    S    
C43   H48   S    
C46   H10   S    
C13   N2    A    
C3    C60   A    
C57   H44   S    
C38   C40   A    
C22   C28   A    
C17   C30   S    
C54   H38   S    
C52   H27   S    
C18   C25   A    
C51   H24   S    
C11   H5    S    
C50   H21   S    
C55   O6    S    
C47   O2    S    
C45   C58   A    
C51   C52   S    
C32   C35   A    
C52   H26   S    
C4    C6    A    
C33   H30   S    
C51   H25   S    
Cu2   O12   S    
C2    C59   A    
C17   O13   A    
C16   C29   S    
C55   H42   S    
C6    C34   A    
C13   C24   A    
C48   H15   S    
C37   C43   S    
C2    C4    A    
C8    H35   S    
C47   C48   S    
C5    C23   A    
C15   H12   S    
C15   N2    A    
C44   H7    S    
Cu1   O13   S    
C46   H9    S    
C8    C10   A    
C20   C22   A    
C55   C57   S    
Cu1   N1    S    
C9    O5    S    
C42   C43   D    
C3    C4    A    
C39   O4    S    
C7    C60   A    
Cu2   O8    S    
C50   H20   S    
C32   H4    S    
C7    C9    A    
C44   O14   S    
C41   H45   S    
C19   C21   A    
C1    C56   S    
C2    C8    A    
C34   H32   S    
C12   C45   S    
C3    C5    A    
Cu2   O11   S    
C53   O5    S    
C40   H47   S    
C53   H36   S    
C25   C27   A    
C14   N1    A    
C7    H33   S    
C11   C22   A    
C26   C28   A    
C56   C59   A    
C28   H34   S    
Cu1   O9    S    
C54   H40   S    
C36   C38   A    
C16   O10   A    
C47   H13   S    
C5    C10   A    
C29   C31   A    
C30   C32   A    
C17   O11   A    
C12   O9    A    
C14   H1    S    
C29   C40   A    
C49   H19   S    
C46   H11   S    
Cu1   Cu2   S    
C11   N1    A    
C26   O2    S    
C10   O6    S    
C23   H31   S    
C57   H46   S    
C20   C21   A    
C37   C39   A    
C49   C50   S    
C21   C24   A    
C49   H18   S    
C1    O1    A    
C16   O12   A    
Cu2   O7    S    
C13   H6    S    
C35   H29   S    
