data_mof_unit_5152.cif
_audit_creation_date              2012-12-10T17:51:24-0500
_audit_creation_method            fapswitch 2.2
_symmetry_space_group_name_H-M    P1
_symmetry_Int_Tables_number       1
_space_group_crystal_system       triclinic
_cell_length_a                    9.865575
_cell_length_b                    10.734263
_cell_length_c                    16.787485
_cell_angle_alpha                 91.905746
_cell_angle_beta                  87.327052
_cell_angle_gamma                 88.989372
_cell_volume                      1774.54489169

loop_
_atom_site_label
_atom_site_type_symbol
_atom_type_description
_atom_site_fract_x
_atom_site_fract_y
_atom_site_fract_z
_atom_type_partial_charge
C1    C     C_R   0.498479 0.739729 0.492852 0.920885
C2    C     C_R   0.362978 0.432251 0.778851 -0.216188
C3    C     C_R   0.433288 0.413393 0.132445 -0.144993
C4    C     C_R   0.410460 0.440160 0.214195 0.074735
C5    C     C_R   0.653063 0.484162 0.220203 -0.209945
C6    C     C_R   0.672804 0.452601 0.139863 -0.193115
C7    C     C_R   0.563856 0.413979 0.096234 0.168814
C8    C     C_2   0.498669 0.321697 0.967952 -0.251532
C9    C     C_2   0.585428 0.388489 0.010492 -0.220311
C10   C     C_R   0.524103 0.475959 0.258988 -0.092871
C11   C     C_R   0.238262 0.893372 0.490831 -0.134131
C12   C     C_R   0.484256 0.492543 0.652706 0.832872
C13   C     C_R   0.122826 0.956940 0.523043 -0.149074
C14   C     C_R   0.136037 0.068891 0.565565 -0.165238
C15   C     C_R   0.262901 0.123299 0.568384 -0.133052
C16   C     C_R   0.378295 0.065202 0.528420 0.092314
C17   C     C_R   0.369674 0.941776 0.500726 0.019188
C18   C     C_R   0.493229 0.873368 0.483996 -0.193099
C19   C     C_R   0.616596 0.935269 0.471467 0.445188
C20   C     C_R   0.617911 0.063028 0.483738 -0.334396
C21   C     C_R   0.500444 0.127651 0.511748 -0.175675
C22   C     C_R   0.847735 0.663052 0.605407 -0.126177
C23   C     C_R   0.500288 0.260647 0.506429 0.908659
C24   C     C_R   0.912460 0.743114 0.657524 -0.214640
C25   C     C_R   0.052703 0.743574 0.657302 -0.198394
C26   C     C_R   0.128968 0.664378 0.604713 -0.165609
C27   C     C_R   0.066768 0.581562 0.551293 0.149055
C28   C     C_R   0.921859 0.581160 0.551504 0.175952
C29   C     C_R   0.933590 0.419831 0.452479 -0.128916
C30   C     C_R   0.076962 0.419405 0.452867 -0.123438
C31   C     C_R   0.516179 0.495756 0.346351 0.864507
C32   C     C_R   0.484303 0.449007 0.733998 -0.024968
C33   C     C_R   0.608144 0.407498 0.763003 -0.204794
C34   C     C_R   0.611462 0.353864 0.836422 -0.171103
C35   C     C_R   0.491726 0.344405 0.883305 0.206825
C36   C     C_R   0.366874 0.380105 0.853658 -0.170419
H1    H     H_    0.703346 0.415263 0.728855 0.163318
H2    H     H_    0.773461 0.458401 0.111654 0.133485
H3    H     H_    0.221670 0.809354 0.455796 0.170729
H4    H     H_    0.023490 0.917713 0.516545 0.158377
H5    H     H_    0.047493 0.115753 0.593874 0.138414
H6    H     H_    0.269560 0.211070 0.601448 0.155275
H7    H     H_    0.710662 0.112085 0.469717 0.164842
H8    H     H_    0.883595 0.354272 0.413905 0.147681
H9    H     H_    0.739870 0.667415 0.609782 0.202026
H10   H     H_    0.853281 0.805117 0.698350 0.150445
H11   H     H_    0.102954 0.806446 0.697631 0.156189
H12   H     H_    0.236010 0.671651 0.607478 0.212494
H13   H     H_    0.135315 0.352536 0.415371 0.150381
H14   H     H_    0.740401 0.512999 0.252406 0.174087
H15   H     H_    0.666274 0.439175 0.980457 0.152809
H16   H     H_    0.273782 0.373701 0.890043 0.122911
H17   H     H_    0.349124 0.394150 0.095764 0.119344
H18   H     H_    0.266194 0.460447 0.756621 0.155021
H19   H     H_    0.416893 0.270768 0.996550 0.145162
H20   H     H_    0.708349 0.324959 0.858272 0.130106
N1    N     N_R   0.857140 0.501200 0.500750 -0.117196
N2    N     N_R   0.142740 0.501280 0.500770 -0.123620
O1    O     O_R   0.385310 0.683220 0.500000 -0.665313
O2    O     O_R   0.614640 0.683250 0.500010 -0.565536
O3    O     O_R   0.371780 0.500010 0.615800 -0.641540
O4    O     O_R   0.601110 0.500030 0.615800 -0.650074
O5    O     O_R   0.385360 0.316750 0.499990 -0.625593
O6    O     O_R   0.614690 0.316780 0.500000 -0.622061
O7    O     O_R   0.398890 0.499970 0.384200 -0.634140
O8    O     O_R   0.628220 0.499990 0.384200 -0.602926
Zn1   Zn    Zn3+2 0.346870 0.499980 0.499990 0.912789
Zn2   Zn    Zn3+2 0.653130 0.500020 0.500010 0.953918
O9    O     O_3   0.733020 0.870030 0.444538 -0.753308
H21   H     H_    0.809457 0.928272 0.438577 0.317977
C37   C     C_3   0.268298 0.426490 0.253072 -0.382414
C38   C     C_3   0.155901 0.384998 0.197770 -0.394896
C39   C     C_3   0.021015 0.369658 0.244200 -0.893284
H22   H     H_    0.030007 0.294474 0.287583 0.254509
H23   H     H_    0.989375 0.458383 0.276219 0.266005
H24   H     H_    0.941761 0.343441 0.202278 0.254444
H25   H     H_    0.141120 0.456019 0.152071 0.223867
H26   H     H_    0.184458 0.293779 0.167740 0.226278
H27   H     H_    0.275530 0.355412 0.299323 0.216509
H28   H     H_    0.235295 0.517735 0.281459 0.225593

loop_
_geom_bond_atom_site_label_1
_geom_bond_atom_site_label_2
_ccdc_geom_bond_type
C31   O8    A    
O8    Zn2   S    
C34   H20   S    
C16   C21   A    
C11   C13   A    
C39   H22   S    
C35   C36   A    
C9    H15   S    
C37   H27   S    
C28   N1    A    
C1    C18   S    
C38   H25   S    
O6    Zn2   S    
C34   C35   A    
C3    C7    A    
C1    O1    A    
C5    C6    A    
C15   C16   A    
C2    C32   A    
C18   C19   A    
C13   H4    S    
C38   H26   S    
O1    Zn1   S    
C10   C31   S    
C19   C20   A    
C16   C17   A    
O7    Zn1   S    
C6    H2    S    
C25   H11   S    
C36   H16   S    
C26   H12   S    
C23   O5    A    
C22   C28   A    
C13   C14   A    
C12   C32   S    
C39   H23   S    
C8    H19   S    
C37   H28   S    
C33   C34   A    
O5    Zn1   S    
C24   C25   A    
C2    H18   S    
C1    O2    A    
C31   O7    A    
C8    C9    D    
C25   C26   A    
C33   H1    S    
C8    C35   S    
C29   C30   A    
C12   O4    A    
O3    Zn1   S    
C17   C18   A    
C26   C27   A    
C11   H3    S    
C14   H5    S    
C23   O6    A    
C30   H13   S    
C29   N1    A    
C21   C23   S    
C29   H8    S    
C39   H24   S    
C22   C24   A    
C5    H14   S    
C19   O9    S    
N1    Zn2   S    
C4    C10   A    
C3    C4    A    
C20   H7    S    
C2    C36   A    
C7    C9    S    
C11   C17   A    
C15   H6    S    
C38   C39   S    
C27   N2    A    
C6    C7    A    
O4    Zn2   S    
C24   H10   S    
C32   C33   A    
C37   C38   S    
C12   O3    A    
C3    H17   S    
C30   N2    A    
O9    H21   S    
N2    Zn1   S    
C5    C10   A    
C22   H9    S    
C20   C21   A    
O2    Zn2   S    
C27   C28   A    
C14   C15   A    
C4    C37   S    
