data_mof_unit_6504.cif
_audit_creation_date              2012-12-10T17:43:55-0500
_audit_creation_method            fapswitch 2.2
_symmetry_space_group_name_H-M    P1
_symmetry_Int_Tables_number       1
_space_group_crystal_system       triclinic
_cell_length_a                    15.853825
_cell_length_b                    15.0687
_cell_length_c                    13.694722
_cell_angle_alpha                 90.039041
_cell_angle_beta                  89.147915
_cell_angle_gamma                 89.832605
_cell_volume                      3271.24500145

loop_
_atom_site_label
_atom_site_type_symbol
_atom_type_description
_atom_site_fract_x
_atom_site_fract_y
_atom_site_fract_z
_atom_type_partial_charge
C1    C     C_R   0.499633 0.328540 0.500039 0.809682
C2    C     C_R   0.499427 0.671445 0.500065 0.810858
C3    C     C_R   0.497931 0.768148 0.500595 -0.072934
C4    C     C_R   0.497516 0.231835 0.500414 -0.069501
C5    C     C_R   0.521959 0.814085 0.584437 -0.259289
C6    C     C_R   0.471342 0.185952 0.417445 -0.260315
C7    C     C_R   0.521630 0.907040 0.586727 0.077347
C8    C     C_R   0.467053 0.093012 0.417144 0.081964
C9    C     C_R   0.494704 0.953450 0.502436 0.023701
C10   C     C_R   0.493658 0.046542 0.501500 0.025138
C11   C     C_R   0.469108 0.906666 0.418683 0.085245
C12   C     C_R   0.519317 0.093305 0.585184 0.084768
C13   C     C_R   0.546785 0.954926 0.670716 0.146877
C14   C     C_R   0.437447 0.045171 0.335170 0.142483
C15   C     C_R   0.544165 0.047697 0.668793 -0.261852
C16   C     C_R   0.440405 0.952312 0.336749 -0.256157
C17   C     C_R   0.555577 0.446990 0.791839 0.006720
C18   C     C_R   0.446468 0.555256 0.208118 0.006552
C19   C     C_R   0.445236 0.553536 0.794300 0.020242
C20   C     C_R   0.554181 0.445766 0.205712 0.020442
C21   C     C_R   0.444257 0.554873 0.897195 -0.015669
C22   C     C_R   0.555596 0.444839 0.102791 -0.015528
C23   C     C_R   0.339675 0.500060 0.500669 0.831287
C24   C     C_R   0.660279 0.499379 0.499327 0.833317
C25   C     C_R   0.499820 0.499192 0.948164 0.069057
C26   C     C_R   0.499268 0.499691 0.051847 0.068982
C27   C     C_R   0.556850 0.444294 0.895310 -0.053525
C28   C     C_R   0.443559 0.556111 0.104673 -0.053577
C29   C     C_R   0.389603 0.611416 0.949563 -0.255883
C30   C     C_R   0.612846 0.391157 0.050325 -0.255833
C31   C     C_R   0.388651 0.612872 0.052447 0.002745
C32   C     C_R   0.614340 0.390421 0.947429 0.000405
C33   C     C_3   0.972311 0.412473 0.508958 -0.222883
C34   C     C_3   0.027272 0.581453 0.491617 -0.224741
C35   C     C_3   0.030362 0.448687 0.426476 0.066825
C36   C     C_3   0.969259 0.545129 0.574031 0.068918
C37   C     C_1   0.249975 0.499665 0.502354 -0.180608
C38   C     C_1   0.749889 0.497609 0.497636 -0.176771
C39   C     C_3   0.025857 0.462353 0.585631 -0.205924
C40   C     C_3   0.973863 0.531552 0.414904 -0.207741
C41   C     C_3   0.082731 0.498007 0.502326 0.145571
C42   C     C_3   0.917022 0.495898 0.498075 0.145293
C43   C     C_1   0.174417 0.499068 0.503226 -0.066589
C44   C     C_1   0.825396 0.496278 0.496865 -0.062745
C45   C     C_R   0.471538 0.814338 0.418093 -0.226456
C46   C     C_R   0.520365 0.185574 0.584316 -0.231800
Cu1   Cu    Cu3+1 0.500010 0.499990 0.597420 0.939490
Cu2   Cu    Cu3+1 0.499990 0.500010 0.402580 0.938521
H1    H     H_    0.347437 0.654966 0.910221 0.143262
H2    H     H_    0.657014 0.349804 0.089554 0.143716
H3    H     H_    0.947610 0.344033 0.517328 0.128467
H4    H     H_    0.051804 0.650006 0.483644 0.126992
H5    H     H_    0.951392 0.559098 0.344732 0.138090
H6    H     H_    0.048313 0.434817 0.655812 0.136466
H7    H     H_    0.451728 0.778330 0.353772 0.154248
H8    H     H_    0.540546 0.221440 0.648537 0.146860
H9    H     H_    0.541617 0.776208 0.647085 0.158825
H10   H     H_    0.454001 0.223807 0.353825 0.157811
H11   H     H_    0.562785 0.084780 0.732767 0.137397
H12   H     H_    0.418942 0.915115 0.274060 0.149483
H13   H     H_    0.598863 0.407213 0.748587 0.146636
H14   H     H_    0.406594 0.598751 0.251357 0.143963
H15   H     H_    0.402639 0.595770 0.754158 0.127060
H16   H     H_    0.596694 0.403452 0.245869 0.127143
N1    N     N_R   0.499960 0.499930 0.743810 -0.185529
N2    N     N_R   0.500040 0.500070 0.256190 -0.185134
O1    O     O_R   0.500020 0.370250 0.582280 -0.587391
O2    O     O_R   0.499980 0.629750 0.417720 -0.587031
O3    O     O_R   0.500010 0.370270 0.417740 -0.591055
O4    O     O_R   0.499990 0.629730 0.582260 -0.590729
O5    O     O_R   0.379080 0.499980 0.582260 -0.578323
O6    O     O_R   0.620920 0.500020 0.417740 -0.578874
O7    O     O_R   0.379070 0.500000 0.417710 -0.581445
O8    O     O_R   0.620930 0.500000 0.582290 -0.579332
C47   C     C_R   0.067411 0.397350 0.341743 0.110897
C48   C     C_R   0.049466 0.306873 0.329062 -0.146928
C49   C     C_R   0.084631 0.260203 0.250030 -0.136961
C50   C     C_R   0.138223 0.303225 0.183563 -0.115470
C51   C     C_R   0.156328 0.393205 0.195634 -0.133255
C52   C     C_R   0.120870 0.440274 0.274225 -0.146257
H17   H     H_    0.008329 0.272199 0.379748 0.114831
H18   H     H_    0.070207 0.190650 0.240236 0.122997
H19   H     H_    0.165540 0.266895 0.122605 0.119160
H20   H     H_    0.197697 0.426409 0.143920 0.125028
H21   H     H_    0.135230 0.510026 0.282766 0.118625
C53   C     C_R   0.930190 0.595669 0.658146 0.105805
C54   C     C_R   0.943391 0.687243 0.668877 -0.144751
C55   C     C_R   0.904127 0.733630 0.745582 -0.132671
C56   C     C_R   0.851380 0.689090 0.811787 -0.115796
C57   C     C_R   0.838214 0.597901 0.801799 -0.128886
C58   C     C_R   0.877651 0.551213 0.725495 -0.146648
H22   H     H_    0.983391 0.723072 0.617937 0.115320
H23   H     H_    0.914416 0.804212 0.753503 0.121721
H24   H     H_    0.820726 0.725239 0.870770 0.120656
H25   H     H_    0.797221 0.563472 0.852957 0.127674
H26   H     H_    0.866547 0.480630 0.718226 0.132896
C59   C     C_R   0.331537 0.676617 0.102709 0.107360
C60   C     C_R   0.265456 0.646574 0.163530 -0.167837
C61   C     C_R   0.212900 0.707449 0.212070 -0.133314
C62   C     C_R   0.225477 0.798542 0.199433 -0.106380
C63   C     C_R   0.290404 0.828818 0.137945 -0.153768
C64   C     C_R   0.343219 0.768180 0.089605 -0.156984
H27   H     H_    0.255391 0.576223 0.173988 0.119325
H28   H     H_    0.162517 0.684026 0.259544 0.120639
H29   H     H_    0.184842 0.845620 0.237104 0.120819
H30   H     H_    0.300088 0.899233 0.127746 0.119828
H31   H     H_    0.393698 0.792510 0.042746 0.123251
C65   C     C_R   0.678998 0.335492 0.896724 0.111739
C66   C     C_R   0.655525 0.262369 0.839608 -0.175988
C67   C     C_R   0.717048 0.213001 0.789185 -0.147253
C68   C     C_R   0.802164 0.235616 0.796310 -0.105484
C69   C     C_R   0.825999 0.307570 0.854024 -0.144954
C70   C     C_R   0.764717 0.357262 0.904354 -0.155120
H32   H     H_    0.589716 0.244446 0.833315 0.118078
H33   H     H_    0.698873 0.157497 0.744162 0.129137
H34   H     H_    0.849626 0.197402 0.757077 0.119286
H35   H     H_    0.891925 0.325109 0.859406 0.125264
H36   H     H_    0.783885 0.413313 0.948236 0.122744
C71   C     C_3   0.576925 0.910304 0.763420 -0.409574
C72   C     C_3   0.667819 0.875167 0.753142 -0.331173
C73   C     C_3   0.732280 0.950162 0.745969 -0.816629
H37   H     H_    0.722472 0.989821 0.678766 0.256505
H38   H     H_    0.727026 0.994197 0.810860 0.245022
H39   H     H_    0.796903 0.921700 0.742811 0.227062
H40   H     H_    0.682242 0.834367 0.818415 0.201454
H41   H     H_    0.674852 0.831717 0.688009 0.221777
H42   H     H_    0.573850 0.957229 0.826143 0.190426
H43   H     H_    0.533547 0.855545 0.784208 0.156503
C74   C     C_3   0.400485 0.090014 0.246015 -0.411144
C75   C     C_3   0.313078 0.130995 0.267450 -0.327820
C76   C     C_3   0.246235 0.060699 0.289601 -0.813008
H44   H     H_    0.238511 0.016349 0.225736 0.234269
H45   H     H_    0.263776 0.020664 0.354261 0.262100
H46   H     H_    0.184880 0.093570 0.305630 0.229055
H47   H     H_    0.315520 0.177958 0.329774 0.222566
H48   H     H_    0.293232 0.169395 0.202422 0.201808
H49   H     H_    0.444433 0.141711 0.218254 0.159246
H50   H     H_    0.394318 0.042002 0.184808 0.185498

loop_
_geom_bond_atom_site_label_1
_geom_bond_atom_site_label_2
_ccdc_geom_bond_type
C54   C55   A    
C20   H16   S    
C63   C64   A    
C6    H10   S    
C36   C42   S    
C68   C69   A    
Cu2   O3    S    
C76   H46   S    
C59   C60   A    
C57   H25   S    
C39   C41   S    
C29   H1    S    
C49   C50   A    
C35   C47   S    
C62   H29   S    
C33   C39   S    
C34   C40   S    
C33   C42   S    
C20   N2    A    
C19   C21   A    
C23   O7    A    
C2    O2    A    
C53   C58   A    
C51   H20   S    
C72   H41   S    
C39   H6    S    
C60   H27   S    
C65   C66   A    
C16   H12   S    
C56   H24   S    
C67   C68   A    
C73   H39   S    
C17   H13   S    
C58   H26   S    
C50   H19   S    
C74   H50   S    
Cu1   Cu2   S    
C19   H15   S    
C24   C38   S    
C19   N1    A    
C68   H34   S    
C26   C28   A    
C47   C52   A    
C59   C64   A    
C71   H43   S    
C40   C42   S    
C61   H28   S    
C30   H2    S    
C54   H22   S    
C41   C43   S    
C34   C41   S    
C42   C44   S    
Cu2   O6    S    
Cu1   O1    S    
C69   C70   A    
C13   C71   S    
C28   C31   A    
C17   C27   A    
C23   O5    A    
C18   C28   A    
C48   C49   A    
C4    C6    A    
C5    C7    A    
C50   C51   A    
C18   H14   S    
C4    C46   A    
C36   C53   S    
C25   C26   A    
C23   C37   S    
C21   C29   A    
C3    C45   A    
C1    O3    A    
C33   H3    S    
C51   C52   A    
C65   C70   A    
C37   C43   T    
C47   C48   A    
Cu1   O4    S    
C38   C44   T    
C52   H21   S    
C11   C16   A    
C61   C62   A    
C12   C15   A    
C64   H31   S    
Cu2   O2    S    
C9    C11   A    
Cu1   O5    S    
C73   H37   S    
C10   C12   A    
C66   H32   S    
C12   C46   A    
C75   H47   S    
C20   C22   A    
C40   H5    S    
C13   C15   A    
C32   C65   S    
C14   C16   A    
C11   C45   A    
C18   N2    A    
C76   H44   S    
C3    C5    A    
C72   C73   S    
C24   O6    A    
C74   C75   S    
C9    C10   A    
C63   H30   S    
C7    C9    A    
C21   C25   A    
C55   H23   S    
C8    C14   A    
C22   C30   A    
C27   C32   A    
C53   C54   A    
C17   N1    A    
Cu2   O7    S    
C36   C39   S    
C75   H48   S    
Cu1   O8    S    
C76   H45   S    
C48   H17   S    
C6    C8    A    
C71   C72   S    
C1    O1    A    
C25   C27   A    
C34   H4    S    
C5    H9    S    
C1    C4    S    
C35   C40   S    
C29   C31   A    
C66   C67   A    
C30   C32   A    
C24   O8    A    
C57   C58   A    
C69   H35   S    
C49   H18   S    
C62   C63   A    
C33   C35   S    
C75   C76   S    
C34   C36   S    
C31   C59   S    
C72   H40   S    
C35   C41   S    
C15   H11   S    
C73   H38   S    
C70   H36   S    
C7    C13   A    
C74   H49   S    
C55   C56   A    
C45   H7    S    
C8    C10   A    
C60   C61   A    
C22   C26   A    
C46   H8    S    
C2    C3    S    
Cu2   N2    S    
C56   C57   A    
C2    O4    A    
C67   H33   S    
Cu1   N1    S    
C14   C74   S    
C71   H42   S    
