data_mof_unit_53647.cif
_audit_creation_date              2012-12-11T16:26:17-0500
_audit_creation_method            fapswitch 2.2
_symmetry_space_group_name_H-M    P1
_symmetry_Int_Tables_number       1
_space_group_crystal_system       triclinic
_cell_length_a                    13.998017
_cell_length_b                    13.998013
_cell_length_c                    32.021005
_cell_angle_alpha                 90.0
_cell_angle_beta                  89.999985
_cell_angle_gamma                 120.000336
_cell_volume                      5433.71716447

loop_
_atom_site_label
_atom_site_type_symbol
_atom_type_description
_atom_site_fract_x
_atom_site_fract_y
_atom_site_fract_z
_atom_type_partial_charge
C1    C     C_R   0.567684 0.443918 0.810623 0.533093
C2    C     C_R   0.876234 0.432316 0.689377 0.533092
C3    C     C_R   0.556081 0.123766 0.810623 0.533093
C4    C     C_R   0.567684 0.443918 0.689377 0.533094
C5    C     C_R   0.876234 0.432316 0.810623 0.533092
C6    C     C_R   0.556081 0.123766 0.689377 0.533094
C7    C     C_R   0.443918 0.567684 0.310623 0.533092
C8    C     C_R   0.432316 0.876234 0.189377 0.533092
C9    C     C_R   0.123766 0.556081 0.310623 0.533093
C10   C     C_R   0.443918 0.567684 0.189377 0.533093
C11   C     C_R   0.432316 0.876234 0.310623 0.533091
C12   C     C_R   0.123766 0.556081 0.189377 0.533094
C13   C     C_1   0.004105 0.521098 0.018654 -0.022451
C14   C     C_1   0.516993 0.995904 0.481345 -0.022451
C15   C     C_1   0.478916 0.483013 0.018655 -0.022452
C16   C     C_1   0.004106 0.521098 0.481346 -0.022451
C17   C     C_1   0.516994 0.995904 0.018655 -0.022451
C18   C     C_1   0.478918 0.483014 0.481345 -0.022452
C19   C     C_1   0.521095 0.004107 0.518654 -0.022451
C20   C     C_1   0.995901 0.516996 0.981345 -0.022451
C21   C     C_1   0.483019 0.478913 0.518654 -0.022452
C22   C     C_1   0.521096 0.004108 0.981346 -0.022451
C23   C     C_1   0.995902 0.516996 0.518655 -0.022451
C24   C     C_1   0.483017 0.478912 0.981346 -0.022452
C25   C     C_R   0.930202 0.469278 0.851951 0.003463
C26   C     C_R   0.539074 0.069798 0.648049 0.003463
C27   C     C_R   0.530723 0.460925 0.851951 0.003463
C28   C     C_R   0.930203 0.469279 0.648049 0.003463
C29   C     C_R   0.539074 0.069798 0.851951 0.003463
C30   C     C_R   0.530723 0.460925 0.648049 0.003462
C31   C     C_R   0.469279 0.930204 0.351950 0.003462
C32   C     C_R   0.069798 0.539074 0.148049 0.003463
C33   C     C_R   0.460925 0.530721 0.351950 0.003462
C34   C     C_R   0.469279 0.930203 0.148050 0.003462
C35   C     C_R   0.069798 0.539074 0.351951 0.003463
C36   C     C_R   0.460925 0.530721 0.148050 0.003462
C37   C     C_R   0.948670 0.568675 0.871159 -0.022797
C38   C     C_R   0.620002 0.051329 0.628841 -0.022797
C39   C     C_R   0.431331 0.379992 0.871161 -0.022797
C40   C     C_R   0.948670 0.568675 0.628841 -0.022796
C41   C     C_R   0.620001 0.051327 0.871159 -0.022797
C42   C     C_R   0.431332 0.379991 0.628839 -0.022797
C43   C     C_R   0.568673 0.948666 0.371160 -0.022796
C44   C     C_R   0.051322 0.619998 0.128842 -0.022797
C45   C     C_R   0.379990 0.431331 0.371161 -0.022797
C46   C     C_R   0.568673 0.948666 0.128840 -0.022796
C47   C     C_R   0.051323 0.619999 0.371158 -0.022797
C48   C     C_R   0.379991 0.431330 0.128839 -0.022797
C49   C     C_R   0.974739 0.586040 0.913700 -0.115118
C50   C     C_R   0.611299 0.025263 0.586300 -0.115119
C51   C     C_R   0.413969 0.388697 0.913702 -0.115120
C52   C     C_R   0.974739 0.586040 0.586300 -0.115119
C53   C     C_R   0.611298 0.025262 0.913700 -0.115119
C54   C     C_R   0.413971 0.388697 0.586298 -0.115119
C55   C     C_R   0.586037 0.974735 0.413701 -0.115118
C56   C     C_R   0.025255 0.611297 0.086301 -0.115119
C57   C     C_R   0.388698 0.413969 0.413702 -0.115120
C58   C     C_R   0.586038 0.974736 0.086300 -0.115118
C59   C     C_R   0.025257 0.611297 0.413699 -0.115119
C60   C     C_R   0.388698 0.413967 0.086299 -0.115120
C61   C     C_R   0.984041 0.506857 0.937016 0.025601
C62   C     C_R   0.522816 0.015965 0.562983 0.025601
C63   C     C_R   0.493151 0.477188 0.937017 0.025601
C64   C     C_R   0.984042 0.506858 0.562984 0.025601
C65   C     C_R   0.522816 0.015966 0.937017 0.025601
C66   C     C_R   0.493152 0.477189 0.562983 0.025601
C67   C     C_R   0.506857 0.984045 0.437016 0.025601
C68   C     C_R   0.015964 0.522818 0.062983 0.025601
C69   C     C_R   0.477193 0.493147 0.437016 0.025601
C70   C     C_R   0.506857 0.984044 0.062984 0.025601
C71   C     C_R   0.015965 0.522818 0.437017 0.025601
C72   C     C_R   0.477192 0.493147 0.062984 0.025601
C73   C     C_R   0.974814 0.413448 0.917672 -0.116432
C74   C     C_R   0.438632 0.025191 0.582328 -0.116433
C75   C     C_R   0.586556 0.561375 0.917670 -0.116432
C76   C     C_R   0.974818 0.413449 0.582329 -0.116431
C77   C     C_R   0.438634 0.025195 0.917672 -0.116433
C78   C     C_R   0.586555 0.561377 0.582330 -0.116432
C79   C     C_R   0.413451 0.974825 0.417670 -0.116431
C80   C     C_R   0.025199 0.438638 0.082327 -0.116433
C81   C     C_R   0.561382 0.586548 0.417669 -0.116432
C82   C     C_R   0.413451 0.974823 0.082330 -0.116431
C83   C     C_R   0.025198 0.438637 0.417673 -0.116433
C84   C     C_R   0.561380 0.586550 0.082331 -0.116432
C85   C     C_R   0.948697 0.394972 0.875473 -0.130934
C86   C     C_R   0.446274 0.051306 0.624527 -0.130934
C87   C     C_R   0.605028 0.553732 0.875471 -0.130933
C88   C     C_R   0.948700 0.394973 0.624528 -0.130934
C89   C     C_R   0.446275 0.051309 0.875473 -0.130934
C90   C     C_R   0.605027 0.553733 0.624529 -0.130933
C91   C     C_R   0.394976 0.948707 0.375471 -0.130934
C92   C     C_R   0.051314 0.446278 0.124526 -0.130934
C93   C     C_R   0.553736 0.605021 0.375470 -0.130933
C94   C     C_R   0.394975 0.948704 0.124529 -0.130934
C95   C     C_R   0.051313 0.446277 0.375474 -0.130934
C96   C     C_R   0.553734 0.605024 0.124530 -0.130933
Cr1   Cr    Cr6+3 0.504240 0.249200 0.750000 1.081858
Cr2   Cr    Cr6+3 0.744960 0.495760 0.750000 1.081858
Cr3   Cr    Cr6+3 0.750800 0.255040 0.750000 1.081856
Cr4   Cr    Cr6+3 0.249200 0.504240 0.250000 1.081859
Cr5   Cr    Cr6+3 0.495760 0.744960 0.250000 1.081859
Cr6   Cr    Cr6+3 0.255040 0.750800 0.250000 1.081855
H1    H     H_    0.016978 0.369271 0.064371 0.118476
H2    H     H_    0.352312 0.983060 0.435625 0.118476
H3    H     H_    0.630757 0.647689 0.064377 0.118477
H4    H     H_    0.016976 0.369270 0.435629 0.118476
H5    H     H_    0.352311 0.983057 0.064375 0.118476
H6    H     H_    0.630761 0.647687 0.435622 0.118477
H7    H     H_    0.369262 0.016965 0.564373 0.118476
H8    H     H_    0.983043 0.352306 0.935627 0.118475
H9    H     H_    0.647696 0.630753 0.564376 0.118476
H10   H     H_    0.369265 0.016970 0.935628 0.118476
H11   H     H_    0.983048 0.352308 0.564374 0.118475
H12   H     H_    0.647696 0.630751 0.935624 0.118476
O1    O     O_R   0.480350 0.140770 0.796330 -0.501656
O2    O     O_R   0.660420 0.519650 0.703670 -0.501657
O3    O     O_R   0.859230 0.339580 0.796330 -0.501658
O4    O     O_R   0.480350 0.140770 0.703670 -0.501655
O5    O     O_R   0.660420 0.519650 0.796330 -0.501658
O6    O     O_R   0.859230 0.339580 0.703670 -0.501657
O7    O     O_R   0.140770 0.480350 0.296330 -0.501653
O8    O     O_R   0.519650 0.660420 0.203670 -0.501655
O9    O     O_R   0.339580 0.859230 0.296330 -0.501660
O10   O     O_R   0.140770 0.480350 0.203670 -0.501654
O11   O     O_R   0.519650 0.660420 0.296330 -0.501655
O12   O     O_R   0.339580 0.859230 0.203670 -0.501660
O13   O     O_R   0.514930 0.348530 0.793250 -0.484391
O14   O     O_R   0.833600 0.485070 0.706750 -0.484390
O15   O     O_R   0.651470 0.166400 0.793250 -0.484390
O16   O     O_R   0.514930 0.348530 0.706750 -0.484391
O17   O     O_R   0.833600 0.485070 0.793250 -0.484391
O18   O     O_R   0.651470 0.166400 0.706750 -0.484390
O19   O     O_R   0.348530 0.514930 0.293250 -0.484391
O20   O     O_R   0.485070 0.833600 0.206750 -0.484390
O21   O     O_R   0.166400 0.651470 0.293250 -0.484390
O22   O     O_R   0.348530 0.514930 0.206750 -0.484391
O23   O     O_R   0.485070 0.833600 0.293250 -0.484390
O24   O     O_R   0.166400 0.651470 0.206750 -0.484390
O25   O     O_3   0.666667 0.333333 0.750000 -0.260682
O26   O     O_3   0.333333 0.666667 0.250000 -0.260682
C97   C     C_1   0.938657 0.652879 0.848810 0.211503
N1    N     N_1   0.930701 0.720508 0.830989 -0.268995
C98   C     C_1   0.714216 0.061336 0.651190 0.211502
N2    N     N_1   0.789797 0.069286 0.669012 -0.268996
C99   C     C_1   0.347128 0.285768 0.848814 0.211499
N3    N     N_1   0.279501 0.210179 0.830994 -0.269002
C100  C     C_1   0.938655 0.652879 0.651189 0.211504
N4    N     N_1   0.930698 0.720507 0.669011 -0.268996
C101  C     C_1   0.714213 0.061331 0.848809 0.211501
N5    N     N_1   0.789793 0.069279 0.830987 -0.268995
C102  C     C_1   0.347130 0.285767 0.651185 0.211500
N6    N     N_1   0.279503 0.210176 0.669005 -0.269002
C103  C     C_1   0.652874 0.938644 0.348813 0.211506
N7    N     N_1   0.720500 0.930681 0.330993 -0.268998
C104  C     C_1   0.061320 0.714207 0.151193 0.211503
N8    N     N_1   0.069265 0.789784 0.169016 -0.268993
C105  C     C_1   0.285760 0.347132 0.348816 0.211498
N9    N     N_1   0.210165 0.279509 0.330997 -0.269006
C106  C     C_1   0.652875 0.938646 0.151188 0.211505
N10   N     N_1   0.720502 0.930684 0.169008 -0.268997
C107  C     C_1   0.061322 0.714208 0.348807 0.211503
N11   N     N_1   0.069267 0.789786 0.330985 -0.268993
C108  C     C_1   0.285764 0.347130 0.151185 0.211498
N12   N     N_1   0.210171 0.279505 0.169004 -0.269005
H13   H     H_    0.015809 0.675282 0.071023 0.113571
H14   H     H_    0.659462 0.984169 0.428980 0.113572
H15   H     H_    0.324706 0.340545 0.071018 0.113570
H16   H     H_    0.015812 0.675283 0.428977 0.113571
H17   H     H_    0.659463 0.984171 0.071020 0.113571
H18   H     H_    0.324705 0.340547 0.428983 0.113569
H19   H     H_    0.675287 0.015823 0.571021 0.113571
H20   H     H_    0.984177 0.659468 0.928979 0.113571
H21   H     H_    0.340548 0.324705 0.571017 0.113570
H22   H     H_    0.675286 0.015820 0.928979 0.113571
H23   H     H_    0.984176 0.659468 0.571021 0.113571
H24   H     H_    0.340546 0.324706 0.928982 0.113570
H25   H     H_    0.063505 0.382203 0.138001 0.159597
H26   H     H_    0.318718 0.936528 0.361994 0.159585
H27   H     H_    0.617816 0.681280 0.138008 0.159595
H28   H     H_    0.063502 0.382202 0.361998 0.159598
H29   H     H_    0.318716 0.936525 0.138005 0.159584
H30   H     H_    0.617819 0.681277 0.361991 0.159595
H31   H     H_    0.382196 0.063490 0.638003 0.159596
H32   H     H_    0.936513 0.318710 0.861997 0.159587
H33   H     H_    0.681284 0.617815 0.638007 0.159592
H34   H     H_    0.382199 0.063495 0.861997 0.159595
H35   H     H_    0.936518 0.318712 0.638004 0.159588
H36   H     H_    0.681285 0.617813 0.861993 0.159592

loop_
_geom_bond_atom_site_label_1
_geom_bond_atom_site_label_2
_ccdc_geom_bond_type
C68   C80   A    
C39   C51   A    
C80   C92   A    
C105  N9    T    
C82   C94   A    
C21   C66   S    
C18   C21   T    
C33   C45   A    
C89   H34   S    
C108  N12   T    
Cr1   O13   S    
C35   C47   A    
C74   H7    S    
C29   C89   A    
C99   N3    T    
C73   H8    S    
C48   C108  S    
C32   C92   A    
Cr5   O20   S    
C78   C90   A    
C15   C72   S    
C45   C57   A    
C37   C97   S    
Cr3   O18   S    
C54   H21   S    
C10   O22   A    
Cr1   O16   S    
C7    O19   A    
Cr6   O24   S    
C75   C87   A    
C24   C63   S    
C41   C101  S    
C60   C72   A    
C19   C62   S    
C98   N2    T    
C91   H26   S    
Cr1   O4    S    
C37   C49   A    
Cr4   O7    S    
C84   C96   A    
C20   C61   S    
C3    C29   S    
C44   C56   A    
Cr6   O21   S    
Cr4   O26   S    
C25   C37   A    
Cr3   O6    S    
C88   H35   S    
C100  N4    T    
C27   C39   A    
C56   H13   S    
C28   C88   A    
Cr5   O11   S    
C14   C67   S    
C45   C105  S    
C78   H9    S    
C34   C46   A    
C94   H29   S    
Cr1   O1    S    
C53   C65   A    
C76   C88   A    
C79   C91   A    
C40   C100  S    
C30   C90   A    
C18   C69   S    
Cr2   O14   S    
C81   H6    S    
C11   C31   S    
C17   C70   S    
C12   C32   S    
Cr5   O8    S    
C7    C33   S    
Cr3   O25   S    
C16   C71   S    
Cr5   O26   S    
C53   H22   S    
C48   C60   A    
C71   C83   A    
C64   C76   A    
C66   C78   A    
C11   O9    A    
C72   C84   A    
C60   H15   S    
C49   C61   A    
C38   C50   A    
Cr3   O15   S    
C80   H1    S    
C8    O20   A    
C1    O13   A    
Cr2   O5    S    
C58   H17   S    
C51   C63   A    
C6    O18   A    
C52   C64   A    
C95   H28   S    
Cr5   O23   S    
C58   C70   A    
C4    O16   A    
C26   C86   A    
C61   C73   A    
C40   C52   A    
C7    O11   A    
C5    O3    A    
Cr4   O10   S    
Cr2   O17   S    
C77   H10   S    
C3    O1    A    
C22   C65   S    
C1    O5    A    
Cr3   O3    S    
C65   C77   A    
C81   C93   A    
C93   H30   S    
C36   C96   A    
Cr2   O2    S    
C106  N10   T    
C12   O10   A    
C102  N6    T    
C62   C74   A    
C83   C95   A    
C39   C99   S    
C25   C85   A    
C84   H3    S    
C32   C44   A    
C67   C79   A    
C75   H12   S    
C8    C34   S    
C82   H5    S    
C74   C86   A    
C27   C87   A    
C42   C102  S    
C52   H23   S    
C41   C53   A    
C50   H19   S    
C31   C43   A    
C38   C98   S    
C5    C25   S    
C9    O21   A    
C43   C55   A    
C23   C64   S    
Cr6   O26   S    
C16   C23   T    
C31   C91   A    
C86   H31   S    
C50   C62   A    
C12   O24   A    
C79   H2    S    
Cr6   O9    S    
Cr4   O19   S    
C1    C27   S    
C57   H18   S    
C73   C85   A    
C8    O12   A    
C15   C24   T    
C2    O6    A    
C13   C20   T    
C29   C41   A    
C3    O15   A    
C77   C89   A    
C14   C19   T    
C4    O2    A    
C26   C38   A    
C34   C94   A    
Cr6   O12   S    
C33   C93   A    
C49   H20   S    
C55   C67   A    
C87   H36   S    
C54   C66   A    
C90   H33   S    
C35   C95   A    
C85   H32   S    
C17   C22   T    
C83   H4    S    
Cr2   O25   S    
C56   C68   A    
C44   C104  S    
C76   H11   S    
C11   O23   A    
C9    O7    A    
C107  N11   T    
C101  N5    T    
C42   C54   A    
C6    C26   S    
C63   C75   A    
C46   C106  S    
C10   C36   S    
C36   C48   A    
C96   H27   S    
C51   H24   S    
C70   C82   A    
C4    C30   S    
C69   C81   A    
C92   H25   S    
C47   C59   A    
C47   C107  S    
C10   O8    A    
C5    O17   A    
C59   C71   A    
C104  N8    T    
C9    C35   S    
C28   C40   A    
C30   C42   A    
C2    C28   S    
C55   H14   S    
C57   C69   A    
C103  N7    T    
C97   N1    T    
C43   C103  S    
Cr1   O25   S    
C46   C58   A    
C59   H16   S    
Cr4   O22   S    
C6    O4    A    
C13   C68   S    
C2    O14   A    
