data_mof_unit_66155.cif
_audit_creation_date              2012-12-10T18:41:00-0500
_audit_creation_method            fapswitch 2.2
_symmetry_space_group_name_H-M    P1
_symmetry_Int_Tables_number       1
_space_group_crystal_system       triclinic
_cell_length_a                    19.211445
_cell_length_b                    11.573084
_cell_length_c                    10.776246
_cell_angle_alpha                 90.046821
_cell_angle_beta                  90.000076
_cell_angle_gamma                 90.000039
_cell_volume                      2395.94303944

loop_
_atom_site_label
_atom_site_type_symbol
_atom_type_description
_atom_site_fract_x
_atom_site_fract_y
_atom_site_fract_z
_atom_type_partial_charge
Br1   Br    Br    0.130702 0.329267 0.696655 -0.405836
Br2   Br    Br    0.869177 0.671288 0.303433 -0.405934
Br3   Br    Br    0.869297 0.329245 0.696636 -0.405837
Br4   Br    Br    0.130823 0.671273 0.303418 -0.405933
C1    C     C_R   0.500000 0.281164 0.499964 0.911260
C2    C     C_1   0.500000 0.940843 0.500043 0.020257
C3    C     C_1   0.500000 0.500002 0.069755 0.059467
C4    C     C_1   0.500000 0.499998 0.930245 0.059466
C5    C     C_R   0.253439 0.429161 0.584245 -0.005564
C6    C     C_R   0.746511 0.571099 0.415786 -0.005539
C7    C     C_R   0.746560 0.429152 0.584238 -0.005567
C8    C     C_R   0.253489 0.571092 0.415779 -0.005549
C9    C     C_R   0.180671 0.429449 0.584354 0.228940
C10   C     C_R   0.819279 0.570986 0.415710 0.228921
C11   C     C_R   0.819328 0.429439 0.584345 0.228942
C12   C     C_R   0.500000 0.718835 0.500036 0.911255
C13   C     C_R   0.180721 0.570979 0.415703 0.228922
C14   C     C_R   0.144876 0.500258 0.500036 -0.108086
C15   C     C_R   0.855123 0.500255 0.500034 -0.108088
C16   C     C_R   0.289548 0.500080 0.500001 -0.115965
C17   C     C_R   0.710451 0.500080 0.500002 -0.115961
C18   C     C_R   0.930213 0.500310 0.500017 0.402288
C19   C     C_R   0.069786 0.500311 0.500017 0.402287
C20   C     C_R   0.365195 0.500008 0.500000 0.953520
C21   C     C_R   0.634804 0.500008 0.500000 0.953527
C22   C     C_1   0.500000 0.161047 0.499913 -0.164646
C23   C     C_1   0.500000 0.838953 0.500086 -0.164661
C24   C     C_1   0.500000 0.059157 0.499957 0.020265
H1    H     H_    0.277601 0.375350 0.757981 0.236443
H2    H     H_    0.276798 0.269244 0.648867 0.225104
H3    H     H_    0.722326 0.624882 0.242048 0.236433
H4    H     H_    0.723024 0.730973 0.351184 0.225065
H5    H     H_    0.723200 0.269229 0.648842 0.225103
H6    H     H_    0.722398 0.375325 0.757969 0.236444
H7    H     H_    0.276976 0.730958 0.351159 0.225064
H8    H     H_    0.277673 0.624857 0.242036 0.236444
N1    N     N_1   0.500000 0.500000 0.180630 -0.073910
N2    N     N_3   0.291367 0.645428 0.333309 -0.422888
N3    N     N_1   0.500000 0.500000 0.819370 -0.073914
N4    N     N_R   0.034522 0.458127 0.401117 -0.094001
N5    N     N_R   0.965477 0.542502 0.598914 -0.093982
N6    N     N_R   0.965478 0.458126 0.401117 -0.094002
N7    N     N_R   0.034522 0.542503 0.598915 -0.093980
N8    N     N_3   0.291265 0.354740 0.666703 -0.422913
N9    N     N_3   0.708632 0.645444 0.333333 -0.422886
N10   N     N_3   0.708734 0.354725 0.666689 -0.422917
O1    O     O_R   0.500000 0.334450 0.602530 -0.604032
O2    O     O_R   0.500000 0.665550 0.397470 -0.604026
O3    O     O_R   0.500000 0.665550 0.602530 -0.611124
O4    O     O_R   0.500000 0.334450 0.397470 -0.611120
O5    O     O_R   0.398140 0.500000 0.602560 -0.601301
O6    O     O_R   0.601860 0.500000 0.397440 -0.601295
O7    O     O_R   0.601860 0.500000 0.602560 -0.601302
O8    O     O_R   0.398140 0.500000 0.397440 -0.601292
Zn1   Zn    Zn3+2 0.500000 0.500000 0.636920 1.009313
Zn2   Zn    Zn3+2 0.500000 0.500000 0.363080 1.009315

loop_
_geom_bond_atom_site_label_1
_geom_bond_atom_site_label_2
_ccdc_geom_bond_type
C8    C13   A    
H6    N10   S    
C4    N3    T    
N5    N7    A    
H4    N9    S    
C5    C16   A    
C22   C24   T    
C2    C23   T    
N3    Zn1   S    
C8    C16   A    
C20   O5    A    
N4    N6    A    
C13   C14   A    
C3    N1    T    
C21   O6    A    
Br3   C11   S    
C3    C4    S    
C6    C17   A    
O4    Zn2   S    
C16   C20   S    
C11   C15   A    
H5    N10   S    
C1    O1    A    
H2    N8    S    
C18   N6    A    
C9    C14   A    
C12   C23   S    
Br4   C13   S    
H8    N2    S    
C21   O7    A    
O5    Zn1   S    
O7    Zn1   S    
H1    N8    S    
C8    N2    S    
Br2   C10   S    
O8    Zn2   S    
C1    O4    A    
C18   N5    A    
Br1   C9    S    
C20   O8    A    
C14   C19   S    
O6    Zn2   S    
C15   C18   S    
C19   N7    A    
C12   O3    A    
O1    Zn1   S    
H3    N9    S    
C6    N9    S    
N1    Zn2   S    
O2    Zn2   S    
C19   N4    A    
C17   C21   S    
H7    N2    S    
C7    N10   S    
C5    C9    A    
O3    Zn1   S    
C12   O2    A    
C7    C11   A    
C10   C15   A    
C7    C17   A    
C2    C24   S    
C1    C22   S    
C6    C10   A    
C5    N8    S    
