data_mof_unit_52770.cif
_audit_creation_date              2012-12-11T16:14:51-0500
_audit_creation_method            fapswitch 2.2
_symmetry_space_group_name_H-M    P1
_symmetry_Int_Tables_number       1
_space_group_crystal_system       triclinic
_cell_length_a                    13.555192
_cell_length_b                    13.551838
_cell_length_c                    28.433593
_cell_angle_alpha                 90.412079
_cell_angle_beta                  90.337739
_cell_angle_gamma                 60.191431
_cell_volume                      4531.98000429

loop_
_atom_site_label
_atom_site_type_symbol
_atom_type_description
_atom_site_fract_x
_atom_site_fract_y
_atom_site_fract_z
_atom_type_partial_charge
C1    C     C_R   0.279650 0.620594 0.566528 0.550686
C2    C     C_1   0.638462 0.633514 0.612507 0.017902
C3    C     C_3   0.716258 0.731189 0.759314 -0.120559
C4    C     C_3   0.666766 0.683203 0.795239 0.022337
C5    C     C_3   0.766034 0.617941 0.731456 -0.108394
C6    C     C_3   0.654325 0.666752 0.703582 0.052380
C7    C     C_3   0.716834 0.570206 0.768154 -0.063058
C8    C     C_3   0.605139 0.619162 0.739658 0.133355
C9    C     C_1   0.679555 0.692281 0.845690 -0.037723
C10   C     C_1   0.647374 0.652614 0.653089 -0.013843
C11   C     C_1   0.634266 0.230135 0.611586 0.023502
C12   C     C_R   0.621787 0.600969 0.566728 0.552062
C13   C     C_R   0.749191 0.203423 0.727076 0.145140
C14   C     C_R   0.757199 0.189478 0.776432 0.131587
C15   C     C_R   0.617754 0.126164 0.773084 -0.136785
C16   C     C_R   0.610319 0.139223 0.724530 -0.135104
C17   C     C_R   0.675228 0.177827 0.701400 0.032987
C18   C     C_R   0.689982 0.151759 0.799175 0.027278
C19   C     C_1   0.698943 0.130343 0.848876 -0.010439
C20   C     C_1   0.656185 0.201310 0.651965 -0.003163
C21   C     C_1   0.707439 0.102974 0.889486 0.017524
C22   C     C_1   0.231206 0.637193 0.612412 0.006196
C23   C     C_R   0.600737 0.279284 0.565930 0.550573
C24   C     C_R   0.153902 0.583144 0.725342 -0.098173
C25   C     C_R   0.141783 0.587986 0.774254 -0.099957
C26   C     C_R   0.185225 0.741288 0.777750 -0.084511
C27   C     C_R   0.196899 0.736745 0.728920 -0.077133
C28   C     C_R   0.181002 0.657923 0.702621 0.047818
C29   C     C_R   0.158008 0.666726 0.800521 0.040849
C30   C     C_1   0.135249 0.679355 0.850082 -0.046633
C31   C     C_1   0.203065 0.647731 0.653008 -0.035353
C32   C     C_1   0.106687 0.697307 0.890646 0.000295
C33   C     C_1   0.635912 0.631858 0.388179 -0.009475
C34   C     C_R   0.276561 0.621101 0.434430 0.543715
C35   C     C_R   0.732118 0.566441 0.270540 -0.006064
C36   C     C_R   0.735631 0.576831 0.221704 -0.108479
C37   C     C_R   0.576468 0.768928 0.225206 -0.112170
C38   C     C_R   0.570462 0.761099 0.274159 -0.005834
C39   C     C_R   0.649352 0.659454 0.297101 0.020660
C40   C     C_R   0.658080 0.677058 0.199186 0.009874
C41   C     C_1   0.671090 0.689317 0.149955 -0.049279
C42   C     C_1   0.643927 0.648658 0.347305 -0.052312
C43   C     C_1   0.690507 0.700655 0.109791 -0.002404
C44   C     C_1   0.633262 0.225831 0.388881 -0.018768
C45   C     C_R   0.620440 0.600542 0.434183 0.541420
C46   C     C_R   0.564291 0.220927 0.271681 -0.120761
C47   C     C_R   0.572980 0.211478 0.222994 -0.135694
C48   C     C_R   0.779291 0.115625 0.229487 0.111758
C49   C     C_R   0.769996 0.125251 0.278338 -0.082853
C50   C     C_R   0.662704 0.177128 0.299247 0.010088
C51   C     C_R   0.680082 0.159102 0.201848 0.045427
C52   C     C_1   0.687347 0.137229 0.152585 -0.018005
C53   C     C_1   0.651275 0.196906 0.348594 -0.070644
C54   C     C_1   0.696721 0.107625 0.112382 0.017891
C55   C     C_1   0.224641 0.638730 0.389581 -0.014460
C56   C     C_R   0.600343 0.277081 0.433864 0.542968
C57   C     C_R   0.202032 0.726185 0.273706 -0.096104
C58   C     C_R   0.193823 0.726722 0.224951 -0.080638
C59   C     C_R   0.129909 0.588282 0.228998 -0.108882
C60   C     C_R   0.138958 0.587103 0.277897 -0.107833
C61   C     C_R   0.174205 0.656825 0.300113 0.038178
C62   C     C_R   0.157818 0.657850 0.202657 0.041912
C63   C     C_1   0.134670 0.670969 0.153551 -0.040447
C64   C     C_1   0.194984 0.648708 0.349400 -0.063063
C65   C     C_1   0.104609 0.691562 0.113478 0.008393
C66   C     C_R   0.720677 0.055246 0.935284 0.544110
C67   C     C_3   0.604178 0.779815 0.730694 -0.126858
C68   C     C_R   0.730552 0.717737 0.932213 0.546633
C69   C     C_R   0.057477 0.729269 0.936436 0.543531
C70   C     C_R   0.714605 0.056270 0.067366 0.549706
C71   C     C_R   0.725432 0.717136 0.064681 0.548002
C72   C     C_R   0.053816 0.727534 0.068587 0.549616
C73   C     C_3   0.554814 0.732167 0.767548 -0.091063
C74   C     C_1   0.698066 0.701869 0.886282 0.002377
Cr1   Cr    Cr6+3 0.413560 0.417690 0.499580 1.038128
Cr2   Cr    Cr6+3 0.418030 0.668340 0.500400 1.036463
Cr3   Cr    Cr6+3 0.668390 0.413960 0.499990 1.048386
Cr4   Cr    Cr6+3 0.919710 0.916540 0.003080 1.066399
Cr5   Cr    Cr6+3 0.665300 0.919470 0.999630 1.040822
Cr6   Cr    Cr6+3 0.916060 0.665490 0.000390 1.045984
H1    H     H_    0.468247 0.778263 0.782955 0.126110
H2    H     H_    0.552464 0.120679 0.705015 0.120907
H3    H     H_    0.142832 0.520957 0.705350 0.117786
H4    H     H_    0.118837 0.531238 0.791509 0.121428
H5    H     H_    0.196308 0.803575 0.797674 0.126128
H6    H     H_    0.219546 0.793793 0.711717 0.130662
H7    H     H_    0.799851 0.506738 0.201167 0.126045
H8    H     H_    0.517790 0.847049 0.207369 0.119679
H9    H     H_    0.480924 0.262950 0.287832 0.114211
H10   H     H_    0.558565 0.865684 0.714694 0.115509
H11   H     H_    0.496401 0.243349 0.201891 0.116589
H12   H     H_    0.845978 0.092952 0.299822 0.129998
H13   H     H_    0.230756 0.779160 0.290791 0.112118
H14   H     H_    0.213377 0.782300 0.204728 0.139561
H15   H     H_    0.099805 0.536507 0.211835 0.107680
H16   H     H_    0.119185 0.531864 0.298241 0.106901
H17   H     H_    0.762391 0.484368 0.784089 0.175361
H18   H     H_    0.852633 0.571449 0.716090 0.131235
H19   H     H_    0.762204 0.777628 0.768186 0.123232
H20   H     H_    0.567134 0.095534 0.790384 0.124309
O1    O     O_R   0.503010 0.303330 0.550820 -0.509018
O2    O     O_R   0.522480 0.657560 0.452870 -0.497134
O3    O     O_R   0.693670 0.502790 0.448900 -0.507295
O4    O     O_R   0.656970 0.319650 0.452000 -0.503514
O5    O     O_3   0.499990 0.499990 0.499990 -0.254509
O6    O     O_R   0.035380 0.825870 0.952240 -0.500394
O7    O     O_R   0.818010 0.012400 0.954990 -0.487033
O8    O     O_R   0.644810 0.033340 0.949080 -0.509531
O9    O     O_R   0.674910 0.816000 0.950960 -0.496970
O10   O     O_R   0.827060 0.642880 0.947470 -0.498809
O11   O     O_R   0.013800 0.673690 0.954100 -0.496079
O12   O     O_R   0.320040 0.522690 0.547470 -0.492725
O13   O     O_R   0.031250 0.825430 0.055080 -0.490968
O14   O     O_R   0.814180 0.011990 0.050320 -0.480936
O15   O     O_R   0.640680 0.032900 0.051920 -0.510866
O16   O     O_R   0.671090 0.815590 0.046300 -0.493576
O17   O     O_R   0.822940 0.642440 0.050310 -0.502792
O18   O     O_R   0.009970 0.673280 0.049430 -0.499304
O19   O     O_3   0.833690 0.833830 0.001040 -0.261469
O20   O     O_R   0.303930 0.694040 0.551750 -0.501886
O21   O     O_R   0.523510 0.657900 0.548240 -0.495008
O22   O     O_R   0.694770 0.503160 0.551780 -0.490964
O23   O     O_R   0.657990 0.319990 0.547370 -0.480690
O24   O     O_R   0.501900 0.302960 0.447930 -0.506263
O25   O     O_R   0.319020 0.522350 0.452090 -0.495481
O26   O     O_R   0.302820 0.693680 0.448870 -0.514196
C75   C     C_R   0.817610 0.458254 0.292743 0.034469
C76   C     C_R   0.783517 0.394179 0.319928 -0.068995
C77   C     C_R   0.864902 0.292460 0.340609 -0.093743
C78   C     C_R   0.980579 0.252691 0.333598 -0.091817
C79   C     C_R   0.015276 0.315023 0.306164 -0.100476
C80   C     C_R   0.934271 0.417400 0.285791 -0.092767
H21   H     H_    0.694158 0.422688 0.324995 0.115261
H22   H     H_    0.838421 0.244092 0.361959 0.116818
H23   H     H_    0.043222 0.173497 0.349389 0.106928
H24   H     H_    0.104947 0.284141 0.300745 0.106527
H25   H     H_    0.962428 0.465150 0.264823 0.099307
C81   C     C_R   0.482029 0.860769 0.300329 0.031187
C82   C     C_R   0.476089 0.967027 0.296751 -0.092504
C83   C     C_R   0.392284 0.061363 0.321060 -0.104840
C84   C     C_R   0.313502 0.050582 0.348847 -0.102765
C85   C     C_R   0.318026 0.945561 0.352222 -0.104697
C86   C     C_R   0.401792 0.850951 0.328037 -0.084767
H26   H     H_    0.536825 0.976569 0.275459 0.117168
H27   H     H_    0.388468 0.142820 0.318395 0.106169
H28   H     H_    0.248934 0.123653 0.367726 0.105535
H29   H     H_    0.256556 0.937454 0.373541 0.116604
H30   H     H_    0.403770 0.770303 0.330716 0.109313
I1    I     I_    0.944417 0.032876 0.199636 -0.413219
I2    I     I_    0.516161 0.529428 0.724342 -0.382614
I3    I     I_    0.845739 0.264730 0.690892 -0.334697
I4    I     I_    0.869930 0.223528 0.817133 -0.357422

loop_
_geom_bond_atom_site_label_1
_geom_bond_atom_site_label_2
_ccdc_geom_bond_type
C58   C62   A    
C15   C18   A    
C59   C60   A    
C63   C65   T    
Cr2   O5    S    
Cr5   O15   S    
C21   C66   S    
C27   H6    S    
Cr2   O26   S    
C14   C18   A    
C37   H8    S    
C8    I2    S    
C35   C36   A    
C66   O7    A    
C2    C12   S    
C76   C77   A    
C7    C8    S    
C46   H9    S    
C70   O14   A    
Cr1   O12   S    
Cr2   O20   S    
C33   C42   T    
C56   O24   A    
C19   C21   T    
C24   H3    S    
C37   C40   A    
C81   C86   A    
C34   O25   A    
C1    O12   A    
C5    C6    S    
C68   C74   S    
C15   C16   A    
C17   C20   S    
C33   C45   S    
C18   C19   S    
C75   C80   A    
Cr3   O22   S    
C45   O3    A    
C46   C47   A    
C44   C53   T    
C48   C51   A    
C47   C51   A    
C12   O21   A    
C78   H23   S    
C16   C17   A    
Cr5   O19   S    
Cr5   O8    S    
C25   H4    S    
C67   C73   S    
C13   C14   A    
C15   H20   S    
Cr6   O19   S    
C1    C22   S    
C57   H13   S    
C48   I1    S    
Cr2   O2    S    
C41   C43   T    
Cr4   O14   S    
C59   H15   S    
C4    C7    S    
C73   H1    S    
C52   C54   T    
C39   C42   S    
C36   H7    S    
C25   C29   A    
C86   H30   S    
C82   C83   A    
Cr6   O18   S    
C11   C20   T    
C50   C53   S    
C22   C31   T    
C71   O17   A    
Cr1   O24   S    
C36   C40   A    
C38   C39   A    
C24   C25   A    
C13   I3    S    
C79   H24   S    
C45   O2    A    
C5    C7    S    
Cr5   O9    S    
C23   O23   A    
C80   H25   S    
C72   O13   A    
C67   H10   S    
C3    C4    S    
C51   C52   S    
Cr4   O7    S    
Cr1   O25   S    
C1    O20   A    
C37   C38   A    
C61   C64   S    
C35   C39   A    
C76   H21   S    
C29   C30   S    
Cr3   O23   S    
C82   H26   S    
C44   C56   S    
C54   C70   S    
C34   O26   A    
C55   C64   T    
C62   C63   S    
C16   H2    S    
C38   C81   S    
C68   O10   A    
C83   C84   A    
C35   C75   S    
C56   O4    A    
C4    C73   S    
C84   H28   S    
C60   H16   S    
C40   C41   S    
Cr1   O5    S    
C26   C27   A    
Cr3   O3    S    
Cr4   O13   S    
C9    C74   T    
Cr2   O21   S    
C49   H12   S    
C72   O18   A    
C75   C76   A    
C2    C10   T    
C77   C78   A    
Cr6   O17   S    
C48   C49   A    
C59   C62   A    
C43   C71   S    
C7    H17   S    
C47   H11   S    
C85   H29   S    
C28   C31   S    
C3    C67   S    
C24   C28   A    
C66   O8    A    
C3    C5    S    
C83   H27   S    
C6    C10   S    
C6    C8    S    
C69   O6    A    
C57   C61   A    
C32   C69   S    
C70   O15   A    
C65   C72   S    
C46   C50   A    
C13   C17   A    
Cr4   O6    S    
Cr3   O5    S    
C78   C79   A    
C58   H14   S    
C6    C67   S    
C84   C85   A    
C30   C32   T    
C69   O11   A    
C57   C58   A    
C23   O1    A    
C26   H5    S    
Cr6   O11   S    
C11   C23   S    
C8    C73   S    
C71   O16   A    
Cr4   O19   S    
C68   O9    A    
C81   C82   A    
C77   H22   S    
C3    H19   S    
C34   C55   S    
C12   O22   A    
C5    H18   S    
C26   C29   A    
Cr6   O10   S    
C49   C50   A    
C14   I4    S    
C27   C28   A    
Cr1   O1    S    
C85   C86   A    
C60   C61   A    
Cr3   O4    S    
C4    C9    S    
Cr5   O16   S    
C79   C80   A    
