data_mof_unit_39338.cif
_audit_creation_date              2012-12-10T17:43:37-0500
_audit_creation_method            fapswitch 2.2
_symmetry_space_group_name_H-M    P1
_symmetry_Int_Tables_number       1
_space_group_crystal_system       triclinic
_cell_length_a                    14.919236
_cell_length_b                    10.691184
_cell_length_c                    10.072707
_cell_angle_alpha                 89.283969
_cell_angle_beta                  88.254942
_cell_angle_gamma                 92.654993
_cell_volume                      1604.0154885

loop_
_atom_site_label
_atom_site_type_symbol
_atom_type_description
_atom_site_fract_x
_atom_site_fract_y
_atom_site_fract_z
_atom_type_partial_charge
C1    C     C_R   0.505476 0.259856 0.501475 0.856551
C2    C     C_R   0.183274 0.416930 0.579054 -0.321911
C3    C     C_R   0.231935 0.506696 0.503117 -0.066564
C4    C     C_R   0.327596 0.502262 0.501572 0.860285
C5    C     C_R   0.190241 0.592733 0.420986 0.148639
C6    C     C_R   0.498575 0.102282 0.752626 -0.215564
C7    C     C_R   0.456218 0.042760 0.863146 0.247621
C8    C     C_R   0.405446 0.929224 0.846955 0.253562
C9    C     C_R   0.408189 0.872406 0.723347 -0.198376
C10   C     C_R   0.455069 0.930941 0.614832 0.009739
C11   C     C_R   0.487763 0.054564 0.624596 0.047702
C12   C     C_R   0.909398 0.561147 0.400269 0.074004
C13   C     C_R   0.507917 0.124052 0.505712 -0.143943
C14   C     C_R   0.508779 0.063364 0.383894 -0.230438
C15   C     C_R   0.483282 0.938123 0.377278 0.203852
C16   C     C_R   0.488639 0.737534 0.498998 0.867429
C17   C     C_R   0.469181 0.869050 0.495540 -0.134321
C18   C     C_R   0.348927 0.384682 0.139719 0.272657
C19   C     C_R   0.269280 0.375557 0.069273 -0.200172
C20   C     C_R   0.275104 0.363259 0.932681 -0.238247
C21   C     C_R   0.357600 0.383598 0.866910 -0.112311
C22   C     C_R   0.429301 0.443133 0.931153 0.093313
C23   C     C_R   0.949403 0.320029 0.659963 -0.215976
C24   C     C_R   0.427631 0.443085 0.074731 0.074056
C25   C     C_R   0.567589 0.557258 0.065937 0.217261
C26   C     C_R   0.567035 0.556387 0.924029 -0.108941
C27   C     C_R   0.672340 0.495178 0.498278 0.894775
C28   C     C_R   0.817093 0.562650 0.406133 -0.310903
C29   C     C_R   0.767622 0.482875 0.493499 -0.067624
C30   C     C_R   0.809063 0.394215 0.573430 0.135306
C31   C     C_R   0.903472 0.398074 0.574393 0.120667
C32   C     C_R   0.953364 0.482643 0.487331 0.023791
C33   C     C_3   0.465915 0.104330 0.994148 -0.975371
C34   C     C_R   0.042255 0.326204 0.660267 -0.212386
C35   C     C_3   0.352062 0.862556 0.957806 -0.940979
C36   C     C_3   0.457523 0.887710 0.245155 -0.908213
C37   C     C_3   0.645758 0.623008 0.129216 -0.856334
C38   C     C_3   0.354979 0.273765 0.232500 -0.806979
C39   C     C_3   0.754274 0.293683 0.652179 -0.915242
C40   C     C_3   0.242938 0.710595 0.374360 -0.882264
C41   C     C_3   0.097095 0.700571 0.179516 -0.908459
C42   C     C_R   0.090972 0.411118 0.576533 0.145317
C43   C     C_R   0.047205 0.489766 0.488176 -0.020657
C44   C     C_R   0.097089 0.575922 0.401993 0.068270
C45   C     C_R   0.051160 0.640676 0.301891 0.199427
C46   C     C_R   0.957646 0.636437 0.306831 -0.217880
H1    H     H_    0.783319 0.628183 0.343980 0.158684
H2    H     H_    0.494431 0.201802 0.983838 0.240166
H3    H     H_    0.398933 0.108599 0.042618 0.254312
H4    H     H_    0.513096 0.052463 0.053785 0.253283
H5    H     H_    0.315912 0.929052 0.021005 0.242962
H6    H     H_    0.299972 0.796598 0.918260 0.240329
H7    H     H_    0.397505 0.806198 0.016264 0.258478
H8    H     H_    0.414334 0.801003 0.252588 0.264814
H9    H     H_    0.413725 0.955242 0.199348 0.242730
H10   H     H_    0.518215 0.872595 0.182009 0.250525
H11   H     H_    0.693140 0.552685 0.161439 0.250131
H12   H     H_    0.542699 0.183026 0.769483 0.185412
H13   H     H_    0.682900 0.688148 0.058006 0.197461
H14   H     H_    0.622978 0.679715 0.213764 0.274854
H15   H     H_    0.306449 0.195757 0.208184 0.189401
H16   H     H_    0.420716 0.233758 0.217092 0.246566
H17   H     H_    0.339065 0.293468 0.337423 0.254739
H18   H     H_    0.217458 0.327470 0.879982 0.151594
H19   H     H_    0.780431 0.200247 0.630817 0.231598
H20   H     H_    0.757994 0.312350 0.760097 0.244521
H21   H     H_    0.682917 0.286228 0.625469 0.245752
H22   H     H_    0.076063 0.265486 0.727579 0.139137
H23   H     H_    0.372114 0.783119 0.710997 0.169069
H24   H     H_    0.301059 0.731514 0.437662 0.214592
H25   H     H_    0.268502 0.700721 0.270763 0.251565
H26   H     H_    0.201291 0.793353 0.384861 0.241064
H27   H     H_    0.151336 0.641556 0.141801 0.252509
H28   H     H_    0.049683 0.708092 0.097115 0.234459
H29   H     H_    0.123090 0.796959 0.199782 0.243774
H30   H     H_    0.524371 0.114425 0.292177 0.174235
H31   H     H_    0.206863 0.343936 0.119587 0.157094
H32   H     H_    0.365039 0.349667 0.767898 0.200116
H33   H     H_    0.621944 0.602239 0.866726 0.159958
H34   H     H_    0.914543 0.254951 0.728895 0.160939
H35   H     H_    0.217766 0.351361 0.640091 0.142326
H36   H     H_    0.921952 0.689846 0.234752 0.150883
N1    N     N_R   0.499150 0.498800 0.142780 -0.119050
N2    N     N_R   0.499120 0.498720 0.857170 -0.137247
O1    O     O_R   0.500000 0.316780 0.614690 -0.648631
O2    O     O_R   0.499990 0.316750 0.385360 -0.619526
O3    O     O_R   0.367850 0.499980 0.614680 -0.642292
O4    O     O_R   0.367840 0.499960 0.385350 -0.609404
O5    O     O_R   0.500010 0.683250 0.614640 -0.609391
O6    O     O_R   0.500000 0.683220 0.385310 -0.615823
O7    O     O_R   0.632160 0.500040 0.614650 -0.611982
O8    O     O_R   0.632150 0.500020 0.385320 -0.619521
Zn1   Zn    Zn3+2 0.500010 0.500020 0.653130 0.927817
Zn2   Zn    Zn3+2 0.499990 0.499980 0.346870 0.930851

loop_
_geom_bond_atom_site_label_1
_geom_bond_atom_site_label_2
_ccdc_geom_bond_type
C28   H1    S    
C16   O6    A    
C40   H25   S    
C27   C29   S    
C7    C33   S    
C6    H12   S    
C19   C20   A    
C34   C42   A    
C7    C8    A    
C4    O3    A    
C45   C46   A    
C40   H24   S    
C12   C28   A    
C18   C24   A    
C28   C29   A    
C24   N1    A    
C9    H23   S    
C30   C31   A    
C35   H7    S    
C10   C17   A    
C33   H3    S    
C18   C19   A    
C19   H31   S    
C33   H4    S    
C25   C37   S    
C41   H28   S    
C46   H36   S    
O1    Zn1   S    
C8    C9    A    
C21   H32   S    
C27   O7    A    
C23   H34   S    
O2    Zn2   S    
C9    C10   A    
C38   H15   S    
C16   O5    A    
C21   C22   A    
C12   C32   A    
C39   H19   S    
O6    Zn2   S    
C1    O1    A    
O4    Zn2   S    
C12   C46   A    
C34   H22   S    
C6    C11   A    
C16   C17   S    
C23   C31   A    
C25   C26   A    
N1    Zn2   S    
O7    Zn1   S    
C8    C35   S    
C14   H30   S    
C20   H18   S    
C43   C44   A    
C29   C30   A    
C36   H10   S    
C41   H29   S    
C31   C32   A    
C23   C34   A    
O8    Zn2   S    
C27   O8    A    
C37   H13   S    
C5    C44   A    
C35   H5    S    
C39   H20   S    
C22   C24   A    
C1    C13   S    
C42   C43   A    
C3    C4    S    
C15   C36   S    
C44   C45   A    
C38   H17   S    
C1    O2    A    
C15   C17   A    
C26   N2    A    
C40   H26   S    
C39   H21   S    
C3    C5    A    
C6    C7    A    
C4    O4    A    
C26   H33   S    
C2    C3    A    
C18   C38   S    
C36   H9    S    
C11   C13   A    
C2    C42   A    
O3    Zn1   S    
C32   C43   A    
C30   C39   S    
N2    Zn1   S    
O5    Zn1   S    
C37   H14   S    
C36   H8    S    
C10   C11   A    
C41   H27   S    
C20   C21   A    
C5    C40   S    
C35   H6    S    
C25   N1    A    
C33   H2    S    
C41   C45   S    
C14   C15   A    
C2    H35   S    
C13   C14   A    
C37   H11   S    
C22   N2    A    
C38   H16   S    
