data_mof_unit_54713.cif
_audit_creation_date              2012-10-26T17:13:11-0400
_audit_creation_method            fapswitch 2.2
_symmetry_space_group_name_H-M    P1
_symmetry_Int_Tables_number       1
_space_group_crystal_system       triclinic
_cell_length_a                    16.758545
_cell_length_b                    16.782518
_cell_length_c                    16.789334
_cell_angle_alpha                 67.59149
_cell_angle_beta                  67.787975
_cell_angle_gamma                 67.630095
_cell_volume                      3884.17249131

loop_
_atom_site_label
_atom_site_type_symbol
_atom_type_description
_atom_site_fract_x
_atom_site_fract_y
_atom_site_fract_z
_atom_type_partial_charge
C1    C     C_R   0.300800 0.025369 0.430059 -0.005138
C2    C     C_R   0.673871 0.061260 0.543289 -0.001125
C3    C     C_R   0.954535 0.453776 0.322731 -0.003329
C4    C     C_R   0.048295 0.545778 0.676711 -0.002004
C5    C     C_R   0.454582 0.322963 0.950668 -0.007983
C6    C     C_R   0.574589 0.691540 0.985117 -0.007371
C7    C     C_R   0.542919 0.060827 0.674327 -0.004169
C8    C     C_R   0.430936 0.023733 0.301450 -0.054449
C9    C     C_R   0.678979 0.548459 0.037953 0.002552
C10   C     C_R   0.327451 0.457450 0.939186 0.009483
C11   C     C_R   0.049047 0.676462 0.545426 -0.001129
C12   C     C_R   0.952621 0.323375 0.454315 0.001815
C13   C     C_R   0.437119 0.039708 0.437740 0.042269
C14   C     C_R   0.534423 0.053374 0.534884 0.040833
C15   C     C_R   0.979780 0.456074 0.456439 0.040022
C16   C     C_R   0.023731 0.542806 0.543019 0.039520
C17   C     C_R   0.463005 0.461305 0.960027 0.040572
C18   C     C_R   0.556862 0.552098 0.988563 0.042527
C19   C     C_R   0.030669 0.827775 0.563758 0.824349
C20   C     C_R   0.969511 0.172323 0.436122 0.826172
C21   C     C_R   0.827833 0.563593 0.030564 0.817182
C22   C     C_R   0.172487 0.436656 0.968313 0.827175
C23   C     C_R   0.563624 0.031547 0.827723 0.834366
C24   C     C_R   0.431706 0.983243 0.169321 0.795711
C25   C     C_R   0.435893 0.172148 0.969850 0.806041
C26   C     C_R   0.568946 0.830229 0.017500 0.842843
C27   C     C_R   0.969953 0.436052 0.172174 0.820574
C28   C     C_R   0.030601 0.563878 0.827745 0.822155
C29   C     C_R   0.169023 0.984017 0.431485 0.827781
C30   C     C_R   0.827698 0.031575 0.563622 0.825192
C31   C     C_R   0.390865 0.026033 0.391087 -0.015662
C32   C     C_R   0.584507 0.056164 0.584958 -0.034671
C33   C     C_R   0.963711 0.410418 0.410592 -0.036782
C34   C     C_R   0.039160 0.588913 0.588901 -0.035381
C35   C     C_R   0.414011 0.413460 0.951832 -0.033680
C36   C     C_R   0.602826 0.597221 0.004917 -0.037507
C37   C     C_R   0.261817 0.991504 0.391312 -0.127485
C38   C     C_R   0.726845 0.055546 0.595925 -0.132950
C39   C     C_R   0.950051 0.403881 0.272520 -0.133011
C40   C     C_R   0.051534 0.596175 0.727198 -0.133060
C41   C     C_R   0.403482 0.272434 0.949011 -0.129966
C42   C     C_R   0.610025 0.734645 0.017750 -0.120862
C43   C     C_R   0.595775 0.055332 0.727051 -0.128527
C44   C     C_R   0.391770 0.990450 0.262248 -0.143075
C45   C     C_R   0.728070 0.596678 0.046668 -0.134000
C46   C     C_R   0.273681 0.404987 0.945033 -0.132956
C47   C     C_R   0.051651 0.727241 0.595837 -0.137262
C48   C     C_R   0.949194 0.272938 0.403887 -0.124105
C49   C     C_R   0.447905 0.082416 0.703976 0.203379
C50   C     C_R   0.506773 0.058207 0.255053 0.217019
C51   C     C_R   0.063232 0.707160 0.451220 0.210200
C52   C     C_R   0.936888 0.293536 0.548833 0.200688
C53   C     C_R   0.703354 0.453563 0.061451 0.210008
C54   C     C_R   0.303432 0.552694 0.908651 0.175447
C55   C     C_R   0.253406 0.063174 0.503238 0.199930
C56   C     C_R   0.703285 0.083564 0.448407 0.206076
C57   C     C_R   0.548113 0.289405 0.941608 0.217750
C58   C     C_R   0.512834 0.739000 0.932639 0.190639
C59   C     C_R   0.942408 0.547769 0.291298 0.217891
C60   C     C_R   0.061124 0.451673 0.707984 0.217828
C61   C     C_R   0.314121 0.961975 0.314382 0.086405
C62   C     C_R   0.683469 0.065279 0.683567 0.085895
C63   C     C_R   0.936832 0.317789 0.317234 0.078596
C64   C     C_R   0.063885 0.682930 0.682379 0.075583
C65   C     C_R   0.316878 0.317164 0.936205 0.079563
C66   C     C_R   0.683800 0.684288 0.054174 0.077030
C67   C     C_R   0.660363 0.067073 0.400172 -0.032104
C68   C     C_R   0.301084 0.059483 0.559408 -0.041504
C69   C     C_R   0.027653 0.410751 0.672052 -0.037837
C70   C     C_R   0.975557 0.588397 0.327643 -0.037420
C71   C     C_R   0.456294 0.695288 0.930054 -0.034778
C72   C     C_R   0.588096 0.326376 0.974398 -0.034221
C73   C     C_R   0.561554 0.052933 0.304163 0.009277
C74   C     C_R   0.399578 0.067438 0.660117 -0.029383
C75   C     C_R   0.352390 0.602447 0.915865 -0.027392
C76   C     C_R   0.667991 0.410094 0.030162 -0.031027
C77   C     C_R   0.968005 0.330289 0.591430 -0.042770
C78   C     C_R   0.032200 0.669975 0.409291 -0.036375
C79   C     C_R   0.698390 0.069523 0.308206 0.284685
C80   C     C_R   0.257751 0.069980 0.646566 0.282170
C81   C     C_R   0.011291 0.325865 0.717964 0.298826
C82   C     C_R   0.992878 0.672772 0.281288 0.296529
C83   C     C_R   0.377748 0.743535 0.901178 0.299658
C84   C     C_R   0.669482 0.278401 0.997971 0.309132
C85   C     C_R   0.650336 0.057500 0.262029 0.317533
C86   C     C_R   0.308195 0.068459 0.698759 0.307224
C87   C     C_R   0.328515 0.697923 0.889866 0.296003
C88   C     C_R   0.709914 0.320616 0.025208 0.291017
C89   C     C_R   0.975789 0.288643 0.680216 0.295783
C90   C     C_R   0.017839 0.715074 0.323448 0.298142
C91   C     C_R   0.525541 0.045875 0.396153 -0.071439
C92   C     C_R   0.443309 0.054012 0.574385 -0.058229
C93   C     C_R   0.988321 0.413233 0.544456 -0.059565
C94   C     C_R   0.014966 0.585617 0.455155 -0.057807
C95   C     C_R   0.429926 0.554782 0.947034 -0.057214
C96   C     C_R   0.590115 0.458913 0.000225 -0.060582
C97   C     C_R   0.574690 0.052504 0.444447 -0.060472
C98   C     C_R   0.394451 0.048037 0.525260 -0.057236
C99   C     C_R   0.479949 0.600815 0.956604 -0.056269
C100  C     C_R   0.546459 0.415063 0.979803 -0.058569
C101  C     C_R   0.011943 0.456003 0.587061 -0.060637
C102  C     C_R   0.991124 0.543049 0.412657 -0.058594
Cu1   Cu    Cu3+1 0.995180 0.995180 0.424630 1.025533
Cu2   Cu    Cu3+1 0.004820 0.004820 0.575370 1.018765
Cu3   Cu    Cu3+1 0.995180 0.424630 0.995180 1.023969
Cu4   Cu    Cu3+1 0.004820 0.575370 0.004820 1.013260
Cu5   Cu    Cu3+1 0.424630 0.995180 0.995180 1.015789
Cu6   Cu    Cu3+1 0.575370 0.004820 0.004820 1.015080
O1    O     O_R   0.124540 0.978640 0.385460 -0.557729
O2    O     O_R   0.875460 0.021360 0.614540 -0.560663
O3    O     O_R   0.978640 0.385460 0.124540 -0.558414
O4    O     O_R   0.021360 0.614540 0.875460 -0.559896
O5    O     O_R   0.385460 0.124540 0.978640 -0.561040
O6    O     O_R   0.614540 0.875460 0.021360 -0.543439
O7    O     O_R   0.614540 0.021360 0.875460 -0.561128
O8    O     O_R   0.385460 0.978640 0.124540 -0.546518
O9    O     O_R   0.875460 0.614540 0.021360 -0.563721
O10   O     O_R   0.124540 0.385460 0.978640 -0.560865
O11   O     O_R   0.021360 0.875460 0.614540 -0.550571
O12   O     O_R   0.978640 0.124540 0.385460 -0.563262
O13   O     O_R   0.013780 0.867370 0.487190 -0.573432
O14   O     O_R   0.986220 0.132630 0.512810 -0.596266
O15   O     O_R   0.867370 0.487190 0.013780 -0.576216
O16   O     O_R   0.132630 0.512810 0.986220 -0.579698
O17   O     O_R   0.487190 0.013780 0.867370 -0.592403
O18   O     O_R   0.512810 0.986220 0.132630 -0.594638
O19   O     O_R   0.512810 0.132630 0.986220 -0.601100
O20   O     O_R   0.487190 0.867370 0.013780 -0.582956
O21   O     O_R   0.986220 0.512810 0.132630 -0.576153
O22   O     O_R   0.013780 0.487190 0.867370 -0.576425
O23   O     O_R   0.132630 0.986220 0.512810 -0.586428
O24   O     O_R   0.867370 0.013780 0.487190 -0.578352
N1    N     N_3   0.288961 0.902775 0.290018 -0.514340
H1    H     H_    0.347142 0.859205 0.260987 0.205860
H2    H     H_    0.262321 0.857941 0.348643 0.206928
N2    N     N_3   0.725519 0.093019 0.725465 -0.509364
H3    H     H_    0.675809 0.137000 0.761173 0.219211
H4    H     H_    0.761087 0.137125 0.675719 0.217366
N3    N     N_3   0.904941 0.278213 0.276834 -0.508235
H5    H     H_    0.860502 0.244407 0.327923 0.215904
H6    H     H_    0.860529 0.329289 0.242088 0.214793
N4    N     N_3   0.093653 0.724488 0.722777 -0.500168
H7    H     H_    0.139119 0.758455 0.672663 0.213559
H8    H     H_    0.136471 0.673929 0.758962 0.219288
N5    N     N_3   0.275690 0.275990 0.906877 -0.508467
H9    H     H_    0.326300 0.242894 0.861645 0.217298
H10   H     H_    0.239159 0.326054 0.863541 0.217445
N6    N     N_3   0.711381 0.721140 0.101171 -0.515239
H11   H     H_    0.754297 0.670521 0.137882 0.223471
H12   H     H_    0.654943 0.742047 0.151171 0.204346
O25   O     O_3   0.271035 0.061444 0.789077 -0.748817
H13   H     H_    0.224695 0.028926 0.813210 0.346666
O26   O     O_3   0.690899 0.042591 0.178543 -0.741094
H14   H     H_    0.756064 0.014841 0.171590 0.338536
O27   O     O_3   0.021126 0.803008 0.284854 -0.750292
H15   H     H_    0.979415 0.834877 0.246520 0.345960
O28   O     O_3   0.952127 0.209878 0.728392 -0.755385
H16   H     H_    0.924784 0.210022 0.792025 0.339225
O29   O     O_3   0.794094 0.278381 0.038677 -0.760331
H17   H     H_    0.830862 0.244775 0.993439 0.336616
O30   O     O_3   0.256969 0.746955 0.853621 -0.765156
H18   H     H_    0.270003 0.802733 0.808912 0.343221
O31   O     O_3   0.167489 0.076087 0.682146 -0.741780
H19   H     H_    0.141423 0.113947 0.723812 0.340069
O32   O     O_3   0.783449 0.080064 0.265026 -0.752559
H20   H     H_    0.786700 0.113011 0.201242 0.347698
O33   O     O_3   0.704627 0.188790 0.000238 -0.744693
H21   H     H_    0.747106 0.158569 0.037541 0.358478
O34   O     O_3   0.345614 0.834792 0.891000 -0.749835
H22   H     H_    0.279252 0.852596 0.906258 0.348077
O35   O     O_3   0.992345 0.709513 0.192505 -0.753644
H23   H     H_    0.035214 0.746450 0.161033 0.342881
O36   O     O_3   0.024323 0.282836 0.802198 -0.754897
H24   H     H_    0.041432 0.217198 0.811965 0.334710
N7    N     N_3   0.402068 0.143862 0.758128 -0.594370
H25   H     H_    0.360084 0.115908 0.818097 0.305931
H26   H     H_    0.362908 0.201910 0.723069 0.206004
N8    N     N_3   0.508018 0.127690 0.171480 -0.547987
H27   H     H_    0.448176 0.147006 0.154357 0.203188
H28   H     H_    0.562044 0.106270 0.120357 0.323893
N9    N     N_3   0.131009 0.753983 0.398843 -0.582283
H29   H     H_    0.105453 0.816318 0.357825 0.308579
H30   H     H_    0.182282 0.715628 0.357970 0.215993
N10   N     N_3   0.869059 0.246794 0.600145 -0.589210
H31   H     H_    0.817904 0.284202 0.641987 0.217744
H32   H     H_    0.895159 0.183643 0.639666 0.301960
N11   N     N_3   0.746300 0.403958 0.132598 -0.594243
H33   H     H_    0.809345 0.362258 0.110226 0.302293
H34   H     H_    0.706606 0.364137 0.183594 0.217512
N12   N     N_3   0.241925 0.595317 0.854647 -0.589644
H35   H     H_    0.274731 0.627968 0.790519 0.233686
H36   H     H_    0.186288 0.640654 0.884062 0.301688
N13   N     N_3   0.167922 0.128515 0.500845 -0.557171
H37   H     H_    0.173238 0.190734 0.494993 0.207982
H38   H     H_    0.118890 0.111539 0.559688 0.316991
N14   N     N_3   0.756958 0.145569 0.403129 -0.597947
H39   H     H_    0.722313 0.203028 0.363040 0.213903
H40   H     H_    0.817978 0.117367 0.362548 0.305739
N15   N     N_3   0.603128 0.243476 0.873761 -0.585747
H41   H     H_    0.645470 0.182248 0.899552 0.299437
H42   H     H_    0.643204 0.283264 0.823359 0.203843
N16   N     N_3   0.525612 0.821032 0.865570 -0.571560
H43   H     H_    0.539114 0.812997 0.802546 0.217950
H44   H     H_    0.468015 0.873742 0.874670 0.318230
N17   N     N_3   0.873655 0.601894 0.245755 -0.587485
H45   H     H_    0.898663 0.643630 0.183888 0.302303
H46   H     H_    0.823344 0.642377 0.285086 0.212743
N18   N     N_3   0.129857 0.398225 0.753616 -0.592903
H47   H     H_    0.179343 0.355911 0.715731 0.210664
H48   H     H_    0.104366 0.358542 0.816695 0.301928

loop_
_geom_bond_atom_site_label_1
_geom_bond_atom_site_label_2
_ccdc_geom_bond_type
C83   O34   S    
C68   C80   A    
Cu4   O21   S    
C83   C87   A    
O35   H23   S    
C9    C45   A    
N12   H35   S    
C18   C96   A    
O34   H22   S    
C6    C58   A    
C11   C47   A    
Cu1   O12   S    
C79   C85   A    
C12   C48   A    
N8    H27   S    
C75   C95   A    
N7    H26   S    
Cu4   O4    S    
O36   H24   S    
C78   C90   A    
C77   C89   A    
O32   H20   S    
C67   C97   A    
N16   H44   S    
C30   O2    A    
Cu6   O7    S    
C29   O1    A    
C50   N8    S    
N6    H12   S    
Cu5   O20   S    
C66   N6    S    
O29   H17   S    
C72   C100  A    
N10   H32   S    
C19   C47   S    
C58   C71   A    
Cu2   O14   S    
C3    C33   A    
C95   C99   A    
C74   C92   A    
C5    C35   A    
C1    C31   A    
C23   C43   S    
N10   H31   S    
Cu3   O15   S    
C90   O27   S    
C2    C32   A    
C88   O29   S    
Cu6   O6    S    
C13   C98   A    
Cu5   O5    S    
C21   O9    A    
C12   C52   A    
C56   N14   S    
O28   H16   S    
Cu6   O19   S    
C4    C40   A    
C27   C39   S    
N18   H47   S    
N13   H38   S    
Cu2   O23   S    
C10   C46   A    
C9    C36   A    
C80   C86   A    
Cu5   Cu6   S    
C5    C41   A    
C43   C62   A    
C10   C35   A    
C17   C95   A    
C7    C43   A    
C54   N12   S    
Cu1   O24   S    
C76   C88   A    
C20   O14   A    
C1    C37   A    
C23   O17   A    
Cu2   O11   S    
C81   C89   A    
C59   N17   S    
N9    H30   S    
Cu3   O3    S    
C19   O11   A    
N15   H41   S    
C15   C102  A    
C57   N15   S    
C24   O18   A    
C10   C54   A    
N5    H10   S    
N5    H9    S    
C21   C45   S    
N17   H46   S    
C4    C34   A    
O27   H15   S    
N16   H43   S    
C26   O20   A    
C61   N1    S    
C52   N10   S    
C67   C79   A    
N6    H11   S    
C7    C49   A    
C46   C65   A    
N14   H40   S    
C50   C73   A    
C25   C41   S    
O33   H21   S    
C3    C39   A    
C55   C68   A    
C60   N18   S    
C48   C63   A    
C41   C65   A    
N9    H29   S    
C71   C99   A    
C28   O4    A    
C45   C66   A    
C81   O36   S    
C21   O15   A    
Cu5   O17   S    
C8    C44   A    
C26   O6    A    
C80   O31   S    
C25   O5    A    
C2    C38   A    
N8    H28   S    
N7    H25   S    
O25   H13   S    
C16   C34   A    
C4    C60   A    
C70   C102  A    
C53   N11   S    
C91   C97   A    
C85   O26   S    
C79   O32   S    
C22   O16   A    
C73   C91   A    
C72   C84   A    
C2    C56   A    
C69   C81   A    
N2    H4    S    
C55   N13   S    
C14   C92   A    
C24   O8    A    
Cu4   O9    S    
N1    H1    S    
C24   C44   S    
N4    H8    S    
Cu3   O10   S    
C53   C76   A    
C9    C53   A    
C18   C99   A    
C93   C101  A    
C52   C77   A    
Cu1   O13   S    
C8    C50   A    
C20   O12   A    
C26   C42   S    
C14   C97   A    
N1    H2    S    
C73   C85   A    
C75   C87   A    
C22   O10   A    
N17   H45   S    
C82   O35   S    
C19   O13   A    
N12   H36   S    
C7    C32   A    
C20   C48   S    
C22   C46   S    
C49   C74   A    
C8    C31   A    
C63   N3    S    
C13   C31   A    
C11   C34   A    
C42   C66   A    
C84   C88   A    
C14   C32   A    
N14   H39   S    
C51   N9    S    
C40   C64   A    
C15   C93   A    
C37   C61   A    
N3    H5    S    
C47   C64   A    
C89   O28   S    
Cu3   O22   S    
C69   C101  A    
C44   C61   A    
C74   C86   A    
C56   C67   A    
C39   C63   A    
Cu3   Cu4   S    
C16   C94   A    
C82   C90   A    
C5    C57   A    
Cu1   O1    S    
C12   C33   A    
C51   C78   A    
N11   H33   S    
C87   O30   S    
C84   O33   S    
O30   H18   S    
C86   O25   S    
C76   C96   A    
Cu2   O2    S    
N3    H6    S    
C18   C36   A    
C29   O23   A    
C64   N4    S    
C60   C69   A    
C78   C94   A    
C27   O21   A    
C96   C100  A    
C77   C93   A    
C23   O7    A    
C6    C36   A    
C1    C55   A    
C28   O22   A    
C62   N2    S    
C57   C72   A    
C25   O19   A    
C70   C82   A    
C17   C100  A    
C68   C98   A    
Cu5   O8    S    
N11   H34   S    
O31   H19   S    
C11   C51   A    
C92   C98   A    
C59   C70   A    
C27   O3    A    
C54   C75   A    
C30   O24   A    
C16   C101  A    
C94   C102  A    
N18   H48   S    
N13   H37   S    
C6    C42   A    
C29   C37   S    
Cu1   Cu2   S    
N15   H42   S    
Cu4   O16   S    
C28   C40   S    
N4    H7    S    
N2    H3    S    
C71   C83   A    
C17   C35   A    
C30   C38   S    
Cu6   O18   S    
O26   H14   S    
C65   N5    S    
C15   C33   A    
C13   C91   A    
C58   N16   S    
C38   C62   A    
C49   N7    S    
C3    C59   A    
