data_mof_unit_47983.cif
_audit_creation_date              2012-12-11T15:15:11-0500
_audit_creation_method            fapswitch 2.2
_symmetry_space_group_name_H-M    P1
_symmetry_Int_Tables_number       1
_space_group_crystal_system       triclinic
_cell_length_a                    18.855996
_cell_length_b                    18.848084
_cell_length_c                    20.388671
_cell_angle_alpha                 107.010889
_cell_angle_beta                  106.5168
_cell_angle_gamma                 111.253469
_cell_volume                      5805.43689634

loop_
_atom_site_label
_atom_site_type_symbol
_atom_type_description
_atom_site_fract_x
_atom_site_fract_y
_atom_site_fract_z
_atom_type_partial_charge
C1    C     C_R   0.088765 0.088303 0.355618 -0.153374
C2    C     C_R   0.245299 0.070054 0.545502 -0.127047
C3    C     C_R   0.154410 0.220257 0.711365 -0.148883
C4    C     C_R   0.764145 0.923810 0.508954 0.308061
C5    C     C_R   0.998092 0.763143 0.430658 -0.147449
C6    C     C_R   0.231731 0.269791 0.714921 0.070308
C7    C     C_R   0.946307 0.709153 0.450863 0.087802
C8    C     C_R   0.253024 0.997609 0.536373 0.067795
C9    C     C_R   0.012948 0.977660 0.726292 0.034344
C10   C     C_R   0.860761 0.569310 0.445721 -0.259235
C11   C     C_R   0.915078 0.617149 0.421753 0.113505
C12   C     C_R   0.757222 0.992210 0.550593 0.040711
C13   C     C_R   0.945462 0.578151 0.375165 -0.261416
C14   C     C_R   0.932296 0.496681 0.361946 0.142317
C15   C     C_R   0.886095 0.452828 0.393947 0.027487
C16   C     C_R   0.840046 0.822010 0.282199 -0.121810
C17   C     C_R   0.846661 0.487508 0.432704 0.141699
C18   C     C_R   0.971515 0.461916 0.323655 -0.207000
C19   C     C_R   0.972597 0.388558 0.324211 -0.205034
C20   C     C_R   0.934384 0.349599 0.362992 0.141084
C21   C     C_R   0.886914 0.378916 0.394250 0.026809
C22   C     C_R   0.848004 0.339863 0.433063 0.139881
C23   C     C_R   0.758823 0.802856 0.274767 0.030764
C24   C     C_R   0.801104 0.369490 0.464164 -0.203841
C25   C     C_R   0.800599 0.443257 0.464141 -0.205601
C26   C     C_R   0.950799 0.288473 0.378524 -0.257055
C27   C     C_R   0.922838 0.259082 0.427093 0.115711
C28   C     C_R   0.948106 0.194854 0.519799 -0.126414
C29   C     C_R   0.864616 0.278432 0.447608 -0.256333
C30   C     C_R   0.327703 0.915414 0.554113 -0.230177
C31   C     C_R   0.329380 0.993927 0.575157 0.112409
C32   C     C_R   0.406701 0.068745 0.624769 -0.232343
C33   C     C_R   0.482663 0.066343 0.640351 0.098742
C34   C     C_R   0.963132 0.218998 0.464799 0.072155
C35   C     C_R   0.480299 0.988404 0.606321 0.028740
C36   C     C_R   0.402582 0.912265 0.566679 0.097580
C37   C     C_R   0.560271 0.141471 0.682566 -0.246901
C38   C     C_R   0.635240 0.141448 0.684603 0.294279
C39   C     C_R   0.631213 0.064523 0.641624 0.102498
C40   C     C_R   0.761892 0.816733 0.346578 -0.128768
C41   C     C_R   0.553767 0.987385 0.605014 -0.064782
C42   C     C_R   0.547471 0.910243 0.560303 0.098857
C43   C     C_R   0.471227 0.832671 0.527729 0.293538
C44   C     C_R   0.399570 0.834699 0.532503 -0.246127
C45   C     C_R   0.231546 0.227499 0.646757 -0.144668
C46   C     C_R   0.700600 0.063328 0.629673 -0.242775
C47   C     C_R   0.691225 0.989215 0.577035 0.114520
C48   C     C_R   0.614890 0.913495 0.543736 -0.253148
C49   C     C_R   0.292287 0.357965 0.771925 0.090026
C50   C     C_R   0.303270 0.382856 0.847411 -0.227509
C51   C     C_R   0.362242 0.465818 0.903495 0.321757
C52   C     C_R   0.026007 0.201319 0.454953 -0.132342
C53   C     C_R   0.408996 0.525660 0.882291 0.166554
C54   C     C_R   0.397274 0.500376 0.806584 -0.234255
C55   C     C_R   0.339294 0.417321 0.751721 -0.177407
C56   C     C_R   0.920792 0.756408 0.494999 -0.144277
C57   C     C_R   0.627534 0.761767 0.075763 -0.163851
C58   C     C_R   0.697265 0.792045 0.143932 -0.183584
C59   C     C_R   0.603578 0.745573 0.200851 -0.171834
C60   C     C_R   0.533896 0.715788 0.132745 -0.178520
C61   C     C_R   0.545367 0.719438 0.068694 0.220334
C62   C     C_2   0.480329 0.609652 0.939507 -0.208419
C63   C     C_2   0.472560 0.663189 0.993358 -0.217109
C64   C     C_R   0.829807 0.064708 0.568965 -0.218626
C65   C     C_R   0.685788 0.780545 0.205984 0.143534
C66   C     C_R   0.117324 0.028490 0.243787 0.043432
C67   C     C_R   0.175298 0.928813 0.480817 -0.130459
C68   C     C_R   0.138787 0.965833 0.216204 -0.236637
C69   C     C_R   0.178536 0.969023 0.168011 0.265219
C70   C     C_R   0.195217 0.035293 0.145460 0.118926
C71   C     C_R   0.181225 0.103106 0.179397 0.278236
C72   C     C_R   0.142318 0.098681 0.228221 -0.240985
C73   C     C_R   0.157778 0.036920 0.927168 -0.143392
C74   C     C_R   0.124575 0.041138 0.858962 -0.186497
C75   C     C_R   0.014034 0.895143 0.802233 -0.169415
C76   C     C_R   0.020287 0.948158 0.291780 -0.151519
C77   C     C_R   0.047255 0.890859 0.870443 -0.187681
C78   C     C_R   0.029241 0.052243 0.718561 -0.121650
C79   C     C_R   0.118007 0.962180 0.934129 0.218747
C80   C     C_2   0.204557 0.023087 0.074229 -0.194245
C81   C     C_2   0.137836 0.960409 0.008865 -0.211740
C82   C     C_R   0.051020 0.971125 0.796602 0.142244
C83   C     C_R   0.070556 0.021909 0.290372 0.096495
C84   C     C_3   0.729235 0.837420 0.507521 -1.085923
C85   C     C_3   0.716943 0.224626 0.728524 -1.036078
C86   C     C_3   0.463890 0.747858 0.485672 -1.035297
C87   C     C_3   0.377883 0.486444 0.985325 -1.031467
C88   C     C_3   0.199927 0.177822 0.160832 -1.016418
C89   C     C_R   0.959881 0.910706 0.653707 -0.117652
C90   C     C_3   0.198825 0.898945 0.139433 -1.012750
H1    H     H_    0.138573 0.153081 0.379496 0.095527
H2    H     H_    0.992088 0.270665 0.358774 0.117951
H3    H     H_    0.838475 0.252549 0.481333 0.119276
H4    H     H_    0.769861 0.339171 0.493151 0.131491
H5    H     H_    0.768795 0.468517 0.492930 0.130421
H6    H     H_    0.268497 0.856608 0.520375 0.115851
H7    H     H_    0.408788 0.129603 0.645589 0.116904
H8    H     H_    0.561753 0.200902 0.710601 0.139550
H9    H     H_    0.760010 0.121324 0.656883 0.136659
H10   H     H_    0.861432 0.820213 0.238274 0.095802
H11   H     H_    0.604476 0.857918 0.499601 0.164932
H12   H     H_    0.068278 0.116396 0.763296 0.092516
H13   H     H_    0.339734 0.776231 0.504197 0.138653
H14   H     H_    0.267802 0.336484 0.863099 0.124555
H15   H     H_    0.759758 0.821737 0.146770 0.116358
H16   H     H_    0.592348 0.736615 0.247713 0.112082
H17   H     H_    0.409869 0.650275 0.988708 0.142939
H18   H     H_    0.434400 0.544838 0.790227 0.138135
H19   H     H_    0.637664 0.766832 0.027256 0.117436
H20   H     H_    0.331361 0.399842 0.693586 0.122706
H21   H     H_    0.903102 0.198530 0.541546 0.097964
H22   H     H_    0.542499 0.620698 0.943737 0.136369
H23   H     H_    0.936381 0.843844 0.637919 0.095429
H24   H     H_    0.470849 0.683215 0.128226 0.119111
H25   H     H_    0.124047 0.913654 0.231530 0.140041
H26   H     H_    0.155853 0.100012 0.855882 0.114968
H27   H     H_    0.957432 0.839967 0.755157 0.112365
H28   H     H_    0.087832 0.911480 0.012126 0.146432
H29   H     H_    0.211600 0.093910 0.974822 0.109120
H30   H     H_    0.127882 0.148466 0.251315 0.139324
H31   H     H_    0.711197 0.812717 0.362320 0.113806
H32   H     H_    0.256569 0.072977 0.074509 0.131756
H33   H     H_    0.015052 0.832803 0.874567 0.114821
H34   H     H_    0.127685 0.240694 0.748726 0.095156
H35   H     H_    0.052986 0.210923 0.416196 0.096135
H36   H     H_    0.852617 0.128470 0.610257 0.109884
H37   H     H_    0.005780 0.884738 0.256485 0.090649
H38   H     H_    0.275867 0.253485 0.625225 0.088153
H39   H     H_    0.870437 0.732217 0.511033 0.087292
H40   H     H_    0.157482 0.862477 0.459133 0.095793
H41   H     H_    0.293222 0.134800 0.584084 0.096038
H42   H     H_    0.720471 0.840896 0.559736 0.263456
H43   H     H_    0.668602 0.791739 0.455847 0.240534
H44   H     H_    0.773914 0.812307 0.505940 0.259427
H45   H     H_    0.018872 0.745587 0.387273 0.087094
H46   H     H_    0.764633 0.219061 0.770399 0.253414
H47   H     H_    0.741171 0.241856 0.688666 0.247560
H48   H     H_    0.708330 0.277204 0.760585 0.254379
H49   H     H_    0.401965 0.694194 0.470241 0.253869
H50   H     H_    0.469689 0.743092 0.432062 0.247393
H51   H     H_    0.514411 0.740613 0.522306 0.256903
H52   H     H_    0.344325 0.428714 0.991796 0.247593
H53   H     H_    0.446495 0.515115 0.022150 0.265125
H54   H     H_    0.354494 0.530632 0.005629 0.244220
H55   H     H_    0.235367 0.180378 0.125899 0.245405
H56   H     H_    0.834536 0.597265 0.479593 0.118448
H57   H     H_    0.139619 0.175338 0.129608 0.256049
H58   H     H_    0.238916 0.237726 0.214628 0.249231
H59   H     H_    0.237152 0.893862 0.188674 0.252606
H60   H     H_    0.139182 0.837694 0.102590 0.247055
H61   H     H_    0.235895 0.910612 0.106479 0.264790
H62   H     H_    0.985116 0.612756 0.353934 0.116635
H63   H     H_    0.006052 0.494420 0.297739 0.129612
H64   H     H_    0.008119 0.365780 0.298905 0.130214
N1    N     N_R   0.052580 0.056040 0.395500 -0.038157
N2    N     N_R   0.890210 0.849400 0.355780 -0.039293
N3    N     N_R   0.997110 0.161140 0.539580 -0.039322
N4    N     N_R   0.841950 0.845400 0.395490 -0.037907
N5    N     N_R   0.045360 0.165140 0.499870 -0.041150
N6    N     N_R   0.877490 0.041510 0.539580 -0.050352
N7    N     N_R   0.009820 0.969030 0.355780 -0.038667
N8    N     N_R   0.158050 0.154600 0.604510 -0.037839
N9    N     N_R   0.954640 0.834860 0.500130 -0.039530
N10   N     N_R   0.122510 0.958490 0.460420 -0.040902
N11   N     N_R   0.990180 0.030970 0.644220 -0.037193
N12   N     N_R   0.947420 0.943960 0.604500 -0.037085
N13   N     N_R   0.165270 0.045500 0.500140 -0.040179
N14   N     N_R   0.109790 0.150600 0.644220 -0.036768
N15   N     N_R   0.002890 0.838860 0.460420 -0.038213
N16   N     N_R   0.834730 0.954500 0.499860 -0.053507
Ni1   Ni    Ni4+2 0.104370 0.104380 0.500010 0.211481
Ni2   Ni    Ni4+2 0.895630 0.895620 0.499990 0.211617
Ni3   Ni    Ni4+2 0.006300 0.904810 0.408930 0.209162
Ni4   Ni    Ni4+2 0.993700 0.095190 0.591070 0.213059

loop_
_geom_bond_atom_site_label_1
_geom_bond_atom_site_label_2
_ccdc_geom_bond_type
C66   C68   A    
C46   H9    S    
C50   H14   S    
N11   N12   A    
C73   H29   S    
C6    C45   A    
C80   C81   D    
C27   C29   A    
C41   C42   A    
C14   C18   A    
C60   H24   S    
C35   C36   A    
C75   H27   S    
C90   H60   S    
C3    C6    A    
C76   N7    A    
C39   C41   A    
C80   H32   S    
C53   C54   A    
N1    N7    A    
N12   Ni2   S    
C40   H31   S    
C56   N9    A    
C84   H44   S    
C26   C27   A    
C62   C63   D    
C4    N16   A    
C5    H45   S    
C40   N4    A    
C22   C29   A    
N14   Ni4   S    
C12   C47   S    
C30   C31   A    
C12   C64   A    
C78   H12   S    
C45   H38   S    
C26   H2    S    
C23   C40   A    
C32   H7    S    
C61   C63   S    
C18   C19   A    
C73   C74   A    
C1    N1    A    
C30   H6    S    
C66   C83   S    
C46   C47   A    
C67   N10   A    
C57   H19   S    
N8    Ni1   S    
C47   C48   A    
C66   C72   A    
C68   C69   A    
C16   N2    A    
C88   H55   S    
C70   C71   A    
C87   H54   S    
C4    C12   A    
C56   H39   S    
C86   H50   S    
C9    C82   S    
C52   N5    A    
C28   C34   A    
C59   C60   A    
C1    H1    S    
C13   C14   A    
C43   C86   S    
C64   N6    A    
C27   C34   S    
C7    C56   A    
C74   C82   A    
C90   H59   S    
C35   C41   A    
C76   C83   A    
C37   H8    S    
C44   H13   S    
C3    N14   A    
C2    H41   S    
C77   C79   A    
C28   H21   S    
C73   C79   A    
N2    Ni3   S    
C89   H23   S    
C84   H43   S    
C59   H16   S    
C38   C85   S    
C70   C80   S    
C24   C25   A    
C51   C87   S    
C5    C7    A    
C16   H10   S    
N13   Ni1   S    
C85   H46   S    
N11   Ni4   S    
C49   C55   A    
C81   H28   S    
C84   H42   S    
C33   C37   A    
C60   C61   A    
C51   C53   A    
C7    C11   S    
C45   N8    A    
C37   C38   A    
C77   H33   S    
C24   H4    S    
N7    Ni3   S    
C53   C62   S    
C58   C65   A    
C31   C32   A    
C4    C84   S    
C74   H26   S    
C72   H30   S    
C10   C17   A    
C50   C51   A    
C88   H58   S    
N10   Ni3   S    
C42   C48   A    
N9    Ni2   S    
C75   C77   A    
C18   H63   S    
N5    Ni1   S    
C86   H49   S    
C10   H56   S    
C39   C46   A    
N8    N14   A    
C25   H5    S    
C16   C23   A    
C64   H36   S    
C43   C44   A    
C22   C24   A    
C36   C44   A    
C67   H40   S    
C42   C43   A    
C9    C89   A    
C69   C90   S    
C85   H47   S    
C3    H34   S    
C79   C81   S    
C15   C17   A    
C54   C55   A    
C78   N11   A    
C5    N15   A    
C8    C31   S    
N6    Ni4   S    
N10   N13   A    
C2    C8    A    
C13   H62   S    
C90   H61   S    
C52   H35   S    
C75   C82   A    
C57   C61   A    
C54   H18   S    
C1    C83   A    
N3    Ni4   S    
C34   C52   A    
C30   C36   A    
C58   H15   S    
C17   C25   A    
C32   C33   A    
C23   C65   S    
C19   C20   A    
N2    N4    A    
C71   C72   A    
C55   H20   S    
C59   C65   A    
C29   H3    S    
C11   C13   A    
N15   Ni3   S    
N4    Ni2   S    
C57   C58   A    
C38   C39   A    
C20   C26   A    
C48   H11   S    
C85   H48   S    
C28   N3    A    
C33   C35   A    
C88   H57   S    
C19   H64   S    
C9    C78   A    
C87   H52   S    
C69   C70   A    
N9    N15   A    
C89   N12   A    
C10   C11   A    
C68   H25   S    
C71   C88   S    
N1    Ni1   S    
C15   C21   A    
C62   H22   S    
C20   C21   A    
C8    C67   A    
N3    N5    A    
C49   C50   A    
C76   H37   S    
N6    N16   A    
C14   C15   A    
N16   Ni2   S    
C87   H53   S    
C21   C22   A    
C63   H17   S    
C2    N13   A    
C6    C49   S    
C86   H51   S    
