data_mof_unit_9472.cif
_audit_creation_date              2012-12-10T17:51:34-0500
_audit_creation_method            fapswitch 2.2
_symmetry_space_group_name_H-M    P1
_symmetry_Int_Tables_number       1
_space_group_crystal_system       triclinic
_cell_length_a                    9.878387
_cell_length_b                    10.728146
_cell_length_c                    16.762612
_cell_angle_alpha                 91.695466
_cell_angle_beta                  84.785377
_cell_angle_gamma                 88.940802
_cell_volume                      1767.92068948

loop_
_atom_site_label
_atom_site_type_symbol
_atom_type_description
_atom_site_fract_x
_atom_site_fract_y
_atom_site_fract_z
_atom_type_partial_charge
C1    C     C_R   0.498218 0.740420 0.496048 0.874023
C2    C     C_R   0.532673 0.452667 0.263033 -0.031760
C3    C     C_R   0.236607 0.895596 0.497833 -0.171206
C4    C     C_R   0.480666 0.499997 0.653170 0.865826
C5    C     C_R   0.118426 0.960849 0.527734 -0.148234
C6    C     C_R   0.127605 0.074465 0.568507 -0.156659
C7    C     C_R   0.254092 0.128440 0.571997 -0.154166
C8    C     C_R   0.373329 0.068057 0.534829 0.100354
C9    C     C_R   0.367063 0.943554 0.508702 0.096351
C10   C     C_R   0.492179 0.874638 0.494439 -0.124600
C11   C     C_R   0.616646 0.935213 0.490504 -0.221406
C12   C     C_R   0.352268 0.435106 0.777653 -0.208236
C13   C     C_R   0.619211 0.062113 0.500056 -0.217564
C14   C     C_R   0.497996 0.129230 0.519514 -0.128829
C15   C     C_R   0.840782 0.661912 0.606950 -0.176318
C16   C     C_R   0.499489 0.261281 0.508343 0.885041
C17   C     C_R   0.901867 0.738919 0.660791 -0.238797
C18   C     C_R   0.041848 0.737293 0.661330 -0.183117
C19   C     C_R   0.121531 0.659300 0.607622 -0.164269
C20   C     C_R   0.062966 0.578847 0.553005 0.143270
C21   C     C_R   0.918189 0.579420 0.552806 0.175036
C22   C     C_R   0.937689 0.423855 0.449659 -0.132718
C23   C     C_R   0.439089 0.340939 0.154467 -0.173406
C24   C     C_R   0.081041 0.423979 0.449621 -0.114405
C25   C     C_R   0.519430 0.492842 0.346960 0.869715
C26   C     C_R   0.468810 0.486720 0.739303 -0.072120
C27   C     C_R   0.579334 0.516138 0.782307 -0.343656
C28   C     C_R   0.578888 0.486202 0.863149 0.523582
C29   C     C_R   0.462450 0.429229 0.900003 0.104945
C30   C     C_R   0.348970 0.407350 0.857927 -0.259781
C31   C     C_3   0.812999 0.504536 0.868289 0.082824
C32   C     C_3   0.918257 0.494384 0.928722 -0.851875
C33   C     C_R   0.425847 0.387364 0.232684 -0.195249
C34   C     C_R   0.655727 0.465214 0.215548 -0.212486
C35   C     C_R   0.668153 0.420178 0.136495 -0.136966
C36   C     C_R   0.557943 0.362240 0.105107 0.181176
C37   C     C_2   0.452678 0.398953 0.984350 -0.188658
C38   C     C_2   0.557655 0.349455 0.018462 -0.184318
H1    H     H_    0.665228 0.562412 0.752479 0.147761
H2    H     H_    0.733084 0.670452 0.609742 0.207432
H3    H     H_    0.840056 0.800874 0.701974 0.154917
H4    H     H_    0.332024 0.371718 0.269382 0.150298
H5    H     H_    0.089303 0.798358 0.702654 0.156950
H6    H     H_    0.228441 0.666233 0.609755 0.210022
H7    H     H_    0.142706 0.361875 0.408565 0.146741
H8    H     H_    0.740572 0.512217 0.238897 0.151390
H9    H     H_    0.651606 0.322820 0.982768 0.173512
H10   H     H_    0.258896 0.365924 0.886958 0.150736
H11   H     H_    0.354020 0.294189 0.131160 0.129607
H12   H     H_    0.760189 0.437512 0.098609 0.141097
H13   H     H_    0.265600 0.412536 0.745106 0.161813
H14   H     H_    0.359116 0.427038 0.020080 0.147684
H15   H     H_    0.838242 0.586406 0.831007 0.162375
H16   H     H_    0.820651 0.417500 0.829884 0.132040
H17   H     H_    0.900046 0.410246 0.964868 0.235634
H18   H     H_    0.021721 0.486590 0.896758 0.211995
H19   H     H_    0.912367 0.578488 0.969256 0.265878
H20   H     H_    0.712829 0.884884 0.478401 0.172007
H21   H     H_    0.222270 0.811059 0.463550 0.174749
H22   H     H_    0.019741 0.922035 0.520384 0.148497
H23   H     H_    0.036483 0.122917 0.594818 0.137874
H24   H     H_    0.257718 0.217555 0.603637 0.153289
H25   H     H_    0.716093 0.107630 0.490288 0.169507
H26   H     H_    0.891173 0.361723 0.408622 0.145381
N1    N     N_R   0.857140 0.501200 0.500750 -0.119841
N2    N     N_R   0.142740 0.501280 0.500770 -0.125065
O1    O     O_R   0.385310 0.683220 0.500000 -0.649797
O2    O     O_R   0.614640 0.683250 0.500010 -0.636138
O3    O     O_R   0.371780 0.500010 0.615800 -0.647048
O4    O     O_R   0.601110 0.500030 0.615800 -0.634176
O5    O     O_R   0.385360 0.316750 0.499990 -0.622580
O6    O     O_R   0.614690 0.316780 0.500000 -0.617615
O7    O     O_R   0.398890 0.499970 0.384200 -0.617166
O8    O     O_R   0.628220 0.499990 0.384200 -0.612924
O9    O     O_3   0.682366 0.522162 0.909721 -0.618610
Zn1   Zn    Zn3+2 0.346870 0.499980 0.499990 0.919295
Zn2   Zn    Zn3+2 0.653130 0.500020 0.500010 0.931137

loop_
_geom_bond_atom_site_label_1
_geom_bond_atom_site_label_2
_ccdc_geom_bond_type
C19   C20   A    
C16   O6    A    
C4    O4    A    
C7    C8    A    
C7    H24   S    
C26   C27   A    
O6    Zn2   S    
C24   H7    S    
C6    H23   S    
C30   H10   S    
C28   C29   A    
C37   C38   D    
C18   C19   A    
O5    Zn1   S    
C34   C35   A    
C23   H11   S    
C1    O2    A    
O3    Zn1   S    
C25   O8    A    
C35   C36   A    
C27   H1    S    
C8    C9    A    
C23   C33   A    
O8    Zn2   S    
C34   H8    S    
C11   H20   S    
C9    C10   A    
C32   H17   S    
C25   O7    A    
C24   N2    A    
C12   C30   A    
C2    C34   A    
C13   C14   A    
O4    Zn2   S    
C16   O5    A    
C32   H19   S    
C4    O3    A    
N1    Zn2   S    
C37   H14   S    
C12   C26   A    
C22   N1    A    
C29   C30   A    
C3    C9    A    
C31   O9    S    
C31   C32   S    
C13   H25   S    
N2    Zn1   S    
C35   H12   S    
C17   C18   A    
C31   H15   S    
C38   H9    S    
C2    C33   A    
O7    Zn1   S    
C14   C16   S    
C33   H4    S    
C12   H13   S    
C19   H6    S    
C20   N2    A    
O2    Zn2   S    
C15   C17   A    
C8    C14   A    
C5    H22   S    
C21   N1    A    
C1    C10   S    
C3    C5    A    
C4    C26   S    
C6    C7    A    
C36   C38   S    
C18   H5    S    
C11   C13   A    
C5    C6    A    
C1    O1    A    
C2    C25   S    
C22   C24   A    
C31   H16   S    
C17   H3    S    
C15   H2    S    
C10   C11   A    
C22   H26   S    
C15   C21   A    
C20   C21   A    
C23   C36   A    
C29   C37   S    
C27   C28   A    
O1    Zn1   S    
C28   O9    S    
C32   H18   S    
C3    H21   S    
