data_mof_unit_40898.cif
_audit_creation_date              2013-03-05T15:40:54-0500
_audit_creation_method            fapswitch 2.2
_symmetry_space_group_name_H-M    P1
_symmetry_Int_Tables_number       1
_space_group_crystal_system       triclinic
_cell_length_a                    27.898882
_cell_length_b                    18.885943
_cell_length_c                    16.795875
_cell_angle_alpha                 89.987257
_cell_angle_beta                  63.763578
_cell_angle_gamma                 90.056168
_cell_volume                      7937.96806875

loop_
_atom_site_label
_atom_site_type_symbol
_atom_site_description
_atom_site_fract_x
_atom_site_fract_y
_atom_site_fract_z
_atom_type_partial_charge
O1    O     O_R   0.255040 0.869590 0.478480 -0.512721
O2    O     O_R   0.744960 0.130410 0.521520 -0.525867
O3    O     O_R   0.744960 0.869590 0.521520 -0.540170
O4    O     O_R   0.255040 0.130410 0.478480 -0.507190
O5    O     O_R   0.755040 0.369590 0.478480 -0.527793
O6    O     O_R   0.244960 0.630410 0.521520 -0.527238
O7    O     O_R   0.244960 0.369590 0.521520 -0.545519
O8    O     O_R   0.755040 0.630410 0.478480 -0.522410
O9    O     O_R   0.182050 0.796550 0.624440 -0.535834
O10   O     O_R   0.817950 0.203450 0.375560 -0.532994
O11   O     O_R   0.817950 0.796550 0.375560 -0.539825
O12   O     O_R   0.182050 0.203450 0.624440 -0.519932
O13   O     O_R   0.682050 0.296550 0.624440 -0.533329
O14   O     O_R   0.317950 0.703450 0.375560 -0.529991
O15   O     O_R   0.317950 0.296550 0.375560 -0.508529
O16   O     O_R   0.682050 0.703450 0.624440 -0.516697
Cu1   Cu    Cu3+1 0.209920 0.785290 0.495070 1.128627
Cu2   Cu    Cu3+1 0.790080 0.214710 0.504930 1.094362
Cu3   Cu    Cu3+1 0.790080 0.785290 0.504930 1.100354
Cu4   Cu    Cu3+1 0.209920 0.214710 0.495070 1.127392
Cu5   Cu    Cu3+1 0.709920 0.285290 0.495070 1.117974
Cu6   Cu    Cu3+1 0.290080 0.714710 0.504930 1.100114
Cu7   Cu    Cu3+1 0.290080 0.285290 0.504930 1.095762
Cu8   Cu    Cu3+1 0.709920 0.714710 0.495070 1.080047
C1    C     C_R   0.291835 0.722991 0.330977 0.832819
C2    C     C_R   0.704820 0.270853 0.671077 0.838958
C3    C     C_R   0.708186 0.722854 0.669015 0.850115
C4    C     C_R   0.296416 0.268180 0.328577 0.849634
C5    C     C_R   0.792408 0.223061 0.331022 0.840488
C6    C     C_R   0.204428 0.770285 0.671247 0.843891
C7    C     C_R   0.205707 0.227639 0.670461 0.803047
C8    C     C_R   0.795299 0.771376 0.328871 0.842441
O17   O     O_R   0.250530 0.763330 0.367210 -0.551589
O18   O     O_R   0.749470 0.236670 0.632790 -0.556151
O19   O     O_R   0.749470 0.763330 0.632790 -0.556729
O20   O     O_R   0.250530 0.236670 0.367210 -0.554144
O21   O     O_R   0.750530 0.263330 0.367210 -0.552232
O22   O     O_R   0.249470 0.736670 0.632790 -0.546226
O23   O     O_R   0.249470 0.263330 0.632790 -0.563397
O24   O     O_R   0.750530 0.736670 0.367210 -0.576760
O25   O     O_R   0.177260 0.690030 0.513710 -0.586534
O26   O     O_R   0.822740 0.309970 0.486290 -0.618861
O27   O     O_R   0.822740 0.690030 0.486290 -0.585437
O28   O     O_R   0.177260 0.309970 0.513710 -0.610352
O29   O     O_R   0.677260 0.190030 0.513710 -0.568545
O30   O     O_R   0.322740 0.809970 0.486290 -0.605011
O31   O     O_R   0.322740 0.190030 0.486290 -0.599516
O32   O     O_R   0.677260 0.809970 0.513710 -0.604345
C9    C     C_R   0.196528 0.631851 0.528024 0.818509
C10   C     C_R   0.803410 0.368285 0.472804 0.818351
C11   C     C_R   0.803545 0.631803 0.472194 0.832575
C12   C     C_R   0.196651 0.368222 0.527463 0.808004
C13   C     C_R   0.696900 0.131690 0.527473 0.822142
C14   C     C_R   0.303320 0.868225 0.472901 0.812687
C15   C     C_R   0.300142 0.131025 0.484124 0.814941
C16   C     C_R   0.700771 0.868836 0.513776 0.819720
H1    H     H_    0.581352 0.777804 0.381056 0.148840
H2    H     H_    0.429308 0.228994 0.592279 0.183761
H3    H     H_    0.495737 0.775721 0.373316 0.167312
H4    H     H_    0.511009 0.227397 0.611601 0.165995
H5    H     H_    0.034182 0.257504 0.529232 0.174217
H6    H     H_    0.964661 0.742897 0.478597 0.181400
H7    H     H_    0.964138 0.257565 0.478843 0.171508
H8    H     H_    0.033361 0.742752 0.532223 0.180681
C17   C     C_R   0.039521 0.628449 0.533605 0.059366
C18   C     C_R   0.958039 0.371913 0.477431 0.076924
C19   C     C_R   0.958671 0.628589 0.476116 0.054817
C20   C     C_R   0.040228 0.371834 0.531091 0.077089
C21   C     C_R   0.532344 0.120154 0.563531 0.102987
C22   C     C_R   0.471285 0.879892 0.430886 0.094504
C23   C     C_R   0.437475 0.120925 0.544044 0.076690
C24   C     C_R   0.569305 0.881730 0.441492 0.098757
C25   C     C_R   0.018427 0.692632 0.520979 -0.098713
C26   C     C_R   0.979257 0.307715 0.489609 -0.149271
C27   C     C_R   0.979551 0.692712 0.489642 -0.112950
C28   C     C_R   0.018930 0.307671 0.518936 -0.151715
C29   C     C_R   0.499952 0.180498 0.586359 -0.160092
C30   C     C_R   0.506234 0.822010 0.400396 -0.165723
C31   C     C_R   0.453302 0.181258 0.575433 -0.191598
C32   C     C_R   0.555096 0.823216 0.404834 -0.183227
C33   C     C_R   0.977926 0.564366 0.492283 0.015602
C34   C     C_R   0.020296 0.436121 0.516559 0.028100
C35   C     C_R   0.020075 0.564308 0.517428 0.015492
C36   C     C_R   0.977732 0.436164 0.492597 0.027878
C37   C     C_R   0.469590 0.060397 0.520429 0.036843
C38   C     C_R   0.534961 0.940228 0.471453 0.030981
C39   C     C_R   0.517449 0.060170 0.529624 0.023184
C40   C     C_R   0.486265 0.939787 0.464646 0.024603
C41   C     C_R   0.453314 0.999843 0.489493 -0.020575
C42   C     C_R   0.550030 0.999877 0.505788 -0.027627
C43   C     C_R   0.955922 0.500279 0.481322 -0.019853
C44   C     C_R   0.042263 0.500183 0.527587 -0.019599
C45   C     C_R   0.386434 0.936909 0.458008 -0.024288
C46   C     C_R   0.614842 0.061405 0.543667 -0.041408
C47   C     C_R   0.630181 0.938511 0.491973 -0.020928
C48   C     C_R   0.373463 0.062084 0.501743 -0.020273
C49   C     C_R   0.887428 0.435093 0.456919 -0.020793
C50   C     C_R   0.111335 0.565063 0.550639 -0.049119
C51   C     C_R   0.111838 0.435008 0.548651 -0.019684
C52   C     C_R   0.887967 0.565295 0.455175 -0.050223
C53   C     C_R   0.334089 0.935292 0.462803 -0.216620
C54   C     C_R   0.667327 0.063846 0.537724 -0.232762
C55   C     C_R   0.674710 0.936243 0.511532 -0.184613
C56   C     C_R   0.327754 0.063783 0.484497 -0.203249
C57   C     C_R   0.835974 0.434785 0.457279 -0.204923
C58   C     C_R   0.164126 0.565321 0.545131 -0.219745
C59   C     C_R   0.164294 0.434741 0.544291 -0.203440
C60   C     C_R   0.836178 0.565434 0.456367 -0.222812
C61   C     C_R   0.308170 0.999901 0.466548 0.406282
C62   C     C_R   0.695001 0.999664 0.529000 0.389040
C63   C     C_R   0.811903 0.500037 0.454237 0.387323
C64   C     C_R   0.189539 0.500036 0.543746 0.370176
C65   C     C_R   0.404433 0.999676 0.482641 0.070834
C66   C     C_R   0.598080 0.999660 0.514856 0.046818
C67   C     C_R   0.910417 0.500246 0.463900 0.061750
C68   C     C_R   0.088426 0.500096 0.543091 0.064777
C69   C     C_R   0.617305 0.882432 0.448647 -0.189024
C70   C     C_R   0.389625 0.120537 0.537055 -0.207543
C71   C     C_R   0.421793 0.878672 0.427974 -0.179202
C72   C     C_R   0.579794 0.119687 0.572593 -0.170796
C73   C     C_R   0.082229 0.372367 0.554896 -0.186119
C74   C     C_R   0.917662 0.627943 0.449548 -0.180590
C75   C     C_R   0.916702 0.372470 0.452097 -0.179304
C76   C     C_R   0.081267 0.627637 0.558448 -0.179637
H9    H     H_    0.644956 0.839843 0.416791 0.163546
H10   H     H_    0.364630 0.165657 0.564985 0.213089
H11   H     H_    0.412533 0.833138 0.398311 0.185070
H12   H     H_    0.588398 0.164780 0.603797 0.162396
H13   H     H_    0.090269 0.323077 0.578785 0.193230
H14   H     H_    0.909991 0.677244 0.425204 0.187805
H15   H     H_    0.909415 0.323270 0.427075 0.193959
H16   H     H_    0.089715 0.676810 0.582126 0.187033
C77   C     C_R   0.199848 0.732966 0.967985 -0.018129
C78   C     C_R   0.767553 0.208538 0.056383 -0.005422
C79   C     C_R   0.792992 0.749201 0.035720 -0.009036
C80   C     C_R   0.216982 0.233824 0.959076 -0.028655
C81   C     C_R   0.708040 0.244263 0.963111 -0.006901
C82   C     C_R   0.256105 0.692779 0.065437 -0.011312
C83   C     C_R   0.275835 0.270585 0.052460 -0.018284
C84   C     C_R   0.741837 0.696154 0.936223 -0.013197
C85   C     C_R   0.243512 0.685526 0.929335 -0.094300
C86   C     C_R   0.714479 0.234735 0.104008 -0.097640
C87   C     C_R   0.762854 0.686098 0.063383 -0.090222
C88   C     C_R   0.257052 0.286561 0.925013 -0.069298
C89   C     C_R   0.755983 0.205898 0.920218 -0.105647
C90   C     C_R   0.209837 0.736058 0.106180 -0.092997
C91   C     C_R   0.230482 0.225763 0.092718 -0.091624
C92   C     C_R   0.783859 0.745091 0.897797 -0.099100
C93   C     C_R   0.268841 0.661913 0.982179 0.057809
C94   C     C_R   0.684827 0.252675 0.055706 0.075438
C95   C     C_R   0.731498 0.665604 0.018732 0.071823
C96   C     C_R   0.290914 0.297375 0.966412 0.056330
C97   C     C_R   0.788855 0.196666 0.963988 0.078491
C98   C     C_R   0.179312 0.751108 0.058665 0.035642
C99   C     C_R   0.206130 0.200218 0.040087 0.046658
C100  C     C_R   0.802541 0.779480 0.953406 0.082652
C101  C     C_R   0.129201 0.803542 0.955817 -0.082766
C102  C     C_R   0.853688 0.173292 0.053204 -0.044003
C103  C     C_R   0.844277 0.844855 0.061268 -0.022347
C104  C     C_R   0.156106 0.152225 0.935537 -0.061436
C105  C     C_R   0.632759 0.306964 0.955369 -0.006601
C106  C     C_R   0.332901 0.630922 0.071937 -0.021532
C107  C     C_R   0.357601 0.320897 0.051293 -0.038057
C108  C     C_R   0.665869 0.633062 0.930597 -0.027314
C109  C     C_R   0.113441 0.844633 0.899758 -0.229953
C110  C     C_R   0.883012 0.152210 0.100920 -0.191445
C111  C     C_R   0.871537 0.869094 0.110756 -0.187971
C112  C     C_R   0.124339 0.137629 0.890662 -0.212698
C113  C     C_R   0.614256 0.345086 0.900136 -0.198981
C114  C     C_R   0.370233 0.628983 0.110511 -0.204649
C115  C     C_R   0.385529 0.344296 0.100292 -0.221264
C116  C     C_R   0.629473 0.629246 0.890147 -0.199114
C117  C     C_R   0.141477 0.836241 0.806545 0.240088
C118  C     C_R   0.864261 0.173661 0.189849 0.256520
C119  C     C_R   0.852762 0.847974 0.199771 0.214214
C120  C     C_R   0.138260 0.168296 0.806674 0.260456
C121  C     C_R   0.640653 0.335099 0.806870 0.224926
C122  C     C_R   0.357838 0.665999 0.190548 0.265305
C123  C     C_R   0.368141 0.319772 0.188520 0.276814
C124  C     C_R   0.642239 0.665183 0.809155 0.263717
C125  C     C_R   0.178710 0.780873 0.769788 -0.192686
C126  C     C_R   0.811323 0.198686 0.237510 -0.192087
C127  C     C_R   0.818695 0.788587 0.231940 -0.194601
C128  C     C_R   0.184740 0.210007 0.766225 -0.192394
C129  C     C_R   0.680581 0.283075 0.769102 -0.190795
C130  C     C_R   0.306957 0.696085 0.238980 -0.190332
C131  C     C_R   0.321312 0.278503 0.230224 -0.177344
C132  C     C_R   0.692855 0.696064 0.761180 -0.192070
C133  C     C_R   0.193910 0.741286 0.827112 -0.122907
C134  C     C_R   0.777426 0.200904 0.194211 -0.126522
C135  C     C_R   0.805458 0.750073 0.171328 -0.121629
C136  C     C_R   0.210422 0.233110 0.818399 -0.134388
C137  C     C_R   0.700150 0.248876 0.824241 -0.136033
C138  C     C_R   0.271539 0.700626 0.198222 -0.137365
C139  C     C_R   0.294289 0.256283 0.180439 -0.140689
C140  C     C_R   0.727813 0.701429 0.802558 -0.139205
C141  C     C_R   0.175239 0.760905 0.916381 -0.066640
C142  C     C_R   0.799739 0.194706 0.101177 -0.054746
C143  C     C_R   0.814056 0.781605 0.089633 -0.073409
C144  C     C_R   0.191908 0.209453 0.906632 -0.054570
C145  C     C_R   0.681069 0.268649 0.913681 -0.062197
C146  C     C_R   0.288047 0.676818 0.110533 -0.056020
C147  C     C_R   0.308365 0.284815 0.095977 -0.062956
C148  C     C_R   0.710822 0.678159 0.890860 -0.056531
C149  C     C_R   0.100324 0.799439 0.049741 0.513902
C150  C     C_R   0.876617 0.176843 0.959229 0.487167
C151  C     C_R   0.845669 0.881002 0.985536 0.489725
C152  C     C_R   0.158091 0.108255 0.002581 0.508631
C153  C     C_R   0.604419 0.300682 0.049554 0.475454
C154  C     C_R   0.335460 0.587250 0.000185 0.466934
C155  C     C_R   0.378309 0.326237 0.957492 0.503214
C156  C     C_R   0.660336 0.594826 0.008319 0.486543
C157  C     C_R   0.126253 0.776155 0.099653 -0.181771
C158  C     C_R   0.843844 0.183273 0.916257 -0.206093
C159  C     C_R   0.825454 0.846703 0.932412 -0.215585
C160  C     C_R   0.180129 0.134167 0.056646 -0.180811
C161  C     C_R   0.630283 0.269152 0.096447 -0.238615
C162  C     C_R   0.301666 0.602406 0.960273 -0.211608
C163  C     C_R   0.343847 0.321017 0.918138 -0.220550
C164  C     C_R   0.690408 0.615903 0.053461 -0.233332
C165  C     C_R   0.225015 0.679583 0.800227 0.463314
C166  C     C_R   0.721712 0.210837 0.240541 0.449048
C167  C     C_R   0.787889 0.678976 0.186096 0.442707
C168  C     C_R   0.258740 0.271835 0.783037 0.484360
C169  C     C_R   0.733017 0.188250 0.797652 0.470555
C170  C     C_R   0.218293 0.725110 0.243227 0.460996
C171  C     C_R   0.255198 0.202487 0.210473 0.481345
C172  C     C_R   0.781917 0.723346 0.757023 0.451265
C173  C     C_R   0.257191 0.660686 0.841464 0.237617
C174  C     C_R   0.693788 0.241119 0.197767 0.241885
C175  C     C_R   0.766185 0.646932 0.133238 0.216757
C176  C     C_R   0.268872 0.314731 0.840855 0.225352
C177  C     C_R   0.765147 0.171075 0.840017 0.221499
C178  C     C_R   0.194086 0.757204 0.195335 0.213709
C179  C     C_R   0.216908 0.199085 0.178571 0.203905
C180  C     C_R   0.807385 0.753692 0.804544 0.218848
H17   H     H_    0.102675 0.773610 0.170666 0.200245
H18   H     H_    0.862747 0.184188 0.844387 0.181342
H19   H     H_    0.823889 0.874363 0.877363 0.167863
H20   H     H_    0.181474 0.098268 0.105743 0.199488
H21   H     H_    0.606130 0.253493 0.164040 0.182840
H22   H     H_    0.298605 0.564007 0.915582 0.214661
H23   H     H_    0.361312 0.327182 0.846853 0.189804
H24   H     H_    0.681243 0.592573 0.116787 0.183193
O33   O     O_R   0.051640 0.926880 0.885090 -0.541081
O34   O     O_R   0.948360 0.073120 0.114910 -0.518647
O35   O     O_R   0.948360 0.926880 0.114910 -0.508931
O36   O     O_R   0.051640 0.073120 0.885090 -0.521861
O37   O     O_R   0.551640 0.426880 0.885090 -0.530014
O38   O     O_R   0.448360 0.573120 0.114910 -0.532739
O39   O     O_R   0.448360 0.426880 0.114910 -0.562228
O40   O     O_R   0.551640 0.573120 0.885090 -0.521026
Cu9   Cu    Cu3+1 0.495240 0.500000 0.924150 1.106740
Cu10  Cu    Cu3+1 0.504760 0.500000 0.075850 1.041179
Cu11  Cu    Cu3+1 0.995240 0.000000 0.924150 1.102718
Cu12  Cu    Cu3+1 0.004760 0.000000 0.075850 1.214879
C181  C     C_R   0.921505 0.911563 0.070021 0.828704
C182  C     C_R   0.076322 0.092398 0.931334 0.839248
C183  C     C_R   0.072299 0.901204 0.934903 0.833626
C184  C     C_R   0.927725 0.099454 0.064682 0.847697
C185  C     C_R   0.427955 0.400317 0.064851 0.860918
C186  C     C_R   0.577727 0.590200 0.930992 0.879322
C187  C     C_R   0.572172 0.400830 0.935241 0.873366
C188  C     C_R   0.422127 0.590028 0.069222 0.878361
O41   O     O_R   0.940620 0.926560 0.986760 -0.595769
O42   O     O_R   0.059380 0.073440 0.013240 -0.541439
O43   O     O_R   0.059380 0.926560 0.013240 -0.514807
O44   O     O_R   0.940620 0.073440 0.986760 -0.564056
O45   O     O_R   0.440620 0.426560 0.986760 -0.543388
O46   O     O_R   0.559380 0.573440 0.013240 -0.571086
O47   O     O_R   0.559380 0.426560 0.013240 -0.566739
O48   O     O_R   0.440620 0.573440 0.986760 -0.568161
O49   O     O_3   0.261592 0.000335 0.456418 -0.515640
C189  C     C_3   0.275641 0.000488 0.364897 -0.144984
H25   H     H_    0.303838 0.044425 0.330595 0.141325
H26   H     H_    0.238864 0.008557 0.356184 0.233244
H27   H     H_    0.293573 0.949138 0.333508 0.118025
O50   O     O_3   0.746213 0.999941 0.523223 -0.526424
C190  C     C_3   0.744078 0.993590 0.608641 -0.109661
H28   H     H_    0.706979 0.967831 0.658769 0.087122
H29   H     H_    0.749820 0.046048 0.631733 0.230738
H30   H     H_    0.778306 0.960765 0.603419 0.202722
O51   O     O_3   0.760843 0.499761 0.459906 -0.543576
C191  C     C_3   0.763405 0.493350 0.374266 -0.091851
H31   H     H_    0.731413 0.456706 0.377826 0.202519
H32   H     H_    0.802053 0.472589 0.322341 0.098866
H33   H     H_    0.754554 0.545315 0.353981 0.245916
O52   O     O_3   0.243089 0.500066 0.526275 -0.554569
C192  C     C_3   0.248518 0.492101 0.605721 -0.069952
H34   H     H_    0.283907 0.458475 0.591928 0.212065
H35   H     H_    0.213588 0.466638 0.661164 0.091961
H36   H     H_    0.257479 0.543891 0.626207 0.239797
N1    N     N_R   0.135373 0.887744 0.748714 0.152395
O53   O     O_R   0.166288 0.943142 0.724255 -0.345700
O54   O     O_R   0.099427 0.879010 0.719885 -0.299552
N2    N     N_R   0.900244 0.172575 0.230067 0.139213
O55   O     O_R   0.898198 0.120858 0.282801 -0.262970
O56   O     O_R   0.940571 0.216078 0.202028 -0.364820
N3    N     N_R   0.866239 0.890015 0.258321 0.153397
O57   O     O_R   0.846675 0.953496 0.279805 -0.321048
O58   O     O_R   0.903984 0.869451 0.278717 -0.301969
N4    N     N_R   0.106284 0.154908 0.760737 0.154792
O59   O     O_R   0.113497 0.097095 0.714563 -0.260576
O60   O     O_R   0.076414 0.204938 0.753626 -0.386468
N5    N     N_R   0.628921 0.380802 0.749411 0.153297
O61   O     O_R   0.656627 0.438373 0.718442 -0.326982
O62   O     O_R   0.591279 0.364204 0.726816 -0.327437
N6    N     N_R   0.398073 0.676006 0.221012 0.134881
O63   O     O_R   0.403944 0.629881 0.273688 -0.309209
O64   O     O_R   0.425648 0.734407 0.202160 -0.379159
N7    N     N_R   0.400405 0.331522 0.234037 0.129345
O65   O     O_R   0.394117 0.389275 0.279996 -0.330022
O66   O     O_R   0.423851 0.277454 0.249662 -0.383260
N8    N     N_R   0.602464 0.673513 0.777387 0.137902
O67   O     O_R   0.597753 0.626734 0.724291 -0.280802
O68   O     O_R   0.572098 0.729349 0.799422 -0.354877
O69   O     O_3   0.046182 0.813435 0.094877 -0.532001
C193  C     C_3   0.017579 0.757765 0.079489 -0.306343
H37   H     H_    0.027300 0.705786 0.100095 0.148838
H38   H     H_    0.025016 0.755946 0.008783 0.141178
H39   H     H_    0.974219 0.767242 0.120059 0.199736
O70   O     O_3   0.931236 0.181810 0.907976 -0.554200
C194  C     C_3   0.947246 0.251606 0.914649 -0.256779
H40   H     H_    0.940375 0.264219 0.983580 0.153116
H41   H     H_    0.926635 0.290949 0.891122 0.154751
H42   H     H_    0.990653 0.256773 0.871816 0.232416
O71   O     O_3   0.857270 0.953245 0.974369 -0.582895
C195  C     C_3   0.888267 0.971116 0.883764 -0.106744
H43   H     H_    0.863057 0.977149 0.848669 0.196872
H44   H     H_    0.920634 0.931998 0.848393 0.154265
H45   H     H_    0.907412 0.023212 0.879822 0.200983
O72   O     O_3   0.145287 0.036957 0.009717 -0.543080
C196  C     C_3   0.186627 0.000194 0.939973 -0.287511
H46   H     H_    0.226465 0.011651 0.937467 0.147606
H47   H     H_    0.186907 0.012549 0.875021 0.165480
H48   H     H_    0.179404 0.942565 0.951797 0.205631
O73   O     O_3   0.549689 0.313692 0.092615 -0.591745
C197  C     C_3   0.533864 0.341547 0.179075 -0.117076
H49   H     H_    0.565737 0.372344 0.186244 0.131281
H50   H     H_    0.520170 0.298110 0.228727 0.203107
H51   H     H_    0.500316 0.378617 0.194839 0.225446
O74   O     O_3   0.363357 0.523514 0.979038 -0.590766
C198  C     C_3   0.391287 0.514364 0.885387 -0.110530
H52   H     H_    0.407091 0.565068 0.849189 0.168459
H53   H     H_    0.365915 0.487255 0.859586 0.201852
H54   H     H_    0.426226 0.479630 0.868809 0.203910
O75   O     O_3   0.432487 0.328058 0.900937 -0.560863
C199  C     C_3   0.455321 0.261902 0.903101 -0.302883
H55   H     H_    0.434691 0.217859 0.886560 0.145965
H56   H     H_    0.455173 0.252345 0.968523 0.158936
H57   H     H_    0.497637 0.262135 0.852318 0.208076
O76   O     O_3   0.634656 0.529353 0.029034 -0.561180
C200  C     C_3   0.606122 0.518578 0.122034 -0.174464
H58   H     H_    0.589932 0.568534 0.159745 0.122896
H59   H     H_    0.631582 0.490235 0.147122 0.195183
H60   H     H_    0.570923 0.485123 0.135885 0.182312
O77   O     O_3   0.221131 0.634328 0.738747 -0.551140
C201  C     C_3   0.170091 0.601945 0.777585 -0.365939
H61   H     H_    0.136873 0.641031 0.803675 0.156938
H62   H     H_    0.166841 0.564717 0.831083 0.188076
H63   H     H_    0.164317 0.571431 0.726284 0.168822
O78   O     O_3   0.692636 0.184641 0.325270 -0.522975
C202  C     C_3   0.688684 0.110326 0.319920 -0.258094
H64   H     H_    0.721339 0.084231 0.329747 0.169633
H65   H     H_    0.688955 0.091370 0.256722 0.136854
H66   H     H_    0.649936 0.093224 0.373198 0.201325
O79   O     O_3   0.796899 0.637837 0.246183 -0.566938
C203  C     C_3   0.850796 0.615750 0.206642 -0.339533
H67   H     H_    0.878818 0.661486 0.188566 0.149902
H68   H     H_    0.859723 0.582134 0.147336 0.197938
H69   H     H_    0.858041 0.583416 0.255353 0.171048
O80   O     O_3   0.303989 0.242545 0.715235 -0.546631
C204  C     C_3   0.314764 0.175673 0.742737 -0.373260
H70   H     H_    0.294771 0.132995 0.722947 0.181645
H71   H     H_    0.303113 0.171663 0.815080 0.149143
H72   H     H_    0.358150 0.166191 0.710857 0.187708
O81   O     O_3   0.724993 0.137569 0.745306 -0.552131
C205  C     C_3   0.675882 0.102841 0.796839 -0.345855
H73   H     H_    0.641589 0.140249 0.824258 0.156171
H74   H     H_    0.678149 0.071801 0.851388 0.198399
H75   H     H_    0.666930 0.065677 0.754321 0.162559
O82   O     O_3   0.184999 0.702396 0.328321 -0.520975
C206  C     C_3   0.177176 0.628521 0.326069 -0.271531
H76   H     H_    0.209822 0.599283 0.332544 0.159008
H77   H     H_    0.173836 0.610776 0.265322 0.135989
H78   H     H_    0.138990 0.614037 0.382425 0.199954
O83   O     O_3   0.263339 0.142272 0.249728 -0.535828
C207  C     C_3   0.303101 0.100715 0.182556 -0.342806
H79   H     H_    0.342877 0.113244 0.179134 0.173827
H80   H     H_    0.304849 0.107096 0.115188 0.143528
H81   H     H_    0.294407 0.043946 0.199004 0.183655
O84   O     O_3   0.814283 0.698446 0.672594 -0.523020
C208  C     C_3   0.819664 0.624176 0.677044 -0.235417
H82   H     H_    0.787992 0.596712 0.665704 0.157084
H83   H     H_    0.818977 0.605574 0.740658 0.147920
H84   H     H_    0.858914 0.608072 0.624727 0.196584
N9    N     N_R   0.306286 0.624298 0.788717 0.118602
O85   O     O_R   0.351509 0.652649 0.776763 -0.365481
O86   O     O_R   0.306703 0.568999 0.742229 -0.289401
N10   N     N_R   0.648721 0.284893 0.250012 0.112575
O87   O     O_R   0.649162 0.351425 0.229513 -0.367422
O88   O     O_R   0.611301 0.261832 0.324690 -0.323109
N11   N     N_R   0.756458 0.571954 0.141816 0.119943
O89   O     O_R   0.729159 0.543552 0.219540 -0.360597
O90   O     O_R   0.776504 0.531456 0.072009 -0.349981
N12   N     N_R   0.293680 0.382613 0.812007 0.108414
O91   O     O_R   0.282057 0.433695 0.869432 -0.381394
O92   O     O_R   0.318760 0.397468 0.727776 -0.328237
N13   N     N_R   0.796862 0.107977 0.813453 0.121999
O93   O     O_R   0.825834 0.094449 0.729689 -0.335702
O94   O     O_R   0.789236 0.058526 0.871732 -0.385330
N14   N     N_R   0.157113 0.814041 0.236685 0.117218
O95   O     O_R   0.162860 0.873603 0.194382 -0.331621
O96   O     O_R   0.123975 0.811284 0.320665 -0.305881
N15   N     N_R   0.164809 0.170363 0.234450 0.123715
O97   O     O_R   0.122661 0.197199 0.231502 -0.327713
O98   O     O_R   0.158220 0.126138 0.297923 -0.286077
N16   N     N_R   0.861270 0.779290 0.756243 0.131412
O99   O     O_R   0.875093 0.813941 0.682343 -0.324287
O100  O     O_R   0.898050 0.760772 0.779899 -0.361704

loop_
_geom_bond_atom_site_label_1
_geom_bond_atom_site_label_2
_geom_bond_distance
_ccdc_geom_bond_type
C153  O73   1.392605 S    
C140  C172  1.418670 A    
O37   Cu9   1.976172 S    
O77   C201  1.415642 S    
Cu2   Cu5   2.671856 S    
C59   C64   1.417544 A    
C90   C178  1.419059 A    
O73   C197  1.419304 S    
C196  H46   1.114471 S    
C107  C147  1.414538 A    
C114  C122  1.416082 A    
C191  H31   1.109377 S    
N11   O90   1.301522 A    
N9    O86   1.301113 A    
C79   C143  1.417683 A    
C2    C129  1.495769 S    
C38   C40   1.412854 A    
C139  C147  1.401325 A    
Cu11  O44   1.984846 S    
C165  O77   1.381185 S    
Cu6   O22   1.979289 S    
C83   C96   1.408338 A    
C137  C145  1.404679 A    
O80   C204  1.421967 S    
C6    O22   1.297473 A    
C201  H63   1.105995 S    
C189  H25   1.112257 S    
C168  O80   1.388198 S    
C108  C148  1.414679 A    
C33   C35   1.414288 A    
C47   C55   1.419157 A    
C119  N3    1.437214 S    
O3    Cu3   1.972550 S    
C36   C43   1.405522 A    
C49   C67   1.415686 A    
C91   C99   1.416427 A    
Cu5   O29   1.977179 S    
C51   C73   1.419298 A    
C149  O69   1.383686 S    
C150  C158  1.398328 A    
C87   C95   1.434246 A    
C53   C61   1.406156 A    
H5    C28   1.083702 S    
C25   C27   1.399343 A    
C52   C67   1.416196 A    
C98   C157  1.410480 A    
O25   C9    1.292032 A    
C203  H67   1.112714 S    
C200  H59   1.110833 S    
C29   C31   1.392466 A    
C41   C65   1.418364 A    
C110  C118  1.406611 A    
C194  H40   1.112602 S    
C101  C149  1.421197 A    
C38   C42   1.411427 A    
C4    C131  1.494801 S    
C45   C53   1.426899 A    
C51   C68   1.414855 A    
O74   C198  1.424052 S    
C169  O81   1.383201 S    
C106  C154  1.436040 A    
C3    O19   1.288253 A    
N8    O67   1.302624 A    
C160  H20   1.080859 S    
C122  N6    1.437006 S    
C90   C98   1.429755 A    
C13   C54   1.491423 S    
O76   C200  1.419568 S    
O12   Cu4   1.968985 S    
O13   Cu5   1.969254 S    
O37   C187  1.306394 A    
C44   C68   1.422344 A    
O38   C188  1.312764 A    
H2    C31   1.083858 S    
N10   O88   1.301516 A    
N2    O55   1.302507 A    
C34   C36   1.412318 A    
C48   C56   1.427541 A    
N12   O92   1.301536 A    
H6    C27   1.083566 S    
C159  H19   1.079435 S    
O83   C207  1.419491 S    
C135  C167  1.412708 A    
C119  C127  1.413071 A    
C150  O70   1.382665 S    
C196  H48   1.108481 S    
C133  C141  1.402422 A    
C120  C128  1.408002 A    
C77   C141  1.423944 A    
C193  H39   1.109678 S    
C191  H33   1.102233 S    
C16   C55   1.475358 S    
O2    C13   1.299959 A    
C20   C73   1.395430 A    
C103  C151  1.428757 A    
C9    C58   1.498820 S    
H7    C26   1.083691 S    
C208  H82   1.110854 S    
C50   C58   1.434307 A    
C60   C63   1.416037 A    
C139  C171  1.409714 A    
C153  C161  1.413759 A    
C137  C169  1.411178 A    
Cu3   O19   1.978623 S    
C82   C146  1.433840 A    
C86   C94   1.432158 A    
O10   Cu2   1.969254 S    
N14   O96   1.301491 A    
C199  H55   1.113941 S    
C102  C142  1.416781 A    
C103  C111  1.427326 A    
C120  N4    1.436388 S    
C104  C112  1.421188 A    
C99   C160  1.406900 A    
C80   C144  1.421770 A    
C122  C130  1.407282 A    
O5    Cu5   1.970459 S    
C40   C41   1.403124 A    
C46   C54   1.423691 A    
C176  N12   1.434853 S    
C126  C134  1.425882 A    
C205  H73   1.112850 S    
C85   C173  1.430592 A    
C203  H69   1.108763 S    
O40   Cu9   1.973810 S    
O6    Cu6   1.970457 S    
C155  O75   1.385144 S    
C14   C53   1.496326 S    
C21   C29   1.399415 A    
C118  C126  1.414816 A    
C173  N9    1.436119 S    
C23   C31   1.405823 A    
C121  C129  1.409364 A    
C47   C69   1.418092 A    
C42   C66   1.414488 A    
C50   C76   1.422052 A    
O33   Cu11  1.976172 S    
C26   C28   1.396335 A    
C106  C146  1.422188 A    
C55   C62   1.409564 A    
N14   O95   1.301711 A    
C158  H18   1.082893 S    
C108  C156  1.438952 A    
O7    C12   1.306952 A    
C123  N7    1.432489 S    
C134  C166  1.409950 A    
Cu9   Cu10  2.675976 S    
C30   C32   1.397906 A    
C86   C174  1.422713 A    
C78   C97   1.413038 A    
O78   C202  1.413721 S    
Cu9   O48   1.984846 S    
C18   C26   1.403774 A    
Cu10  O47   1.984849 S    
C113  C187  1.491675 S    
C76   H16   1.076463 S    
C114  C188  1.494291 S    
O3    C16   1.295664 A    
C17   C76   1.400158 A    
C115  C185  1.499669 S    
C193  H38   1.112072 S    
C46   C72   1.409247 A    
C207  H79   1.110786 S    
N5    O62   1.302670 A    
C10   C57   1.502944 S    
H8    C25   1.083557 S    
N15   O98   1.301532 A    
C184  O44   1.291508 A    
C185  O45   1.296310 A    
O40   C186  1.312959 A    
C3    C132  1.499679 S    
C105  C113  1.438513 A    
O35   Cu12  1.973809 S    
O28   C12   1.290642 A    
O16   C3    1.307196 A    
C136  C144  1.408925 A    
O29   C13   1.296420 A    
H1    C32   1.083683 S    
C115  C123  1.417535 A    
C125  C133  1.423756 A    
H3    C30   1.083641 S    
C113  C121  1.418522 A    
Cu4   O28   1.978930 S    
N6    O64   1.300557 A    
N16   O100  1.301615 A    
C82   C93   1.408196 A    
C208  H84   1.101712 S    
N4    O60   1.300393 A    
C52   C60   1.436125 A    
Cu7   O31   1.978930 S    
C5    C126  1.491699 S    
C77   C98   1.412249 A    
Cu8   O32   1.978930 S    
C183  O43   1.292958 A    
O72   C196  1.411337 S    
C101  C109  1.431252 A    
C80   C99   1.407442 A    
O39   Cu10  1.973809 S    
C117  N1    1.436912 S    
C15   C56   1.487390 S    
C199  H57   1.109484 S    
C79   C100  1.408214 A    
C109  C183  1.486955 S    
C194  H41   1.113782 S    
C110  C184  1.500217 S    
N1    O53   1.300792 A    
C104  C152  1.419680 A    
Cu2   O18   1.979289 S    
Cu4   Cu7   2.669704 S    
C190  H28   1.115867 S    
C192  H34   1.109423 S    
C201  H62   1.112444 S    
O9    C6    1.299353 A    
O39   C185  1.305949 A    
O36   C182  1.297116 A    
C207  H80   1.117288 S    
O26   C10   1.290008 A    
O11   C8    1.295387 A    
C19   C33   1.401275 A    
C197  H50   1.109861 S    
C198  H53   1.105223 S    
O12   C7    1.300932 A    
C202  H66   1.103434 S    
C81   C94   1.404684 A    
C108  C116  1.451770 A    
C19   C27   1.404718 A    
C5    O21   1.298820 A    
C182  O42   1.291764 A    
C111  C119  1.405579 A    
C112  C120  1.411039 A    
N12   O91   1.300245 A    
C63   O51   1.385065 S    
C130  C138  1.431984 A    
C195  H43   1.105336 S    
C177  N13   1.433631 S    
C20   C28   1.403248 A    
C197  H51   1.103867 S    
C155  C163  1.390225 A    
O1    Cu1   1.970459 S    
C170  C178  1.396912 A    
C20   C34   1.401466 A    
O14   Cu6   1.969254 S    
C191  H32   1.116470 S    
N13   O93   1.301185 A    
C206  H78   1.101577 S    
C49   C57   1.432862 A    
C49   C75   1.419776 A    
N9    O85   1.301322 A    
C81   C145  1.421415 A    
C82   C90   1.422640 A    
C207  H81   1.106672 S    
O7    Cu7   1.972550 S    
C103  C143  1.416821 A    
O8    Cu8   1.972552 S    
C94   C161  1.400391 A    
C189  H26   1.109270 S    
C162  H22   1.073991 S    
O13   C2    1.301179 A    
C117  C125  1.410322 A    
C166  C174  1.394872 A    
O51   C191  1.413497 S    
C18   C75   1.394656 A    
C45   C71   1.414110 A    
C87   C175  1.424245 A    
C69   H9    1.079254 S    
C1    O17   1.288635 A    
C71   H11   1.080759 S    
O38   Cu10  1.976169 S    
O82   C206  1.415060 S    
C89   C177  1.417271 A    
C7    C128  1.485813 S    
C189  H27   1.112069 S    
C8    C127  1.497348 S    
N7    O65   1.302821 A    
C203  H68   1.112895 S    
C200  H58   1.115103 S    
O36   Cu11  1.973810 S    
O11   Cu3   1.968985 S    
C118  N2    1.436691 S    
C81   C89   1.408289 A    
C204  H71   1.112872 S    
C123  C131  1.411955 A    
C47   C66   1.407615 A    
N8    O68   1.300526 A    
C138  C146  1.408704 A    
C96   C163  1.406254 A    
C192  H36   1.101501 S    
C34   C44   1.404519 A    
C78   C142  1.427694 A    
C112  C182  1.476261 S    
C124  C132  1.405570 A    
O35   C181  1.308657 A    
C180  N16   1.439424 S    
O79   C203  1.412254 S    
C12   C59   1.499942 S    
C167  C175  1.412753 A    
C202  H64   1.110826 S    
C128  C136  1.423503 A    
C107  C115  1.430434 A    
C21   C39   1.410301 A    
C116  C124  1.417302 A    
N2    O56   1.300828 A    
O70   C194  1.411661 S    
C57   C63   1.415701 A    
C149  C157  1.398622 A    
C188  O48   1.285039 A    
Cu1   O17   1.979288 S    
C195  H45   1.106958 S    
C97   C158  1.404872 A    
Cu3   O27   1.978930 S    
C178  N14   1.437949 S    
C196  H47   1.112209 S    
C151  O71   1.395284 S    
C102  C150  1.418511 A    
C136  C168  1.412367 A    
O75   C199  1.410728 S    
C37   C41   1.411340 A    
N10   O87   1.301358 A    
C58   C64   1.417948 A    
Cu11  O41   1.982431 S    
C105  C153  1.426724 A    
C179  N15   1.442186 S    
N3    O57   1.301089 A    
C186  O46   1.282515 A    
C208  H83   1.116746 S    
C156  C164  1.413898 A    
C106  C114  1.450021 A    
C171  O83   1.382807 S    
O30   C14   1.289695 A    
C100  C159  1.394161 A    
C151  C159  1.406527 A    
C181  O41   1.288575 A    
C45   C65   1.418206 A    
C84   C95   1.407991 A    
Cu6   O30   1.977179 S    
Cu12  O43   1.984849 S    
O4    C15   1.303023 A    
C6    C125  1.498181 S    
C64   O52   1.389395 S    
O5    C10   1.310376 A    
C204  H72   1.100607 S    
C205  H74   1.112730 S    
C200  H60   1.101988 S    
C102  C110  1.431897 A    
C105  C145  1.413549 A    
C75   H15   1.075491 S    
C154  O74   1.392291 S    
C88   C176  1.406054 A    
C73   H13   1.075945 S    
O84   C208  1.416280 S    
C24   C38   1.402823 A    
C72   H12   1.081025 S    
C51   C59   1.432601 A    
C21   C72   1.397803 A    
C77   C85   1.418216 A    
Cu1   Cu6   2.671856 S    
C169  C177  1.406922 A    
C138  C170  1.414438 A    
C205  H75   1.105683 S    
C84   C148  1.423789 A    
Cu3   Cu8   2.669704 S    
C175  N11   1.436701 S    
O71   C195  1.418902 S    
C80   C88   1.414604 A    
C83   C147  1.419936 A    
C190  H29   1.101079 S    
O10   C5    1.294714 A    
O27   C11   1.289640 A    
O15   C4    1.299781 A    
C152  O72   1.384294 S    
C43   C67   1.423313 A    
C101  C141  1.409571 A    
C93   C162  1.393327 A    
O14   C1    1.307868 A    
O33   C183  1.301555 A    
C161  H21   1.073999 S    
O34   C184  1.311600 A    
C1    C130  1.499382 S    
C33   C43   1.405082 A    
Cu5   O21   1.979288 S    
C4    O20   1.295336 A    
C24   C32   1.404541 A    
N5    O61   1.301085 A    
C39   C42   1.401283 A    
C165  C173  1.401111 A    
C95   C164  1.393523 A    
C166  O78   1.380660 S    
C92   C100  1.412740 A    
C61   O49   1.383165 S    
C88   C96   1.413546 A    
C62   O50   1.388578 S    
C91   C179  1.411757 A    
C198  H52   1.114877 S    
C22   C30   1.403128 A    
N11   O89   1.300692 A    
C22   C40   1.408748 A    
C84   C92   1.404921 A    
C46   C66   1.418425 A    
C85   C93   1.428625 A    
C104  C144  1.403705 A    
C167  O79   1.381922 S    
C35   C44   1.404896 A    
C164  H24   1.072342 S    
C83   C91   1.419856 A    
C174  N10   1.435692 S    
C48   C70   1.417564 A    
C135  C143  1.415371 A    
C157  H17   1.078803 S    
C168  C176  1.386324 A    
C56   C61   1.410497 A    
C133  C165  1.403821 A    
C17   C35   1.401695 A    
C78   C86   1.425327 A    
C109  C117  1.416205 A    
C170  O82   1.383732 S    
C17   C25   1.404366 A    
O34   Cu12  1.976169 S    
C190  H30   1.109504 S    
Cu2   O26   1.977179 S    
C192  H35   1.115628 S    
C23   C37   1.398144 A    
C2    O18   1.294425 A    
C163  H23   1.080977 S    
C11   C60   1.503017 S    
C24   C69   1.396490 A    
N13   O94   1.300282 A    
C121  N5    1.436309 S    
C134  C142  1.408219 A    
C89   C97   1.417126 A    
O15   Cu7   1.968985 S    
C152  C160  1.391144 A    
C202  H65   1.117147 S    
O69   C193  1.410616 S    
C199  H56   1.111710 S    
C37   C39   1.410330 A    
H4    C29   1.083815 S    
C195  H44   1.114156 S    
C156  O76   1.393192 S    
C107  C155  1.421645 A    
Cu4   O20   1.978622 S    
Cu10  O46   1.982432 S    
N7    O66   1.300916 A    
C92   C180  1.414622 A    
O1    C14   1.308527 A    
C206  H77   1.116309 S    
C193  H37   1.113728 S    
C140  C148  1.412496 A    
C50   C68   1.414268 A    
N15   O97   1.301785 A    
C22   C71   1.403246 A    
C111  C181  1.486283 S    
O49   C189  1.408482 S    
N3    O58   1.302593 A    
O8    C11   1.310222 A    
O81   C205  1.416355 S    
O9    Cu1   1.969254 S    
Cu11  Cu12  2.675976 S    
C19   C74   1.399869 A    
Cu9   O45   1.982431 S    
N6    O63   1.302495 A    
O31   C15   1.288228 A    
N16   O99   1.301361 A    
O32   C16   1.290511 A    
Cu12  O42   1.982432 S    
N4    O59   1.302659 A    
C23   C70   1.390867 A    
C131  C139  1.414448 A    
O50   C190  1.414414 S    
C172  O84   1.384348 S    
C129  C137  1.421402 A    
O2    Cu2   1.970457 S    
C127  C135  1.426210 A    
O4    Cu4   1.972552 S    
C171  C179  1.392224 A    
C154  C162  1.406919 A    
C194  H42   1.105925 S    
O52   C192  1.415889 S    
N1    O54   1.302471 A    
C204  H70   1.111039 S    
C124  N8    1.436900 S    
Cu7   O23   1.978623 S    
C187  O47   1.291122 A    
C79   C87   1.412633 A    
Cu8   O24   1.978622 S    
C7    O23   1.288625 A    
C52   C74   1.422667 A    
C8    O24   1.300537 A    
O6    C9    1.306910 A    
C116  C186  1.490166 S    
C201  H61   1.112756 S    
C48   C65   1.412706 A    
Cu1   O25   1.977179 S    
C172  C180  1.403987 A    
C54   C62   1.410223 A    
C18   C36   1.400617 A    
C132  C140  1.429544 A    
O16   Cu8   1.968985 S    
C197  H49   1.112292 S    
C198  H54   1.104266 S    
C70   H10   1.069843 S    
C74   H14   1.075875 S    
C206  H76   1.111212 S    
