data_mof_unit_19187.cif
_audit_creation_date              2012-10-26T18:33:35-0400
_audit_creation_method            fapswitch 2.2
_symmetry_space_group_name_H-M    P1
_symmetry_Int_Tables_number       1
_space_group_crystal_system       triclinic
_cell_length_a                    15.29706
_cell_length_b                    13.92709
_cell_length_c                    11.107408
_cell_angle_alpha                 89.521586
_cell_angle_beta                  88.348109
_cell_angle_gamma                 89.001033
_cell_volume                      2364.94558962

loop_
_atom_site_label
_atom_site_type_symbol
_atom_type_description
_atom_site_fract_x
_atom_site_fract_y
_atom_site_fract_z
_atom_type_partial_charge
Br1   Br    Br    0.456557 0.704545 0.098463 -0.236198
Br2   Br    Br    0.598314 0.307660 0.132739 -0.276842
Br3   Br    Br    0.236503 0.318979 0.362554 -0.141019
Br4   Br    Br    0.320125 0.489885 0.882781 -0.358974
Br5   Br    Br    0.496455 0.272987 0.846582 -0.188994
Br6   Br    Br    0.755062 0.381491 0.288333 -0.373009
C1    C     C_R   0.328091 0.500092 0.495403 0.607953
C2    C     C_R   0.040482 0.622469 0.642263 -0.065295
C3    C     C_R   0.088412 0.563114 0.561866 0.014895
C4    C     C_R   0.502707 0.499573 0.260281 0.589538
C5    C     C_R   0.044331 0.504423 0.481390 0.001757
C6    C     C_R   0.092058 0.445566 0.398250 0.013650
C7    C     C_R   0.044006 0.392017 0.313122 0.238551
C8    C     C_R   0.954171 0.384651 0.329039 -0.049829
C9    C     C_R   0.179655 0.561246 0.562467 -0.116176
C10   C     C_R   0.229604 0.499804 0.487608 -0.015352
C11   C     C_R   0.183825 0.436777 0.411506 0.217391
C12   C     C_3   0.597972 0.549841 0.927581 0.311579
C13   C     C_R   0.436370 0.800309 0.560859 0.425171
C14   C     C_R   0.431276 0.201377 0.549131 0.392514
C15   C     C_R   0.568872 0.790443 0.442411 0.057076
C16   C     C_R   0.570164 0.207345 0.445333 0.094352
C17   C     C_R   0.575128 0.894078 0.437597 -0.042536
C18   C     C_R   0.577346 0.103388 0.442620 -0.030443
C19   C     C_R   0.670956 0.499797 0.499419 0.597221
C20   C     C_R   0.510806 0.948167 0.498684 -0.058475
C21   C     C_R   0.508167 0.051141 0.492107 -0.053817
C22   C     C_R   0.446180 0.900862 0.567851 -0.012598
C23   C     C_R   0.815136 0.442619 0.413347 0.159626
C24   C     C_R   0.433424 0.100302 0.536709 -0.012172
C25   C     C_R   0.643089 0.946057 0.375936 0.254561
C26   C     C_R   0.649755 0.049039 0.391967 0.258384
C27   C     C_R   0.362527 0.043813 0.574236 0.278084
C28   C     C_R   0.385795 0.959238 0.631407 0.278807
C29   C     C_R   0.506243 0.499255 0.739822 0.645061
C30   C     C_3   0.430186 0.567138 0.072866 0.302293
C31   C     C_3   0.502467 0.387128 0.070770 0.292443
C32   C     C_3   0.426515 0.549033 0.933717 0.008830
C33   C     C_3   0.518632 0.391385 0.932096 0.066143
C34   C     C_R   0.767640 0.500021 0.495723 0.045692
C35   C     C_3   0.593032 0.541669 0.071379 -0.276078
C36   C     C_3   0.504313 0.497310 0.122803 -0.107451
C37   C     C_3   0.512170 0.497439 0.878503 -0.102102
C38   C     C_R   0.812950 0.561675 0.570300 -0.080798
C39   C     C_R   0.904464 0.563015 0.567428 0.023471
C40   C     C_R   0.951953 0.503146 0.486474 0.030559
C41   C     C_R   0.906928 0.441842 0.410875 -0.002272
C42   C     C_R   0.949215 0.622921 0.644441 -0.063004
Cu1   Cu    Cu3+1 0.499990 0.597420 0.500010 1.180110
Cu2   Cu    Cu3+1 0.499990 0.402580 0.500010 1.204682
H1    H     H_    0.073694 0.668404 0.703900 0.167023
H2    H     H_    0.777392 0.608583 0.630915 0.211909
H3    H     H_    0.913643 0.669316 0.707298 0.170453
H4    H     H_    0.162387 0.410768 0.026053 0.409768
H5    H     H_    0.305853 0.679265 0.773526 0.380633
H6    H     H_    0.281110 0.376513 0.694705 0.369566
H7    H     H_    0.799176 0.917139 0.119048 0.392264
H8    H     H_    0.888173 0.065391 0.350321 0.390096
H9    H     H_    0.231640 0.921191 0.355001 0.397507
H10   H     H_    0.470423 0.025463 0.921234 0.408504
H11   H     H_    0.263793 0.655297 0.293101 0.382995
H12   H     H_    0.211014 0.603507 0.628242 0.207439
H13   H     H_    0.386540 0.154383 0.095598 0.396575
H14   H     H_    0.664484 0.745647 0.716863 0.362866
H15   H     H_    0.790342 0.377667 0.928280 0.410651
H16   H     H_    0.920999 0.336517 0.270731 0.226915
H17   H     H_    0.619547 0.746384 0.400629 0.194769
H18   H     H_    0.620402 0.249666 0.402137 0.223904
H19   H     H_    0.418300 0.619268 0.890373 0.223519
H20   H     H_    0.587318 0.372213 0.917644 0.214934
H21   H     H_    0.606486 0.611452 0.113289 0.212030
H22   H     H_    0.647694 0.497559 0.105699 0.218612
N1    N     N_R   0.499930 0.743810 0.499950 -0.259604
N2    N     N_R   0.499930 0.256190 0.499950 -0.266201
O1    O     O_R   0.370250 0.582280 0.500040 -0.397767
O2    O     O_2   0.009965 0.351868 0.082924 -0.258600
O3    O     O_3   0.162133 0.420806 0.114218 -0.391094
O4    O     O_2   0.270773 0.827680 0.671578 -0.234371
O5    O     O_2   0.282971 0.730722 0.496468 -0.253784
O6    O     O_3   0.342751 0.663225 0.701512 -0.527433
O7    O     O_2   0.256237 0.228111 0.589589 -0.226993
O8    O     O_2   0.340012 0.180679 0.758728 -0.162281
O9    O     O_3   0.343034 0.354591 0.697667 -0.438489
O10   O     O_2   0.783273 0.830947 0.337794 -0.250439
O11   O     O_2   0.660827 0.812160 0.203308 -0.245727
O12   O     O_R   0.370250 0.417720 0.500040 -0.449193
O13   O     O_3   0.759076 0.958341 0.168523 -0.398145
O14   O     O_2   0.752337 0.151811 0.241893 -0.162603
O15   O     O_2   0.763479 0.183452 0.457750 -0.271296
O16   O     O_3   0.835861 0.028423 0.375227 -0.422346
O17   O     O_2   0.190817 0.044857 0.534915 -0.161447
O18   O     O_2   0.286813 0.106839 0.371880 -0.203495
O19   O     O_3   0.283215 0.923535 0.406728 -0.479121
O20   O     O_2   0.303516 0.001061 0.841130 -0.158590
O21   O     O_2   0.401586 0.860905 0.839994 -0.190271
O22   O     O_3   0.471404 0.029188 0.832129 -0.464976
O23   O     O_R   0.499970 0.582270 0.317700 -0.469592
O24   O     O_2   0.251449 0.599342 0.079410 -0.205704
O25   O     O_2   0.308306 0.469550 0.206823 -0.197918
O26   O     O_3   0.326374 0.642079 0.273342 -0.445597
O27   O     O_2   0.398386 0.301028 0.244183 -0.189722
O28   O     O_2   0.328449 0.332335 0.051840 -0.134327
O29   O     O_3   0.438303 0.192546 0.071396 -0.427184
O30   O     O_2   0.524799 0.729071 0.859567 -0.229802
O31   O     O_2   0.664615 0.728924 0.959070 -0.177787
O32   O     O_3   0.658491 0.676723 0.737733 -0.495992
O33   O     O_2   0.693420 0.452922 0.752807 -0.308813
O34   O     O_R   0.499970 0.417730 0.317700 -0.453236
O35   O     O_2   0.774599 0.565927 0.872167 -0.209599
O36   O     O_3   0.735989 0.403649 0.967270 -0.483637
O37   O     O_R   0.629730 0.582260 0.499980 -0.534323
O38   O     O_R   0.629730 0.417740 0.499980 -0.483692
O39   O     O_R   0.500000 0.582270 0.682320 -0.428625
O40   O     O_R   0.500000 0.417730 0.682320 -0.428076
O41   O     O_2   0.117035 0.248089 0.179788 -0.154791
S1    S     S_3+6 0.083550 0.349865 0.170061 0.113947
S2    S     S_3+6 0.608943 0.674869 0.874273 0.106345
S3    S     S_3+6 0.702756 0.493469 0.876267 0.039067
S4    S     S_3+6 0.330458 0.756727 0.607473 0.091475
S5    S     S_3+6 0.341932 0.242932 0.647929 0.137128
S6    S     S_3+6 0.713000 0.883576 0.270599 0.094192
S7    S     S_3+6 0.751506 0.106880 0.365344 0.099905
S8    S     S_3+6 0.277854 0.032694 0.470104 0.117141
S9    S     S_3+6 0.388400 0.960430 0.790631 0.126913
S10   S     S_3+6 0.325715 0.566522 0.156328 0.118226
S11   S     S_3+6 0.412370 0.306300 0.110982 0.188456

loop_
_geom_bond_atom_site_label_1
_geom_bond_atom_site_label_2
_ccdc_geom_bond_type
O21   S9    D    
Cu1   O39   S    
C4    C36   S    
C35   C36   S    
C4    O34   A    
C30   S10   S    
C18   C21   A    
O8    S5    D    
O36   S3    S    
C18   C26   A    
O25   S10   D    
C14   C24   A    
C39   C40   A    
O7    S5    D    
C20   C21   A    
C23   C41   A    
O30   S2    D    
Cu2   N2    S    
C19   C34   S    
C1    O12   A    
O15   S7    D    
C9    C10   A    
C15   N1    A    
C29   O40   A    
C17   C20   A    
C31   C36   S    
O29   S11   S    
C19   O38   A    
C30   C36   S    
C33   H20   S    
O24   S10   D    
C10   C11   A    
O5    S4    D    
C6    C11   A    
Cu1   O1    S    
O11   S6    D    
O3    S1    S    
C29   C37   S    
C12   S3    S    
O33   S3    D    
C35   H21   S    
H4    O3    S    
C38   H2    S    
C32   H19   S    
C13   S4    S    
O17   S8    D    
C7    C8    A    
C15   H17   S    
C21   C24   A    
Cu2   O34   S    
O16   S7    S    
O31   S2    D    
O35   S3    D    
C27   C28   A    
C42   H3    S    
O22   S9    S    
O26   S10   S    
C26   S7    S    
C13   N1    A    
C25   S6    S    
O14   S7    D    
C12   C35   S    
O13   S6    S    
C19   O37   A    
C2    C3    A    
C33   C37   S    
O10   S6    D    
C29   O39   A    
Cu1   O23   S    
H7    O13   S    
Cu2   O40   S    
C17   C25   A    
O9    S5    S    
C4    O23   A    
C2    C42   A    
H8    O16   S    
C25   C26   A    
C12   S2    S    
Cu2   O38   S    
O27   S11   D    
C8    H16   S    
C14   N2    A    
C13   C22   A    
C3    C5    A    
C2    H1    S    
C16   H18   S    
C35   H22   S    
H10   O22   S    
H13   O29   S    
C1    C10   S    
Br4   C32   S    
C15   C17   A    
O32   S2    S    
C16   C18   A    
O18   S8    D    
H11   O26   S    
C16   N2    A    
C14   S5    S    
C38   C39   A    
H6    O9    S    
C31   S11   S    
C39   C42   A    
C40   C41   A    
C28   S9    S    
C24   C27   A    
O19   S8    S    
O28   S11   D    
C1    O1    A    
C5    C6    A    
H14   O32   S    
C8    C41   A    
C20   C22   A    
Cu1   O37   S    
Br5   C33   S    
O4    S4    D    
C3    C9    A    
C32   C37   S    
C31   C33   S    
C12   C37   S    
H5    O6    S    
Br2   C31   S    
C23   C34   A    
C30   C32   S    
O2    S1    D    
C9    H12   S    
Br3   C11   S    
Cu1   N1    S    
H15   O36   S    
O6    S4    S    
C7    S1    S    
Cu2   O12   S    
C22   C28   A    
C34   C38   A    
Br6   C23   S    
C6    C7    A    
Cu1   Cu2   S    
C27   S8    S    
C5    C40   A    
H9    O19   S    
O41   S1    D    
Br1   C30   S    
O20   S9    D    
