data_mof_unit_53483.cif
_audit_creation_date              2012-12-11T17:07:36-0500
_audit_creation_method            fapswitch 2.2
_symmetry_space_group_name_H-M    P1
_symmetry_Int_Tables_number       1
_space_group_crystal_system       triclinic
_cell_length_a                    6.989216
_cell_length_b                    14.405067
_cell_length_c                    16.250306
_cell_angle_alpha                 90.062469
_cell_angle_beta                  90.118208
_cell_angle_gamma                 90.069709
_cell_volume                      1636.07716566

loop_
_atom_site_label
_atom_site_type_symbol
_atom_type_description
_atom_site_fract_x
_atom_site_fract_y
_atom_site_fract_z
_atom_type_partial_charge
O1    O     O_R   0.505720 0.583900 0.413310 -0.538797
O2    O     O_R   0.175940 0.594920 0.586080 -0.531560
O3    O     O_R   0.005640 0.416100 0.586690 -0.546663
C1    C     C_R   0.345165 0.618031 0.613851 0.704668
O4    O     O_R   0.176000 0.594930 0.413930 -0.512744
O5    O     O_R   0.005700 0.416110 0.413310 -0.532710
C2    C     C_R   0.344587 0.616041 0.384538 0.716162
O6    O     O_R   0.505660 0.583890 0.586690 -0.522733
O7    O     O_3   0.339200 0.441330 0.500000 -0.386494
V1    V     V_3+5 0.064350 0.510880 0.500000 1.521767
O8    O     O_R   0.675980 0.405080 0.413920 -0.549813
C3    C     C_R   0.844911 0.381824 0.386344 0.745935
O9    O     O_R   0.675920 0.405070 0.586070 -0.545272
C4    C     C_R   0.845061 0.383286 0.614467 0.669404
V2    V     V_3+5 0.564340 0.489120 0.500000 1.471533
O10   O     O_3   0.839360 0.558670 0.500000 -0.325857
H1    H     H_    0.540020 0.089177 0.535799 0.116442
C5    C     C_R   0.043191 0.428809 0.765734 -0.158908
C6    C     C_R   0.139453 0.453899 0.837004 -0.135958
C7    C     C_R   0.129841 0.397550 0.905599 -0.152560
C8    C     C_R   0.024330 0.315043 0.903417 -0.002085
C9    C     C_R   0.950941 0.279881 0.827153 0.061639
C10   C     C_R   0.951835 0.341125 0.757997 0.057977
C11   C     C_R   0.874655 0.187908 0.818110 -0.173507
C12   C     C_R   0.784459 0.162143 0.742679 0.050806
C13   C     C_R   0.774269 0.226259 0.676112 0.071981
C14   C     C_R   0.856951 0.315805 0.683805 -0.172768
C15   C     C_R   0.705311 0.072170 0.731300 -0.102750
C16   C     C_R   0.615227 0.047208 0.658075 -0.069883
C17   C     C_R   0.606942 0.109494 0.593214 -0.111357
C18   C     C_R   0.687371 0.197445 0.601366 -0.141606
H2    H     H_    0.042094 0.480160 0.717583 0.126820
H3    H     H_    0.190553 0.422772 0.962889 0.130904
C19   C     C_R   0.718296 0.187058 0.237027 0.127996
C20   C     C_R   0.880865 0.180596 0.187122 -0.083679
C21   C     C_R   0.035014 0.238624 0.207283 -0.175862
H4    H     H_    0.158269 0.238765 0.168693 0.106014
C22   C     C_R   0.024386 0.302720 0.272484 -0.127016
C23   C     C_R   0.858279 0.310242 0.320856 -0.094228
C24   C     C_R   0.709008 0.247999 0.304114 0.057591
C25   C     C_3   0.504101 0.269756 0.288526 -0.408217
C26   C     C_3   0.516793 0.207669 0.212718 -0.223979
H5    H     H_    0.424118 0.144984 0.215899 0.108140
C27   C     C_R   0.502299 0.684094 0.740351 0.007786
C28   C     C_R   0.355244 0.686906 0.681928 -0.146347
C29   C     C_R   0.227849 0.761816 0.685924 -0.165694
H6    H     H_    0.130470 0.771750 0.635332 0.196664
C30   C     C_R   0.240989 0.830193 0.748471 0.008106
C31   C     C_R   0.378384 0.819935 0.812872 -0.147854
C32   C     C_R   0.508767 0.745939 0.807178 0.009569
C33   C     C_3   0.721944 0.754903 0.801115 -0.234670
C34   C     C_3   0.712271 0.694685 0.724287 -0.221271
H7    H     H_    0.770286 0.827642 0.790795 0.161160
C35   C     C_R   0.507937 0.682524 0.258651 0.015076
C36   C     C_R   0.352382 0.680949 0.313374 -0.078209
C37   C     C_R   0.202309 0.743965 0.297932 -0.138282
C38   C     C_R   0.214250 0.809002 0.233245 -0.208885
H8    H     H_    0.101760 0.858758 0.224942 0.172207
C39   C     C_R   0.377259 0.815133 0.183250 -0.080211
C40   C     C_R   0.523923 0.752065 0.198955 0.049771
C41   C     C_3   0.728062 0.770968 0.220476 -0.229470
C42   C     C_3   0.716718 0.686865 0.277600 -0.266761
H9    H     H_    0.748538 0.700570 0.343655 0.156721
O11   O     O_R   0.229140 0.916090 0.913340 -0.525050
O12   O     O_R   0.558860 0.905090 0.086080 -0.517217
O13   O     O_R   0.729100 0.083920 0.086690 -0.526779
C43   C     C_R   0.390108 0.884233 0.115599 0.730889
O14   O     O_R   0.558860 0.905090 0.913930 -0.544718
O15   O     O_R   0.729100 0.083920 0.913310 -0.530802
C44   C     C_R   0.390225 0.885695 0.883418 0.684535
O16   O     O_R   0.229140 0.916080 0.086720 -0.537650
O17   O     O_3   0.395570 0.058660 0.000020 -0.393108
V3    V     V_3+5 0.670450 0.989140 0.000000 1.524177
O18   O     O_R   0.058810 0.094980 0.913910 -0.560146
C45   C     C_R   0.889511 0.117325 0.885551 0.726242
O19   O     O_R   0.058810 0.094980 0.086060 -0.566999
C46   C     C_R   0.890248 0.115306 0.116092 0.778890
V4    V     V_3+5 0.170450 0.010950 0.999970 1.449683
O20   O     O_3   0.895460 0.941370 0.999990 -0.344086
H10   H     H_    0.142177 0.350170 0.282055 0.141971
H11   H     H_    0.480297 0.344769 0.276117 0.200868
H12   H     H_    0.410821 0.240478 0.337396 0.152079
C47   C     C_2   0.503563 0.259704 0.132006 0.461801
H13   H     H_    0.443556 0.225151 0.078545 0.067062
O21   O     O_2   0.562456 0.339250 0.125342 -0.512549
C48   C     C_2   0.127603 0.916894 0.739017 0.306363
H14   H     H_    0.150469 0.975910 0.779109 0.064174
O22   O     O_2   0.011092 0.925134 0.683471 -0.556239
C49   C     C_2   0.821493 0.708140 0.871881 0.406806
H15   H     H_    0.783419 0.637740 0.889309 0.052119
O23   O     O_2   0.946297 0.748924 0.910134 -0.523044
H16   H     H_    0.791103 0.627661 0.727524 0.133356
C50   C     C_2   0.746734 0.750156 0.646960 0.420968
H17   H     H_    0.697491 0.821395 0.642646 0.073366
O24   O     O_2   0.823302 0.714775 0.587504 -0.525191
H18   H     H_    0.079801 0.746137 0.338340 0.135668
C51   C     C_2   0.747199 0.861433 0.267299 0.339200
H19   H     H_    0.727906 0.863554 0.333550 0.063789
O25   O     O_2   0.778258 0.933799 0.230714 -0.546438
H20   H     H_    0.826147 0.763703 0.167006 0.151957
C52   C     C_2   0.816953 0.603237 0.242778 0.408470
H21   H     H_    0.793596 0.582744 0.179193 0.074413
O26   O     O_2   0.925008 0.557665 0.285452 -0.530499
H22   H     H_    0.211874 0.520313 0.840622 0.133715
C53   C     C_2   0.963129 0.281019 0.984193 0.373761
H23   H     H_    0.063463 0.280249 0.035002 0.020957
O27   O     O_2   0.795595 0.261768 0.996085 -0.531448
H24   H     H_    0.713328 0.018988 0.777897 0.106772
H25   H     H_    0.553954 0.978573 0.651272 0.103689
H26   H     H_    0.682491 0.241569 0.547692 0.106041

loop_
_geom_bond_atom_site_label_1
_geom_bond_atom_site_label_2
_ccdc_geom_bond_type
C36   C37   A    
C50   H17   S    
C25   C26   S    
C6    C7    A    
C19   C26   S    
C2    C36   S    
C1    O6    A    
C51   H19   S    
C35   C40   A    
C28   C29   A    
C12   C15   A    
C53   O27   D    
C13   C14   A    
C42   H9    S    
C19   C24   A    
C16   H25   S    
C15   C16   A    
O19   V4    S    
C19   C20   A    
O5    C3    A    
C17   C18   A    
C48   O22   D    
C38   C39   A    
V2    O10   S    
O12   V3    S    
C37   C38   A    
C5    C6    A    
O17   V4    S    
C39   C43   S    
C35   C36   A    
O8    V2    S    
C20   C21   A    
O12   C43   A    
O15   V3    S    
O1    V2    S    
C10   C14   A    
C4    C14   S    
C49   O23   D    
O7    V1    S    
C43   O16   A    
C42   C52   S    
C27   C34   S    
C13   C18   A    
C50   O24   D    
O1    C2    A    
C8    C9    A    
H1    C17   S    
C51   O25   D    
C1    C28   S    
C29   C30   A    
O18   C45   A    
C5    C10   A    
C52   H21   S    
C11   C12   A    
C23   C24   A    
O4    C2    A    
V4    O20   S    
C35   C42   S    
C12   C13   A    
O13   V3    S    
C20   C46   S    
C33   C34   S    
C40   C41   S    
C33   H7    S    
O2    C1    A    
C16   C17   A    
C6    H22   S    
C47   H13   S    
C25   H11   S    
C32   C33   S    
V3    O20   S    
C34   C50   S    
O19   C46   A    
O3    C4    A    
C7    H3    S    
O14   C44   A    
C24   C25   S    
C47   O21   D    
O6    V2    S    
O11   C44   A    
C31   C44   S    
O9    V2    S    
C9    C11   A    
C34   H16   S    
C41   H20   S    
C5    H2    S    
C26   H5    S    
O2    V1    S    
C27   C28   A    
C27   C32   A    
C37   H18   S    
O13   C46   A    
C29   H6    S    
C21   H4    S    
C48   H14   S    
O11   V4    S    
C41   C51   S    
C26   C47   S    
O17   V3    S    
O5    V1    S    
O8    C3    A    
C11   C45   S    
C53   H23   S    
C3    C23   S    
C21   C22   A    
O14   V3    S    
O4    V1    S    
O3    V1    S    
V1    O10   S    
C33   C49   S    
C38   H8    S    
C22   C23   A    
C22   H10   S    
C15   H24   S    
C30   C31   A    
C25   H12   S    
C18   H26   S    
O15   C45   A    
C30   C48   S    
O7    V2    S    
C41   C42   S    
C39   C40   A    
C7    C8    A    
C52   O26   D    
C31   C32   A    
O18   V4    S    
C9    C10   A    
C49   H15   S    
O9    C4    A    
O16   V4    S    
C8    C53   S    
