data_mof_unit_32396.cif
_audit_creation_date              2012-10-26T21:18:05-0400
_audit_creation_method            fapswitch 2.2
_symmetry_space_group_name_H-M    P1
_symmetry_Int_Tables_number       1
_space_group_crystal_system       triclinic
_cell_length_a                    14.666588
_cell_length_b                    14.809302
_cell_length_c                    27.798457
_cell_angle_alpha                 76.620435
_cell_angle_beta                  102.712973
_cell_angle_gamma                 114.794564
_cell_volume                      5280.53001256

loop_
_atom_site_label
_atom_site_type_symbol
_atom_type_description
_atom_site_fract_x
_atom_site_fract_y
_atom_site_fract_z
_atom_type_partial_charge
C1    C     C_R   0.880297 0.312552 0.508395 0.549977
C2    C     C_R   0.928941 0.417744 0.129486 0.022136
C3    C     C_R   0.999346 0.500820 0.645278 -0.005579
C4    C     C_R   0.000881 0.499370 0.354747 -0.005396
C5    C     C_R   0.927091 0.417163 0.027243 0.017485
C6    C     C_R   0.070238 0.583429 0.972442 0.017352
C7    C     C_R   0.073913 0.580453 0.024305 0.017363
C8    C     C_R   0.928183 0.416704 0.976270 0.017457
C9    C     C_R   0.001058 0.498265 0.051158 0.033095
C10   C     C_R   0.998662 0.500643 0.948969 0.033102
C11   C     C_R   0.853939 0.339296 0.055355 -0.141905
C12   C     C_R   0.119704 0.687447 0.491597 0.549830
C13   C     C_R   0.135441 0.667019 0.942853 -0.141999
C14   C     C_R   0.855189 0.339675 0.105395 -0.116114
C15   C     C_R   0.133091 0.667561 0.892586 -0.115912
C16   C     C_R   0.999674 0.500209 0.592442 0.552703
C17   C     C_R   0.000386 0.499864 0.407563 0.552552
C18   C     C_R   0.861342 0.334636 0.951437 -0.142128
C19   C     C_R   0.148700 0.656788 0.050616 -0.142206
C20   C     C_R   0.812996 0.205472 0.512841 0.000243
C21   C     C_R   0.187018 0.794526 0.487117 0.000208
C22   C     C_R   0.786326 0.029641 0.528919 -0.135155
C23   C     C_R   0.997666 0.501748 0.897555 -0.027588
C24   C     C_R   0.213724 0.970366 0.470985 -0.135213
C25   C     C_R   0.851729 0.130489 0.523753 -0.135765
C26   C     C_R   0.148307 0.869524 0.476197 -0.135833
C27   C     C_R   0.708333 0.178638 0.505735 -0.131195
C28   C     C_R   0.291675 0.821338 0.494183 -0.131276
C29   C     C_R   0.639883 0.077538 0.507176 0.020588
C30   C     C_R   0.360149 0.922437 0.492694 0.020569
C31   C     C_R   0.679983 0.001223 0.521851 0.054136
C32   C     C_R   0.320062 0.998763 0.478012 0.054150
C33   C     C_R   0.533072 0.051146 0.495806 0.008215
C34   C     C_R   0.002085 0.497258 0.102563 -0.027575
C35   C     C_R   0.466964 0.948817 0.504035 0.008215
C36   C     C_R   0.509129 0.875547 0.524195 -0.110719
C37   C     C_R   0.490917 0.124412 0.475617 -0.110705
C38   C     C_R   0.613786 0.898994 0.530853 0.017599
C39   C     C_R   0.386264 0.100980 0.468962 0.017630
C40   C     C_R   0.930063 0.421469 0.823325 0.388719
C41   C     C_R   0.075140 0.573944 0.177776 0.389164
C42   C     C_R   0.715538 0.668342 0.417151 -0.161217
C43   C     C_R   0.284252 0.331371 0.582705 -0.161384
C44   C     C_R   0.798615 0.640833 0.431193 0.041135
C45   C     C_R   0.929036 0.419308 0.873953 0.022544
C46   C     C_R   0.201296 0.359064 0.568751 0.040932
C47   C     C_R   0.713551 0.508596 0.492305 0.027313
C48   C     C_R   0.286401 0.491337 0.507660 0.027274
C49   C     C_R   0.630790 0.539133 0.483098 -0.009952
C50   C     C_R   0.369020 0.460626 0.516776 -0.009876
C51   C     C_R   0.630025 0.615297 0.441887 0.023480
C52   C     C_R   0.369722 0.384351 0.557937 0.023425
C53   C     C_R   0.546331 0.492937 0.510820 -0.003656
C54   C     C_R   0.453427 0.506759 0.489020 -0.003608
C55   C     C_R   0.449790 0.566478 0.440693 -0.008900
C56   C     C_R   0.076154 0.575856 0.127173 0.022737
C57   C     C_R   0.549914 0.433150 0.559129 -0.008708
C58   C     C_R   0.541033 0.631132 0.422552 -0.106162
C59   C     C_R   0.458651 0.368384 0.577214 -0.106123
C60   C     C_R   0.063848 0.584350 0.819053 0.390537
C61   C     C_R   0.930653 0.418768 0.180044 0.390052
C62   C     C_R   0.938263 0.541013 0.708571 -0.074867
C63   C     C_R   0.060296 0.457032 0.291577 -0.075353
C64   C     C_R   0.938072 0.540217 0.658543 -0.157157
C65   C     C_R   0.060549 0.458006 0.341587 -0.157625
C66   C     C_R   0.061018 0.462381 0.682885 -0.120898
C67   C     C_R   0.861787 0.336234 0.901353 -0.116433
C68   C     C_R   0.941086 0.539983 0.317063 -0.120858
C69   C     C_R   0.061286 0.462548 0.733288 0.045359
C70   C     C_R   0.940926 0.539833 0.266669 0.045474
C71   C     C_R   0.999171 0.502149 0.745989 0.265229
C72   C     C_R   0.001016 0.497767 0.254074 0.265153
C73   C     C_3   0.352116 0.554185 0.404529 -0.289799
C74   C     C_3   0.357590 0.537089 0.353090 -0.428751
C75   C     C_3   0.647495 0.445636 0.595378 -0.289562
C76   C     C_3   0.641648 0.462726 0.646754 -0.429671
C77   C     C_3   0.127356 0.420737 0.773169 -0.374626
C78   C     C_R   0.149430 0.654473 0.100912 -0.116295
C79   C     C_3   0.877475 0.584690 0.226685 -0.374569
C80   C     C_3   0.656480 0.816801 0.548878 -0.282815
C81   C     C_3   0.579572 0.708394 0.558386 -0.440615
C82   C     C_3   0.343580 0.183176 0.450900 -0.282895
C83   C     C_3   0.420492 0.291556 0.441296 -0.440551
C84   C     C_R   0.065418 0.585226 0.869617 0.022181
Cu1   Cu    Cu3+1 0.081740 0.475690 0.513040 0.929476
Cu2   Cu    Cu3+1 0.918260 0.524310 0.486960 0.929791
H1    H     H_    0.108518 0.431675 0.673043 0.126612
H2    H     H_    0.538945 0.200632 0.463511 0.113248
H3    H     H_    0.540053 0.685362 0.388948 0.116781
H4    H     H_    0.459609 0.314078 0.610789 0.116725
H5    H     H_    0.287070 0.557864 0.481558 0.119211
H6    H     H_    0.712944 0.442130 0.518444 0.119215
H7    H     H_    0.135180 0.318393 0.587743 0.123034
H8    H     H_    0.864741 0.681537 0.412211 0.122607
H9    H     H_    0.716893 0.728539 0.386162 0.093960
H10   H     H_    0.282847 0.271090 0.613654 0.094147
H11   H     H_    0.809041 0.271406 0.884204 0.163561
H12   H     H_    0.895082 0.572465 0.326848 0.125957
H13   H     H_    0.208077 0.715072 0.119167 0.163356
H14   H     H_    0.106672 0.425551 0.369930 0.125267
H15   H     H_    0.890649 0.571186 0.630268 0.125395
H16   H     H_    0.106196 0.424473 0.281816 0.116066
H17   H     H_    0.891011 0.571923 0.718421 0.115897
H18   H     H_    0.797403 0.278237 0.125131 0.163760
H19   H     H_    0.184990 0.733267 0.871741 0.163769
H20   H     H_    0.793049 0.277162 0.039757 0.109240
H21   H     H_    0.188629 0.734555 0.957058 0.109449
H22   H     H_    0.808331 0.266619 0.969706 0.109307
H23   H     H_    0.317751 0.761487 0.499051 0.115955
H24   H     H_    0.209290 0.719192 0.033751 0.109287
H25   H     H_    0.408412 0.606826 0.332070 0.157048
H26   H     H_    0.384770 0.475820 0.356953 0.153083
H27   H     H_    0.281067 0.515242 0.330807 0.148280
H28   H     H_    0.287661 0.486736 0.418193 0.145340
H29   H     H_    0.334709 0.622112 0.399905 0.147884
H30   H     H_    0.614292 0.523905 0.642791 0.153525
H31   H     H_    0.590807 0.392954 0.667744 0.156185
H32   H     H_    0.718064 0.484695 0.669126 0.145815
H33   H     H_    0.665097 0.377804 0.600082 0.147685
H34   H     H_    0.682227 0.238467 0.500877 0.115986
H35   H     H_    0.711905 0.513168 0.581743 0.145076
H36   H     H_    0.171550 0.392779 0.756981 0.113083
H37   H     H_    0.181634 0.480340 0.795151 0.157711
H38   H     H_    0.079575 0.357035 0.798504 0.157341
H39   H     H_    0.835687 0.615501 0.242779 0.112953
H40   H     H_    0.926921 0.646909 0.201415 0.154111
H41   H     H_    0.821166 0.526111 0.204655 0.161100
H42   H     H_    0.538481 0.697764 0.589696 0.151126
H43   H     H_    0.525112 0.688713 0.524097 0.161023
H44   H     H_    0.620283 0.656734 0.568748 0.153508
H45   H     H_    0.067293 0.850451 0.470675 0.127591
H46   H     H_    0.700711 0.819973 0.520337 0.147317
H47   H     H_    0.708758 0.832575 0.584292 0.145840
H48   H     H_    0.475021 0.311339 0.475552 0.161029
H49   H     H_    0.461502 0.302047 0.409977 0.151356
H50   H     H_    0.379797 0.343232 0.430906 0.153437
H51   H     H_    0.291227 0.167307 0.415515 0.145566
H52   H     H_    0.299433 0.180123 0.479451 0.147345
H53   H     H_    0.932747 0.149577 0.529304 0.127638
H54   H     H_    0.820702 0.974823 0.538862 0.101575
H55   H     H_    0.179364 0.025197 0.461041 0.101418
H56   H     H_    0.461117 0.799310 0.536275 0.113161
N1    N     N_R   0.997351 0.502888 0.797219 -0.397681
N2    N     N_R   0.002564 0.496559 0.202868 -0.397532
N3    N     N_R   0.795430 0.560780 0.467350 -0.232178
N4    N     N_R   0.204570 0.439220 0.532650 -0.232309
O1    O     O_R   0.977900 0.338120 0.517190 -0.507739
O2    O     O_2   0.145559 0.649033 0.201684 -0.507376
O3    O     O_2   0.860855 0.343010 0.206185 -0.503162
O4    O     O_2   0.128571 0.663841 0.791954 -0.502583
O5    O     O_R   0.022100 0.661880 0.482810 -0.507772
O6    O     O_R   0.839850 0.379180 0.495160 -0.510627
O7    O     O_R   0.160150 0.620820 0.504840 -0.510721
O8    O     O_R   0.069030 0.479490 0.580750 -0.502040
O9    O     O_R   0.930970 0.520510 0.419250 -0.501764
O10   O     O_R   0.930970 0.520550 0.558720 -0.505928
O11   O     O_R   0.069030 0.479450 0.441280 -0.506042
O12   O     O_2   0.864819 0.342758 0.800369 -0.506880

loop_
_geom_bond_atom_site_label_1
_geom_bond_atom_site_label_2
_ccdc_geom_bond_type
C21   C26   A    
C47   N3    A    
C75   C76   S    
C34   C56   A    
C80   H46   S    
C29   C33   A    
C27   C29   A    
C47   H6    S    
C37   H2    S    
C69   C77   S    
C35   C36   A    
C12   O7    A    
C13   H21   S    
C63   C65   A    
C40   N1    A    
C47   C49   A    
C3    C64   A    
C46   H7    S    
C50   C54   A    
Cu1   O11   S    
C30   C35   A    
C23   C45   A    
C40   O12   S    
C25   H53   S    
C24   C26   A    
C5    C11   A    
C82   H51   S    
C60   N1    A    
C74   H26   S    
C4    C65   A    
C11   C14   A    
C43   C52   A    
C57   C59   A    
C66   C69   A    
C20   C25   A    
C22   H54   S    
C56   C78   A    
C1    O6    A    
C7    C9    A    
C73   C74   S    
C32   C39   A    
C69   C71   A    
C36   H56   S    
C83   H48   S    
Cu2   O10   S    
C77   H36   S    
C76   H30   S    
C14   H18   S    
C49   C51   A    
C22   C25   A    
C48   N4    A    
C16   O10   A    
C50   C52   A    
C17   O11   A    
C83   H49   S    
C2    C61   A    
C42   C51   A    
C2    C34   A    
C48   C50   A    
C79   H39   S    
C12   O5    A    
C64   H15   S    
C42   C44   A    
C63   H16   S    
C43   C46   A    
C43   H10   S    
C68   H12   S    
C40   C45   A    
C37   C39   A    
C22   C31   A    
C42   H9    S    
C75   H33   S    
Cu1   N4    S    
C39   C82   S    
C41   N2    A    
C23   C84   A    
C74   H25   S    
C4    C68   A    
C53   C57   A    
C60   O4    S    
C18   C67   A    
C27   H34   S    
C74   H27   S    
C12   C21   S    
C48   H5    S    
C80   H47   S    
C76   H32   S    
C73   H28   S    
C59   H4    S    
C19   C78   A    
Cu2   O9    S    
C24   C32   A    
C41   C56   A    
C5    C9    A    
C77   H37   S    
C52   C59   A    
Cu2   O6    S    
C61   N2    A    
C81   H43   S    
C24   H55   S    
C11   H20   S    
C8    C18   A    
C44   N3    A    
C83   H50   S    
C51   C58   A    
Cu1   O7    S    
C15   C84   A    
Cu1   Cu2   S    
C6    C7    A    
C4    C17   S    
C8    C10   A    
C21   C28   A    
C7    C19   A    
C13   C15   A    
C81   H42   S    
C16   O8    A    
C9    C34   A    
C10   C23   A    
C1    O1    A    
C3    C66   A    
C17   O9    A    
Cu2   N3    S    
C66   H1    S    
C71   N1    S    
C62   H17   S    
C19   H24   S    
C72   N2    S    
C79   H41   S    
C54   C55   A    
C1    C20   S    
C70   C79   S    
C75   H35   S    
C79   H40   S    
Cu1   O1    S    
C65   H14   S    
C80   C81   S    
C6    C10   A    
C5    C8    A    
C53   C54   A    
C45   C67   A    
C20   C27   A    
C28   H23   S    
C76   H31   S    
C73   H29   S    
C31   C38   A    
C33   C37   A    
C57   C75   S    
C28   C30   A    
C62   C64   A    
C29   C31   A    
C77   H38   S    
Cu2   O5    S    
C82   H52   S    
C6    C13   A    
C30   C32   A    
C60   C84   A    
C15   H19   S    
C81   H44   S    
C46   N4    A    
C41   O2    S    
C38   C80   S    
C26   H45   S    
C49   C53   A    
C36   C38   A    
C33   C35   A    
C62   C71   A    
Cu1   O8    S    
C2    C14   A    
C58   H3    S    
C18   H22   S    
C44   H8    S    
C67   H11   S    
C55   C73   S    
C63   C72   A    
C68   C70   A    
C82   C83   S    
C55   C58   A    
C78   H13   S    
C70   C72   A    
C61   O3    S    
C3    C16   S    
