data_mof_unit_41505.cif
_audit_creation_date              2012-12-10T16:59:24-0500
_audit_creation_method            fapswitch 2.2
_symmetry_space_group_name_H-M    P1
_symmetry_Int_Tables_number       1
_space_group_crystal_system       triclinic
_cell_length_a                    19.341332
_cell_length_b                    10.945926
_cell_length_c                    9.713152
_cell_angle_alpha                 90.527468
_cell_angle_beta                  90.665998
_cell_angle_gamma                 90.185505
_cell_volume                      2056.12208891

loop_
_atom_site_label
_atom_site_type_symbol
_atom_type_description
_atom_site_fract_x
_atom_site_fract_y
_atom_site_fract_z
_atom_type_partial_charge
C1    C     C_R   0.499957 0.265438 0.499584 0.835620
C2    C     C_R   0.290881 0.495031 0.496598 -0.080540
C3    C     C_R   0.929191 0.511538 0.502191 0.398990
C4    C     C_R   0.069071 0.497356 0.501077 0.423411
C5    C     C_R   0.817373 0.427846 0.573947 -0.178982
C6    C     C_R   0.745712 0.424583 0.574334 -0.205071
C7    C     C_R   0.707740 0.511409 0.501964 -0.087578
C8    C     C_R   0.741814 0.606966 0.433232 -0.041467
C9    C     C_R   0.815195 0.613287 0.434755 0.070214
C10   C     C_R   0.852962 0.519146 0.502948 0.026862
C11   C     C_2   0.512593 0.932319 0.389250 -0.134260
C12   C     C_R   0.367401 0.497955 0.499066 0.770598
C13   C     C_2   0.507406 0.866561 0.504549 -0.309728
C14   C     C_2   0.513463 0.066467 0.389508 -0.157410
C15   C     C_2   0.498356 0.133448 0.501192 -0.339286
C16   C     C_2   0.446598 0.475224 0.921758 -0.103690
C17   C     C_2   0.452859 0.446550 0.072420 0.161011
C18   C     C_R   0.502399 0.734551 0.500699 0.856702
C19   C     C_R   0.632178 0.502009 0.500652 0.804921
C20   C     C_R   0.254407 0.410369 0.579626 0.124406
C21   C     C_R   0.181969 0.415192 0.584035 -0.190476
C22   C     C_R   0.145032 0.495913 0.500907 -0.004171
C23   C     C_R   0.180537 0.574277 0.413892 -0.190991
C24   C     C_R   0.252797 0.576120 0.410779 0.054924
Cu1   Cu    Cu3+1 0.500010 0.500020 0.638630 0.935114
Cu2   Cu    Cu3+1 0.499990 0.499980 0.361370 0.935000
H1    H     H_    0.508002 0.908028 0.606004 0.145900
H2    H     H_    0.525811 0.110880 0.293257 0.172806
H3    H     H_    0.484321 0.093040 0.598119 0.144403
H4    H     H_    0.396628 0.462964 0.872168 0.154327
H5    H     H_    0.546906 0.498658 0.895249 0.200660
H6    H     H_    0.529924 0.564111 0.108758 0.191304
H7    H     H_    0.153945 0.351054 0.647076 0.151649
H8    H     H_    0.151480 0.637036 0.350002 0.151664
H9    H     H_    0.845305 0.356563 0.627428 0.159043
H10   H     H_    0.719684 0.351894 0.628508 0.148752
H11   H     H_    0.515582 0.886896 0.289615 0.176050
N1    N     N_R   0.033597 0.532392 0.386977 -0.242975
N2    N     N_R   0.965024 0.538278 0.387300 -0.243837
N3    N     N_R   0.964575 0.473728 0.615645 -0.242261
N4    N     N_R   0.033303 0.466776 0.615170 -0.240383
N5    N     N_2   0.499250 0.498660 0.846910 -0.290032
N6    N     N_2   0.499230 0.498630 0.153040 -0.297625
O1    O     O_R   0.500010 0.321960 0.617040 -0.573713
O2    O     O_R   0.499990 0.321920 0.382900 -0.586818
O3    O     O_R   0.400160 0.500010 0.617110 -0.584827
O4    O     O_R   0.400130 0.499970 0.382960 -0.601652
O5    O     O_R   0.500010 0.678080 0.617100 -0.573570
O6    O     O_R   0.499990 0.678040 0.382960 -0.567629
O7    O     O_R   0.599870 0.500030 0.617040 -0.576386
O8    O     O_R   0.599840 0.499990 0.382890 -0.563034
C25   C     C_3   0.289743 0.305053 0.652692 -0.412259
C26   C     C_3   0.312687 0.205345 0.550738 -0.343130
C27   C     C_3   0.251139 0.143514 0.478172 -0.805206
H12   H     H_    0.215036 0.105218 0.554817 0.247637
H13   H     H_    0.223149 0.209555 0.411938 0.262269
H14   H     H_    0.269562 0.068073 0.411569 0.236995
H15   H     H_    0.347540 0.244378 0.472329 0.202964
H16   H     H_    0.342244 0.134908 0.608128 0.203689
H17   H     H_    0.334678 0.337297 0.714290 0.179561
H18   H     H_    0.254540 0.262939 0.728742 0.188461
C28   C     C_3   0.400581 0.355035 0.124075 -0.340176
C29   C     C_3   0.407570 0.231405 0.049675 -0.386274
C30   C     C_3   0.355955 0.138874 0.104640 -0.878540
H19   H     H_    0.364331 0.126591 0.216899 0.263327
H20   H     H_    0.302181 0.170495 0.085836 0.258325
H21   H     H_    0.363118 0.049630 0.051545 0.250653
H22   H     H_    0.398069 0.241595 0.937310 0.217162
H23   H     H_    0.460805 0.195654 0.065416 0.228232
H24   H     H_    0.406262 0.337419 0.234205 0.257359
H25   H     H_    0.347735 0.391946 0.106637 0.164867
C31   C     C_3   0.286258 0.667959 0.316263 -0.399421
C32   C     C_3   0.316386 0.776254 0.397915 -0.320901
C33   C     C_3   0.347816 0.869440 0.301360 -0.871764
H26   H     H_    0.389605 0.827054 0.239926 0.267215
H27   H     H_    0.307463 0.905512 0.230519 0.252294
H28   H     H_    0.369774 0.946367 0.362874 0.254639
H29   H     H_    0.274765 0.821084 0.457913 0.216043
H30   H     H_    0.356795 0.745031 0.471297 0.215649
H31   H     H_    0.325835 0.624057 0.250983 0.221853
H32   H     H_    0.247352 0.704094 0.241932 0.188186
C34   C     C_1   0.700714 0.700789 0.366996 0.212048
N7    N     N_1   0.667865 0.775561 0.314237 -0.294501
C35   C     C_3   0.851947 0.722371 0.370488 -0.405477
C36   C     C_3   0.884906 0.805737 0.481221 -0.336935
C37   C     C_3   0.921807 0.914192 0.416784 -0.820586
H33   H     H_    0.963781 0.881749 0.348572 0.259486
H34   H     H_    0.884683 0.969809 0.356027 0.255367
H35   H     H_    0.944915 0.972797 0.499238 0.243176
H36   H     H_    0.843977 0.840495 0.550684 0.222640
H37   H     H_    0.922985 0.754516 0.544355 0.230536
H38   H     H_    0.890681 0.691591 0.294911 0.223508
H39   H     H_    0.816157 0.778983 0.308300 0.205093

loop_
_geom_bond_atom_site_label_1
_geom_bond_atom_site_label_2
_ccdc_geom_bond_type
H5    N5    S    
C32   C33   S    
C2    C12   S    
C26   H16   S    
C7    C8    A    
C26   C27   S    
C33   H27   S    
C13   C18   S    
C8    C34   S    
C25   H18   S    
C5    C6    A    
C11   C14   S    
C37   H34   S    
C21   H7    S    
C4    N4    A    
C16   H4    S    
C28   H24   S    
C11   H11   S    
Cu1   O7    S    
C25   H17   S    
Cu2   O2    S    
C29   H22   S    
C29   H23   S    
C8    C9    A    
C33   H28   S    
C23   C24   A    
C1    C15   S    
C9    C10   A    
C31   H32   S    
C3    N2    A    
C21   C22   A    
C12   O4    A    
Cu1   O1    S    
Cu2   N6    S    
C15   H3    S    
C36   H37   S    
C36   H36   S    
C27   H13   S    
C33   H26   S    
C2    C20   A    
C30   H21   S    
C35   C36   S    
C12   O3    A    
Cu2   O6    S    
C37   H33   S    
C16   C17   S    
Cu1   Cu2   S    
C36   C37   S    
C30   H20   S    
C17   N6    D    
C28   C29   S    
C17   C28   S    
C4    C22   S    
C1    O1    A    
C32   H29   S    
C23   H8    S    
C32   H30   S    
Cu1   O5    S    
Cu2   O4    S    
N3    N4    A    
C4    N1    A    
C3    N3    A    
C7    C19   S    
C2    C24   A    
C16   N5    D    
C25   C26   S    
C24   C31   S    
C27   H12   S    
C14   C15   D    
C31   C32   S    
C37   H35   S    
C18   O5    A    
Cu1   N5    S    
C26   H15   S    
C6    C7    A    
C30   H19   S    
C5    C10   A    
C20   C25   S    
C3    C10   S    
Cu2   O8    S    
C11   C13   D    
C19   O7    A    
C1    O2    A    
N1    N2    A    
C5    H9    S    
H6    N6    S    
C6    H10   S    
C28   H25   S    
C35   H39   S    
C9    C35   S    
C29   C30   S    
C19   O8    A    
C20   C21   A    
C31   H31   S    
C34   N7    T    
C22   C23   A    
C13   H1    S    
C35   H38   S    
C14   H2    S    
Cu1   O3    S    
C18   O6    A    
C27   H14   S    
