data_mof_unit_5937.cif
_audit_creation_date              2012-12-10T17:14:06-0500
_audit_creation_method            fapswitch 2.2
_symmetry_space_group_name_H-M    P1
_symmetry_Int_Tables_number       1
_space_group_crystal_system       triclinic
_cell_length_a                    15.906423
_cell_length_b                    13.021838
_cell_length_c                    11.805005
_cell_angle_alpha                 99.419088
_cell_angle_beta                  93.901482
_cell_angle_gamma                 91.891637
_cell_volume                      2404.20204432

loop_
_atom_site_label
_atom_site_type_symbol
_atom_type_description
_atom_site_fract_x
_atom_site_fract_y
_atom_site_fract_z
_atom_type_partial_charge
C1    C     C_R   0.502476 0.300206 0.479144 0.933441
C2    C     C_3   0.943532 0.375419 0.459955 -0.207350
C3    C     C_3   0.916363 0.493751 0.498968 -0.190801
C4    C     C_3   0.958212 0.540507 0.626378 0.247409
C5    C     C_3   0.058083 0.526944 0.628489 0.261288
C6    C     C_1   0.823805 0.497808 0.499421 -0.029065
C7    C     C_1   0.175840 0.494913 0.500150 0.049388
C8    C     C_1   0.251201 0.497392 0.500015 -0.066837
C9    C     C_R   0.492535 0.813916 0.532869 -0.115674
C10   C     C_R   0.512915 0.188438 0.469865 -0.169440
C11   C     C_R   0.584720 0.030445 0.401621 0.360963
C12   C     C_R   0.340539 0.499438 0.500048 0.844770
C13   C     C_R   0.574687 0.137905 0.403395 -0.194748
C14   C     C_R   0.462739 0.134025 0.534879 0.384460
C15   C     C_R   0.479266 0.029768 0.544196 -0.073176
C16   C     C_R   0.532592 0.974965 0.465967 -0.039438
C17   C     C_R   0.535085 0.865887 0.457004 0.382981
C18   C     C_R   0.446886 0.870122 0.619669 -0.148513
C19   C     C_R   0.444206 0.979218 0.629358 -0.067491
C20   C     C_R   0.409887 0.419083 0.023645 -0.226790
C21   C     C_R   0.418072 0.424429 0.144016 0.125094
C22   C     C_R   0.544910 0.528671 0.154317 0.567942
C23   C     C_R   0.498231 0.700380 0.521064 0.901878
C24   C     C_R   0.539175 0.522529 0.031319 -0.016889
C25   C     C_R   0.470262 0.466257 0.965464 -0.161722
C26   C     C_R   0.462672 0.460069 0.842670 0.621491
C27   C     C_R   0.579703 0.580110 0.853859 0.027890
C28   C     C_R   0.597238 0.576117 0.972189 -0.163636
C29   C     C_R   0.659451 0.501489 0.500077 0.873717
C30   C     C_3   0.044387 0.377371 0.448378 0.114828
C31   C     C_3   0.048121 0.573280 0.426714 0.167079
C32   C     C_3   0.948343 0.566895 0.412425 0.288076
C33   C     C_1   0.748630 0.500251 0.499807 -0.052878
C34   C     C_3   0.083030 0.491390 0.500603 -0.081790
Cu1   Cu    Cu3+1 0.506190 0.507730 0.615930 1.073122
Cu2   Cu    Cu3+1 0.493810 0.492270 0.384070 0.985492
H1    H     H_    0.355081 0.377605 0.976082 0.213934
H2    H     H_    0.067141 0.652344 0.475972 0.204597
N1    N     N_R   0.515490 0.519350 0.790130 -0.215459
N2    N     N_R   0.484510 0.480650 0.209890 -0.277467
O1    O     O_R   0.504390 0.354460 0.582000 -0.511115
O2    O     O_R   0.493940 0.341410 0.386200 -0.626968
O3    O     O_R   0.384660 0.506540 0.597940 -0.480775
O4    O     O_R   0.374210 0.493480 0.402140 -0.632421
O5    O     O_R   0.506060 0.658590 0.613800 -0.544650
O6    O     O_R   0.495610 0.645540 0.418000 -0.604030
O7    O     O_R   0.625790 0.506520 0.597860 -0.629676
O8    O     O_R   0.615340 0.493460 0.402060 -0.536921
C35   C     C_2   0.894008 0.320075 0.349583 0.549516
H3    H     H_    0.837110 0.351245 0.316064 0.071063
O9    O     O_2   0.911929 0.232992 0.304431 -0.480135
O10   O     O_3   0.079818 0.303048 0.510546 -0.775841
H4    H     H_    0.142027 0.304418 0.507297 0.329674
C36   C     C_2   0.916654 0.307839 0.547906 0.423085
H5    H     H_    0.961306 0.278747 0.606619 0.144603
O11   O     O_2   0.842151 0.284968 0.554918 -0.527558
O12   O     O_3   0.944706 0.648537 0.650656 -0.599707
H6    H     H_    0.883222 0.658827 0.654207 0.362022
O13   O     O_3   0.577928 0.807703 0.373223 -0.681577
H7    H     H_    0.557772 0.827338 0.298606 0.352731
C37   C     C_2   0.399899 0.815854 0.699147 0.432660
H8    H     H_    0.404926 0.845187 0.790933 0.078420
O14   O     O_2   0.352745 0.740204 0.661967 -0.520467
O15   O     O_3   0.648889 0.979443 0.345096 -0.680983
H9    H     H_    0.695750 0.029420 0.338388 0.347158
C38   C     C_2   0.410719 0.039618 0.733845 0.410359
H10   H     H_    0.355188 0.010968 0.769488 0.057395
O16   O     O_2   0.446849 0.120476 0.783133 -0.495847
C39   C     C_2   0.627499 0.194675 0.332660 0.418558
H11   H     H_    0.638946 0.158878 0.245724 0.093251
O17   O     O_2   0.661929 0.279096 0.372473 -0.528827
O18   O     O_3   0.393924 0.182995 0.580727 -0.690654
H12   H     H_    0.346777 0.130150 0.574363 0.320385
O19   O     O_3   0.402492 0.395798 0.773679 -0.642222
H13   H     H_    0.395304 0.330991 0.806243 0.345714
C40   C     C_2   0.071502 0.346046 0.325015 0.601736
H14   H     H_    0.129764 0.305976 0.312125 0.071286
O20   O     O_2   0.032381 0.367770 0.240309 -0.454153
C41   C     C_2   0.633616 0.649167 0.799162 0.436570
H15   H     H_    0.693796 0.623415 0.769853 0.067156
O21   O     O_2   0.614144 0.738471 0.795402 -0.539509
C42   C     C_2   0.677528 0.627387 0.028979 0.506326
H16   H     H_    0.690783 0.709684 0.029039 0.085216
O22   O     O_2   0.731257 0.576304 0.069793 -0.459668
C43   C     C_2   0.353614 0.364807 0.194725 0.418746
H17   H     H_    0.368578 0.330532 0.270166 0.102691
O23   O     O_2   0.281590 0.351198 0.150383 -0.529558
O24   O     O_3   0.612444 0.583885 0.216475 -0.690224
H18   H     H_    0.592493 0.621664 0.287281 0.386270
O25   O     O_3   0.085046 0.565206 0.320603 -0.645704
H19   H     H_    0.138252 0.608981 0.332804 0.338064
C44   C     C_2   0.908811 0.532434 0.289326 0.505876
H20   H     H_    0.842038 0.510922 0.276273 0.077683
O26   O     O_2   0.946337 0.540325 0.204157 -0.386164
O27   O     O_3   0.919318 0.668084 0.444801 -0.680690
H21   H     H_    0.943542 0.714260 0.394860 0.352964
C45   C     C_2   0.091062 0.450947 0.705802 0.488317
H22   H     H_    0.052501 0.385515 0.721142 0.073456
O28   O     O_2   0.163116 0.461708 0.750362 -0.463826
O29   O     O_3   0.100120 0.624639 0.671314 -0.636591
H23   H     H_    0.087171 0.645694 0.752865 0.393965
C46   C     C_2   0.918023 0.495581 0.723209 0.226891
H24   H     H_    0.860531 0.447085 0.706991 0.135011
O30   O     O_2   0.945689 0.522173 0.823217 -0.459032

loop_
_geom_bond_atom_site_label_1
_geom_bond_atom_site_label_2
_ccdc_geom_bond_type
C38   O16   D    
C23   O5    A    
Cu2   O2    S    
Cu1   Cu2   S    
C3    C6    S    
Cu1   O7    S    
C45   H22   S    
O12   H6    S    
C7    C8    T    
C43   H17   S    
C15   C19   A    
C29   O7    A    
C40   O20   D    
C12   O3    A    
C27   C41   S    
C26   N1    A    
C20   C25   A    
C15   C16   A    
C29   C33   S    
C19   C38   S    
C37   O14   D    
C18   C19   A    
C39   O17   D    
C44   H20   S    
O27   H21   S    
C27   N1    A    
C16   C17   A    
C35   O9    D    
C4    C46   S    
C4    O12   S    
Cu2   O6    S    
C22   O24   S    
Cu1   O3    S    
O18   H12   S    
C38   H10   S    
O13   H7    S    
C23   O6    A    
C39   H11   S    
C45   O28   D    
C21   C43   S    
C43   O23   D    
C36   O11   D    
O19   H13   S    
C30   C34   S    
C29   O8    A    
C28   C42   S    
C46   H24   S    
Cu2   N2    S    
C40   H14   S    
C11   O15   S    
C2    C36   S    
C41   O21   D    
C9    C23   S    
C25   C26   A    
Cu1   N1    S    
C2    C35   S    
C30   C40   S    
C11   C16   A    
C1    O2    A    
C31   C32   S    
C5    O29   S    
C8    C12   S    
C31   O25   S    
C22   N2    A    
C5    C34   S    
C20   C21   A    
C44   O26   D    
C31   C34   S    
C3    C32   S    
C24   C25   A    
C46   O30   D    
C17   O13   S    
C1    O1    A    
C5    C45   S    
C35   H3    S    
C42   O22   D    
C10   C14   A    
C7    C34   S    
C22   C24   A    
Cu2   O4    S    
C3    C4    S    
Cu1   O5    S    
O10   H4    S    
C9    C17   A    
C30   O10   S    
C36   H5    S    
C14   O18   S    
C1    C10   S    
C24   C28   A    
C4    C5    S    
C10   C13   A    
C31   H2    S    
C18   C37   S    
C6    C33   T    
C2    C30   S    
O15   H9    S    
C2    C3    S    
C12   O4    A    
C20   H1    S    
C11   C13   A    
O25   H19   S    
C32   C44   S    
C21   N2    A    
C13   C39   S    
O29   H23   S    
C26   O19   S    
Cu2   O8    S    
C37   H8    S    
Cu1   O1    S    
C41   H15   S    
C9    C18   A    
C32   O27   S    
O24   H18   S    
C42   H16   S    
C27   C28   A    
C14   C15   A    
