data_mof_unit_65755.cif
_audit_creation_date              2012-12-10T20:03:28-0500
_audit_creation_method            fapswitch 2.2
_symmetry_space_group_name_H-M    P1
_symmetry_Int_Tables_number       1
_space_group_crystal_system       triclinic
_cell_length_a                    22.467401
_cell_length_b                    26.352205
_cell_length_c                    22.460721
_cell_angle_alpha                 89.632707
_cell_angle_beta                  89.997915
_cell_angle_gamma                 89.86363
_cell_volume                      13297.9083815

loop_
_atom_site_label
_atom_site_type_symbol
_atom_type_description
_atom_site_fract_x
_atom_site_fract_y
_atom_site_fract_z
_atom_type_partial_charge
Br1   Br    Br    0.527649 0.446225 0.633517 -0.364508
Br2   Br    Br    0.877638 0.444904 0.742054 -0.444445
Br3   Br    Br    0.913007 0.548257 0.841911 -0.375051
Br4   Br    Br    0.881203 0.553623 0.266826 -0.398922
Br5   Br    Br    0.070474 0.944740 0.654795 -0.424934
Br6   Br    Br    0.880643 0.947316 0.237840 -0.402467
Br7   Br    Br    0.933526 0.045195 0.353273 -0.364570
Br8   Br    Br    0.981567 0.052535 0.628289 -0.378225
Br9   Br    Br    0.487057 0.447495 0.371555 -0.361675
Br10  Br    Br    0.575113 0.554237 0.340532 -0.380996
Br11  Br    Br    0.413187 0.546968 0.661087 -0.394724
Br12  Br    Br    0.571705 0.945199 0.156298 -0.388161
Br13  Br    Br    0.408101 0.953748 0.833089 -0.373669
Br14  Br    Br    0.523608 0.053308 0.867435 -0.377409
Br15  Br    Br    0.482143 0.052390 0.128526 -0.362208
Br16  Br    Br    0.927429 0.455139 0.150507 -0.375647
C1    C     C_1   0.000094 0.250058 0.526670 0.000356
C2    C     C_1   0.499865 0.250003 0.973328 -0.007391
C3    C     C_2   0.511540 0.556091 0.745439 0.286295
C4    C     C_2   0.488501 0.942738 0.254121 0.317828
C5    C     C_2   0.511840 0.943711 0.755671 0.282921
C6    C     C_2   0.488189 0.056928 0.743278 0.290410
C7    C     C_2   0.503813 0.055951 0.255736 0.295071
C8    C     C_2   0.992188 0.443428 0.262246 0.283107
C9    C     C_2   0.005635 0.443747 0.757800 0.301108
C10   C     C_2   0.991777 0.556693 0.738833 0.275985
C11   C     C_2   0.007320 0.556696 0.238840 0.286104
C12   C     C_2   0.988756 0.942822 0.753891 0.321552
C13   C     C_1   0.500050 0.749902 0.973341 -0.005958
C14   C     C_2   0.007685 0.943294 0.261526 0.286279
C15   C     C_2   0.991714 0.056638 0.237983 0.282589
C16   C     C_2   0.004433 0.055895 0.755300 0.296395
C17   C     C_3   0.455807 0.434659 0.856974 -0.012604
C18   C     C_3   0.401385 0.399586 0.857405 -0.252017
C19   C     C_3   0.396135 0.371174 0.916577 -0.483658
C20   C     C_3   0.493270 0.447100 0.139414 0.047160
C21   C     C_3   0.537922 0.427867 0.093179 -0.237612
C22   C     C_3   0.506515 0.409175 0.037170 -0.493719
C23   C     C_3   0.418097 0.569683 0.168274 0.001914
C24   C     C_1   0.499875 0.750029 0.026668 -0.004728
C25   C     C_3   0.363162 0.599354 0.189140 -0.264958
C26   C     C_3   0.345291 0.639961 0.143769 -0.475822
C27   C     C_3   0.559194 0.536920 0.835048 0.039524
C28   C     C_3   0.616249 0.559638 0.860700 -0.239682
C29   C     C_3   0.614425 0.560577 0.928618 -0.470005
C30   C     C_3   0.419895 0.930787 0.333296 -0.000106
C31   C     C_3   0.364792 0.901217 0.313092 -0.265333
C32   C     C_3   0.347845 0.860381 0.358450 -0.473630
C33   C     C_3   0.564324 0.963633 0.669195 0.039032
C34   C     C_3   0.622094 0.940223 0.645810 -0.247432
C35   C     C_1   0.500048 0.750099 0.526666 -0.003754
C36   C     C_3   0.623686 0.940635 0.577869 -0.471731
C37   C     C_3   0.460848 0.064798 0.641086 -0.012106
C38   C     C_3   0.407220 0.100885 0.637819 -0.243324
C39   C     C_3   0.404194 0.127774 0.577523 -0.481489
C40   C     C_3   0.498532 0.051531 0.360142 0.048328
C41   C     C_3   0.544534 0.070726 0.404947 -0.237385
C42   C     C_3   0.514877 0.088779 0.462226 -0.493564
C43   C     C_3   0.072453 0.463735 0.323064 0.037660
C44   C     C_3   0.091281 0.439054 0.381986 -0.253610
C45   C     C_3   0.158708 0.440443 0.389904 -0.469914
C46   C     C_1   0.499872 0.749971 0.473324 -0.003138
C47   C     C_3   0.107725 0.453253 0.740222 0.046434
C48   C     C_3   0.148974 0.415468 0.772116 -0.265877
C49   C     C_3   0.201438 0.400452 0.732794 -0.454764
C50   C     C_3   0.985559 0.542248 0.639034 -0.004979
C51   C     C_3   0.014318 0.513563 0.587588 -0.261067
C52   C     C_3   0.977716 0.518848 0.530638 -0.452935
C53   C     C_3   0.111400 0.562717 0.219184 -0.007892
C54   C     C_3   0.118926 0.599399 0.166379 -0.241456
C55   C     C_3   0.180539 0.623591 0.166614 -0.483330
C56   C     C_3   0.919619 0.931051 0.832847 -0.001467
C57   C     C_1   0.500022 0.249851 0.473341 -0.005253
C58   C     C_3   0.863399 0.903740 0.811462 -0.263630
C59   C     C_3   0.842789 0.864078 0.856704 -0.461659
C60   C     C_3   0.112483 0.936862 0.277915 -0.006375
C61   C     C_3   0.120880 0.900237 0.330694 -0.238915
C62   C     C_3   0.182798 0.876373 0.330013 -0.479893
C63   C     C_3   0.068442 0.035865 0.172909 0.039279
C64   C     C_3   0.083736 0.059767 0.112613 -0.260198
C65   C     C_3   0.150535 0.058046 0.100592 -0.469529
C66   C     C_3   0.000640 0.051381 0.859822 0.052643
C67   C     C_3   0.047278 0.071668 0.903324 -0.245866
C68   C     C_1   0.499891 0.250025 0.526664 -0.007935
C69   C     C_3   0.018251 0.093386 0.959102 -0.477633
C70   C     C_R   0.000753 0.388683 0.750825 0.527986
C71   C     C_R   0.999256 0.388854 0.250991 0.533343
C72   C     C_R   0.001253 0.611420 0.248554 0.526110
C73   C     C_1   0.999930 0.249925 0.473329 -0.000237
C74   C     C_R   0.998904 0.611226 0.748946 0.534635
C75   C     C_R   0.001324 0.888596 0.251581 0.525501
C76   C     C_R   0.998591 0.888308 0.750340 0.530969
C77   C     C_R   0.000703 0.111325 0.750493 0.521087
C78   C     C_R   0.999298 0.111147 0.249042 0.534923
C79   C     C_R   0.500419 0.388616 0.249369 0.523127
C80   C     C_R   0.498298 0.388471 0.750957 0.530326
C81   C     C_R   0.501145 0.611114 0.749661 0.528706
C82   C     C_R   0.498620 0.611726 0.249568 0.531586
C83   C     C_R   0.501107 0.888872 0.750465 0.530593
C84   C     C_1   0.000111 0.749958 0.473335 -0.005396
C85   C     C_R   0.498570 0.888291 0.250366 0.531567
C86   C     C_R   0.500577 0.111342 0.250592 0.522241
C87   C     C_R   0.498372 0.111501 0.748945 0.527853
C88   C     C_R   0.000038 0.249923 0.910050 0.502024
C89   C     C_R   0.999918 0.250028 0.089947 0.512918
C90   C     C_R   0.000092 0.750019 0.089982 0.508796
C91   C     C_R   0.999908 0.749968 0.910017 0.501891
C92   C     C_R   0.000097 0.749984 0.410049 0.511099
C93   C     C_R   0.999944 0.750061 0.589950 0.517470
C94   C     C_R   0.000077 0.250033 0.589981 0.521968
C95   C     C_1   0.999940 0.750085 0.526662 -0.004307
C96   C     C_R   0.999943 0.249941 0.410019 0.516040
C97   C     C_R   0.500016 0.249907 0.410053 0.514806
C98   C     C_R   0.499970 0.250082 0.589951 0.513815
C99   C     C_R   0.500060 0.750049 0.589979 0.513694
C100  C     C_R   0.499901 0.749975 0.410015 0.511829
C101  C     C_R   0.500060 0.749951 0.910052 0.510965
C102  C     C_R   0.499902 0.750026 0.089953 0.512156
C103  C     C_R   0.500010 0.250099 0.089978 0.512497
C104  C     C_R   0.499956 0.249931 0.910018 0.509803
C105  C     C_R   0.840023 0.250026 0.750017 0.514798
C106  C     C_1   0.000084 0.750059 0.026669 -0.006435
C107  C     C_R   0.839938 0.250018 0.249976 0.515282
C108  C     C_R   0.840023 0.750018 0.250024 0.527831
C109  C     C_R   0.839941 0.750071 0.750036 0.501553
C110  C     C_R   0.340022 0.250019 0.250023 0.497648
C111  C     C_R   0.339938 0.250053 0.750009 0.494429
C112  C     C_R   0.340023 0.750019 0.750023 0.506374
C113  C     C_R   0.339939 0.750029 0.249990 0.492547
C114  C     C_R   0.160070 0.250038 0.750078 0.511241
C115  C     C_R   0.159984 0.249983 0.249975 0.509736
C116  C     C_R   0.160070 0.749976 0.250018 0.494405
C117  C     C_1   0.999899 0.749941 0.973328 -0.006374
C118  C     C_R   0.159985 0.749985 0.749971 0.519512
C119  C     C_R   0.660069 0.249982 0.250024 0.527829
C120  C     C_R   0.659985 0.249984 0.749973 0.526666
C121  C     C_R   0.660073 0.750012 0.750058 0.521439
C122  C     C_R   0.659985 0.749981 0.249976 0.531881
C123  C     C_1   0.223346 0.250070 0.750101 -0.021232
C124  C     C_1   0.223325 0.249977 0.249968 -0.018920
C125  C     C_1   0.223354 0.749967 0.250028 -0.040294
C126  C     C_1   0.223326 0.749979 0.749965 -0.000188
C127  C     C_1   0.723345 0.249974 0.250030 0.006115
C128  C     C_1   0.000040 0.249853 0.973334 -0.014783
C129  C     C_1   0.723327 0.249984 0.749963 0.004805
C130  C     C_1   0.723353 0.750059 0.750119 -0.011096
C131  C     C_1   0.723327 0.749974 0.249970 0.015189
C132  C     C_1   0.276662 0.250113 0.750035 -0.019328
C133  C     C_1   0.276680 0.250028 0.250029 -0.016909
C134  C     C_1   0.276667 0.750029 0.249978 -0.033091
C135  C     C_1   0.276681 0.750028 0.750026 0.000696
C136  C     C_1   0.776661 0.250025 0.249970 0.007332
C137  C     C_1   0.776682 0.250037 0.750022 0.007459
C138  C     C_1   0.776670 0.750118 0.750068 -0.012123
C139  C     C_1   0.999880 0.249990 0.026659 -0.010920
C140  C     C_1   0.776682 0.750025 0.250031 0.017849
C141  C     C_2   0.495236 0.471814 0.706962 0.208793
C142  C     C_2   0.501167 0.473503 0.292291 0.188965
C143  C     C_2   0.515884 0.527769 0.286695 0.197158
C144  C     C_2   0.480234 0.525907 0.708677 0.201096
C145  C     C_2   0.514445 0.972063 0.212097 0.198259
C146  C     C_2   0.478546 0.974140 0.790481 0.203904
C147  C     C_2   0.493561 0.028127 0.792876 0.207683
C148  C     C_2   0.499870 0.026447 0.207099 0.189974
C149  C     C_2   0.960901 0.474415 0.225910 0.204399
C150  C     C_1   0.500001 0.250170 0.026666 -0.005143
C151  C     C_2   0.955262 0.471689 0.760592 0.176645
C152  C     C_2   0.958346 0.526081 0.774007 0.187145
C153  C     C_2   0.957414 0.528324 0.240897 0.208983
C154  C     C_2   0.014326 0.971980 0.711453 0.198568
C155  C     C_2   0.957831 0.971959 0.261199 0.208836
C156  C     C_2   0.962183 0.025852 0.275880 0.205504
C157  C     C_2   0.000033 0.026464 0.706625 0.191640
C158  C     C_2   0.487961 0.443046 0.756311 0.291818
C159  C     C_2   0.502756 0.443928 0.243594 0.296023
C160  C     C_2   0.488618 0.557340 0.245669 0.317952
H1    H     H_    0.451165 0.461202 0.894941 0.138289
H2    H     H_    0.568759 0.459134 0.080801 0.177544
H3    H     H_    0.095274 0.054124 0.208685 0.146656
H4    H     H_    0.060212 0.038848 0.076853 0.171505
H5    H     H_    0.068497 0.099892 0.111375 0.204173
H6    H     H_    0.174902 0.079852 0.134992 0.166717
H7    H     H_    0.159911 0.075177 0.056286 0.163633
H8    H     H_    0.166677 0.018167 0.100754 0.159469
H9    H     H_    0.979062 0.018261 0.881343 0.157353
H10   H     H_    0.964780 0.080100 0.852606 0.114648
H11   H     H_    0.077932 0.040361 0.916438 0.173655
H12   H     H_    0.074196 0.101831 0.881685 0.216388
H13   H     H_    0.564776 0.396311 0.112233 0.215635
H14   H     H_    0.988065 0.125300 0.947114 0.162320
H15   H     H_    0.053211 0.107916 0.989438 0.152814
H16   H     H_    0.992491 0.063523 0.982777 0.152571
H17   H     H_    0.476303 0.377157 0.048230 0.150857
H18   H     H_    0.540046 0.395726 0.004515 0.161080
H19   H     H_    0.480370 0.440426 0.016381 0.127612
H20   H     H_    0.403472 0.545290 0.130967 0.130439
H21   H     H_    0.452701 0.594941 0.148714 0.130752
H22   H     H_    0.325492 0.572629 0.195693 0.159665
H23   H     H_    0.371679 0.617911 0.232362 0.206819
H24   H     H_    0.382082 0.667583 0.137426 0.145995
H25   H     H_    0.497935 0.413834 0.865740 0.147028
H26   H     H_    0.305600 0.660812 0.160088 0.151352
H27   H     H_    0.334301 0.622259 0.100402 0.146140
H28   H     H_    0.556364 0.497120 0.851101 0.159783
H29   H     H_    0.519614 0.557504 0.852946 0.131515
H30   H     H_    0.655077 0.536602 0.846178 0.199622
H31   H     H_    0.622402 0.598947 0.843765 0.211971
H32   H     H_    0.576823 0.584542 0.944140 0.153134
H33   H     H_    0.656598 0.576709 0.945877 0.182377
H34   H     H_    0.609193 0.521513 0.946749 0.150359
H35   H     H_    0.405721 0.955179 0.370849 0.132956
H36   H     H_    0.360424 0.422545 0.850161 0.180400
H37   H     H_    0.454887 0.905495 0.352318 0.132447
H38   H     H_    0.326898 0.927985 0.307307 0.161240
H39   H     H_    0.372717 0.882871 0.269611 0.205023
H40   H     H_    0.384902 0.832756 0.364062 0.145522
H41   H     H_    0.308057 0.839570 0.342573 0.151192
H42   H     H_    0.337385 0.877865 0.402093 0.151128
H43   H     H_    0.563105 0.003788 0.654153 0.157557
H44   H     H_    0.525281 0.944192 0.648781 0.137400
H45   H     H_    0.660634 0.962135 0.662907 0.183793
H46   H     H_    0.626499 0.900479 0.661945 0.209098
H47   H     H_    0.404529 0.371405 0.821082 0.159756
H48   H     H_    0.586390 0.917797 0.559814 0.155790
H49   H     H_    0.666309 0.923940 0.562301 0.176100
H50   H     H_    0.620247 0.980136 0.560594 0.150340
H51   H     H_    0.457280 0.037908 0.603357 0.140322
H52   H     H_    0.503747 0.084685 0.633818 0.145614
H53   H     H_    0.365588 0.078921 0.644716 0.194334
H54   H     H_    0.409980 0.129982 0.673155 0.158922
H55   H     H_    0.446083 0.148806 0.568843 0.151464
H56   H     H_    0.366546 0.155147 0.577244 0.157211
H57   H     H_    0.397088 0.099787 0.541464 0.146037
H58   H     H_    0.437063 0.348637 0.925280 0.152010
H59   H     H_    0.475859 0.018553 0.380706 0.152723
H60   H     H_    0.463518 0.080937 0.352603 0.108737
H61   H     H_    0.576243 0.039583 0.415873 0.177796
H62   H     H_    0.570248 0.102605 0.385301 0.215497
H63   H     H_    0.483913 0.120721 0.452572 0.152147
H64   H     H_    0.549355 0.102144 0.493846 0.160560
H65   H     H_    0.489859 0.057219 0.483546 0.128704
H66   H     H_    0.085829 0.504217 0.324417 0.155113
H67   H     H_    0.097181 0.445838 0.285481 0.144042
H68   H     H_    0.069995 0.459570 0.419469 0.164745
H69   H     H_    0.357540 0.344976 0.915020 0.152202
H70   H     H_    0.076186 0.398976 0.383593 0.209865
H71   H     H_    0.180925 0.419003 0.353698 0.164509
H72   H     H_    0.170829 0.422738 0.433243 0.165934
H73   H     H_    0.174803 0.480272 0.389420 0.155674
H74   H     H_    0.133127 0.488793 0.732359 0.180552
H75   H     H_    0.094860 0.439767 0.695085 0.150602
H76   H     H_    0.166176 0.433015 0.813550 0.171362
H77   H     H_    0.124051 0.380761 0.784929 0.180652
H78   H     H_    0.185302 0.381775 0.691659 0.177979
H79   H     H_    0.230602 0.373413 0.757326 0.151474
H80   H     H_    0.389272 0.398342 0.953568 0.143769
H81   H     H_    0.227978 0.434458 0.720522 0.165014
H82   H     H_    0.981904 0.583129 0.626644 0.151667
H83   H     H_    0.940075 0.526537 0.646469 0.149849
H84   H     H_    0.059790 0.528660 0.579510 0.183542
H85   H     H_    0.018168 0.472692 0.599639 0.172749
H86   H     H_    0.932293 0.503295 0.537469 0.176807
H87   H     H_    0.999598 0.497438 0.494282 0.158927
H88   H     H_    0.974367 0.559376 0.517091 0.163057
H89   H     H_    0.148738 0.535027 0.217757 0.145741
H90   H     H_    0.116137 0.581768 0.262826 0.148585
H91   H     H_    0.469085 0.479534 0.119221 0.150934
H92   H     H_    0.112957 0.578366 0.124068 0.191096
H93   H     H_    0.084982 0.629983 0.168001 0.157809
H94   H     H_    0.188382 0.643547 0.209266 0.162245
H95   H     H_    0.183993 0.651478 0.129512 0.151477
H96   H     H_    0.215361 0.594077 0.160638 0.144634
H97   H     H_    0.906440 0.955110 0.871061 0.143660
H98   H     H_    0.953343 0.904234 0.851229 0.133499
H99   H     H_    0.827297 0.932069 0.804453 0.182213
H100  H     H_    0.871499 0.884725 0.768382 0.200918
H101  H     H_    0.877499 0.834363 0.862664 0.142497
H102  H     H_    0.459205 0.417392 0.148738 0.106021
H103  H     H_    0.801442 0.845745 0.840499 0.157889
H104  H     H_    0.833437 0.882168 0.900257 0.164832
H105  H     H_    0.149938 0.964310 0.278583 0.149050
H106  H     H_    0.116364 0.917803 0.234200 0.149898
H107  H     H_    0.114972 0.921250 0.373045 0.199792
H108  H     H_    0.087331 0.869466 0.329358 0.156600
H109  H     H_    0.190756 0.856753 0.287149 0.161916
H110  H     H_    0.186748 0.848273 0.366859 0.154530
H111  H     H_    0.217244 0.906038 0.336124 0.146700
H112  H     H_    0.081704 0.995287 0.171579 0.156679
O1    O     O_3   0.000000 0.250000 0.750000 -0.456678
O2    O     O_R   0.034610 0.364600 0.284580 -0.555060
O3    O     O_R   0.465380 0.635400 0.284640 -0.536139
O4    O     O_R   0.465380 0.864600 0.784640 -0.504275
O5    O     O_R   0.465380 0.864600 0.215360 -0.535968
O6    O     O_R   0.465380 0.135400 0.215360 -0.514937
O7    O     O_R   0.465380 0.135400 0.784640 -0.513053
O8    O     O_3   0.457608 0.464740 0.804545 -0.619213
O9    O     O_3   0.524203 0.464933 0.190343 -0.561027
O10   O     O_3   0.439893 0.537521 0.214382 -0.594152
O11   O     O_3   0.562834 0.536225 0.772014 -0.567711
O12   O     O_3   0.440980 0.962992 0.287004 -0.596331
O13   O     O_R   0.034610 0.635400 0.284580 -0.565862
O14   O     O_3   0.564819 0.963024 0.732330 -0.576956
O15   O     O_3   0.459806 0.035243 0.693927 -0.614974
O16   O     O_3   0.527868 0.034700 0.307771 -0.561777
O17   O     O_3   0.009636 0.461798 0.317695 -0.581562
O18   O     O_3   0.058799 0.465486 0.777192 -0.573625
O19   O     O_3   0.021424 0.536277 0.690256 -0.583996
O20   O     O_3   0.058346 0.534292 0.214142 -0.616735
O21   O     O_3   0.942124 0.963577 0.787595 -0.595079
O22   O     O_3   0.059700 0.965707 0.283834 -0.615232
O23   O     O_3   0.006048 0.038247 0.181680 -0.582343
O24   O     O_R   0.034610 0.635400 0.715420 -0.525606
O25   O     O_3   0.029103 0.034503 0.806998 -0.563253
O26   O     O_R   0.034610 0.864600 0.215420 -0.565274
O27   O     O_R   0.034610 0.864600 0.784580 -0.537806
O28   O     O_R   0.034610 0.135400 0.784580 -0.546572
O29   O     O_R   0.034610 0.135400 0.215420 -0.555565
O30   O     O_R   0.534610 0.364600 0.215420 -0.541976
O31   O     O_R   0.534610 0.364600 0.784580 -0.554918
O32   O     O_R   0.534610 0.635400 0.784580 -0.553583
O33   O     O_3   0.000000 0.250000 0.250000 -0.458360
O34   O     O_R   0.534610 0.635400 0.215420 -0.539215
O35   O     O_R   0.534610 0.864600 0.715420 -0.555263
O36   O     O_R   0.534610 0.864600 0.284580 -0.539758
O37   O     O_R   0.534610 0.135400 0.284580 -0.543971
O38   O     O_R   0.534610 0.135400 0.715420 -0.561932
O39   O     O_R   0.965390 0.280060 0.882050 -0.519830
O40   O     O_R   0.965390 0.280060 0.117950 -0.512719
O41   O     O_R   0.965390 0.719940 0.117950 -0.525794
O42   O     O_R   0.965390 0.719940 0.882050 -0.518357
O43   O     O_R   0.965390 0.780060 0.382050 -0.524718
O44   O     O_3   0.000000 0.750000 0.250000 -0.456948
O45   O     O_R   0.965390 0.780060 0.617950 -0.515366
O46   O     O_R   0.965390 0.219940 0.617950 -0.504739
O47   O     O_R   0.965390 0.219940 0.382050 -0.510306
O48   O     O_R   0.465390 0.280060 0.382050 -0.507742
O49   O     O_R   0.465390 0.280060 0.617950 -0.509216
O50   O     O_R   0.465390 0.719940 0.617950 -0.511577
O51   O     O_R   0.465390 0.719940 0.382050 -0.517516
O52   O     O_R   0.465390 0.780060 0.882050 -0.513753
O53   O     O_R   0.465390 0.780060 0.117950 -0.517361
O54   O     O_R   0.465390 0.219940 0.117950 -0.507793
O55   O     O_3   0.000000 0.750000 0.750000 -0.461111
O56   O     O_R   0.465390 0.219940 0.882050 -0.509350
O57   O     O_R   0.867970 0.280050 0.784630 -0.513213
O58   O     O_R   0.867970 0.280050 0.215370 -0.522012
O59   O     O_R   0.867970 0.719950 0.215370 -0.513788
O60   O     O_R   0.867970 0.719950 0.784630 -0.521505
O61   O     O_R   0.867970 0.780050 0.284630 -0.514600
O62   O     O_R   0.867970 0.780050 0.715370 -0.546401
O63   O     O_R   0.867970 0.219950 0.715370 -0.531633
O64   O     O_R   0.867970 0.219950 0.284630 -0.522634
O65   O     O_R   0.367970 0.280050 0.284630 -0.536531
O66   O     O_3   0.500000 0.250000 0.250000 -0.458664
O67   O     O_R   0.367970 0.280050 0.715370 -0.543347
O68   O     O_R   0.367970 0.719950 0.715370 -0.525812
O69   O     O_R   0.367970 0.719950 0.284630 -0.544765
O70   O     O_R   0.367970 0.780050 0.784630 -0.522775
O71   O     O_R   0.367970 0.780050 0.215370 -0.544602
O72   O     O_R   0.367970 0.219950 0.215370 -0.534874
O73   O     O_R   0.367970 0.219950 0.784630 -0.533832
O74   O     O_R   0.132030 0.280060 0.715410 -0.547676
O75   O     O_R   0.132030 0.280060 0.284590 -0.539683
O76   O     O_R   0.132030 0.719940 0.284590 -0.542383
O77   O     O_3   0.500000 0.250000 0.750000 -0.457342
O78   O     O_R   0.132030 0.719940 0.715410 -0.528646
O79   O     O_R   0.132030 0.780060 0.215410 -0.542488
O80   O     O_R   0.132030 0.780060 0.784590 -0.520235
O81   O     O_R   0.132030 0.219940 0.784590 -0.527460
O82   O     O_R   0.132030 0.219940 0.215410 -0.538802
O83   O     O_R   0.632030 0.280060 0.215410 -0.524405
O84   O     O_R   0.632030 0.280060 0.784590 -0.519076
O85   O     O_R   0.632030 0.719940 0.784590 -0.532471
O86   O     O_R   0.632030 0.719940 0.215410 -0.517607
O87   O     O_R   0.632030 0.780060 0.715410 -0.538168
O88   O     O_3   0.500000 0.750000 0.750000 -0.458754
O89   O     O_R   0.632030 0.780060 0.284590 -0.517906
O90   O     O_R   0.632030 0.219940 0.284590 -0.525602
O91   O     O_R   0.632030 0.219940 0.715410 -0.525461
O92   O     O_R   0.034630 0.219970 0.882050 -0.556052
O93   O     O_R   0.034630 0.219970 0.117950 -0.550338
O94   O     O_R   0.034630 0.780030 0.117950 -0.534678
O95   O     O_R   0.034630 0.780030 0.882050 -0.542631
O96   O     O_R   0.034630 0.719970 0.382050 -0.535559
O97   O     O_R   0.034630 0.719970 0.617950 -0.540167
O98   O     O_R   0.034630 0.280030 0.617950 -0.540800
O99   O     O_3   0.500000 0.750000 0.250000 -0.457126
O100  O     O_R   0.034630 0.280030 0.382050 -0.548498
O101  O     O_R   0.534630 0.219970 0.382050 -0.552123
O102  O     O_R   0.534630 0.219970 0.617950 -0.547524
O103  O     O_R   0.534630 0.780030 0.617950 -0.547151
O104  O     O_R   0.534630 0.780030 0.382050 -0.541669
O105  O     O_R   0.534630 0.719970 0.882050 -0.549029
O106  O     O_R   0.534630 0.719970 0.117950 -0.541608
O107  O     O_R   0.534630 0.280030 0.117950 -0.552702
O108  O     O_R   0.534630 0.280030 0.882050 -0.548439
O109  O     O_R   0.965380 0.364600 0.784640 -0.497599
O110  O     O_R   0.034610 0.364600 0.715420 -0.576954
O111  O     O_R   0.965380 0.364600 0.215360 -0.506775
O112  O     O_R   0.965380 0.635400 0.215360 -0.509571
O113  O     O_R   0.965380 0.635400 0.784640 -0.515683
O114  O     O_R   0.965380 0.864600 0.284640 -0.509277
O115  O     O_R   0.965380 0.864600 0.715360 -0.537005
O116  O     O_R   0.965380 0.135400 0.715360 -0.512833
O117  O     O_R   0.965380 0.135400 0.284640 -0.506253
O118  O     O_R   0.465380 0.364600 0.284640 -0.517179
O119  O     O_R   0.465380 0.364600 0.715360 -0.520095
O120  O     O_R   0.465380 0.635400 0.715360 -0.504689
Zn1   Zn    Zn3+2 0.049470 0.207090 0.799470 0.935687
Zn2   Zn    Zn3+2 0.549470 0.207090 0.700530 0.956083
Zn3   Zn    Zn3+2 0.549470 0.792910 0.700530 0.940907
Zn4   Zn    Zn3+2 0.549470 0.792910 0.299470 0.978442
Zn5   Zn    Zn3+2 0.549470 0.707090 0.799470 0.942717
Zn6   Zn    Zn3+2 0.549470 0.707090 0.200530 0.979552
Zn7   Zn    Zn3+2 0.549470 0.292910 0.200530 0.956155
Zn8   Zn    Zn3+2 0.549470 0.292910 0.799470 0.962203
Zn9   Zn    Zn3+2 0.950550 0.292940 0.799480 0.998414
Zn10  Zn    Zn3+2 0.950550 0.292940 0.200520 1.003740
Zn11  Zn    Zn3+2 0.950550 0.707060 0.200520 0.999505
Zn12  Zn    Zn3+2 0.049470 0.207090 0.200530 0.934383
Zn13  Zn    Zn3+2 0.950550 0.707060 0.799480 0.981131
Zn14  Zn    Zn3+2 0.950550 0.792940 0.299480 1.000683
Zn15  Zn    Zn3+2 0.950550 0.792940 0.700520 0.965096
Zn16  Zn    Zn3+2 0.950550 0.207060 0.700520 0.999458
Zn17  Zn    Zn3+2 0.950550 0.207060 0.299480 1.007318
Zn18  Zn    Zn3+2 0.450550 0.292940 0.299480 0.979368
Zn19  Zn    Zn3+2 0.450550 0.292940 0.700520 0.973486
Zn20  Zn    Zn3+2 0.450550 0.707060 0.700520 0.997695
Zn21  Zn    Zn3+2 0.450550 0.707060 0.299480 0.957378
Zn22  Zn    Zn3+2 0.450550 0.792940 0.799480 0.998044
Zn23  Zn    Zn3+2 0.049470 0.792910 0.200530 0.931855
Zn24  Zn    Zn3+2 0.450550 0.792940 0.200520 0.957773
Zn25  Zn    Zn3+2 0.450550 0.207060 0.200520 0.980377
Zn26  Zn    Zn3+2 0.450550 0.207060 0.799480 0.980321
Zn27  Zn    Zn3+2 0.049470 0.792910 0.799470 0.966807
Zn28  Zn    Zn3+2 0.049470 0.707090 0.299470 0.931778
Zn29  Zn    Zn3+2 0.049470 0.707090 0.700530 0.966860
Zn30  Zn    Zn3+2 0.049470 0.292910 0.700530 0.933033
Zn31  Zn    Zn3+2 0.049470 0.292910 0.299470 0.935898
Zn32  Zn    Zn3+2 0.549470 0.207090 0.299470 0.955412

loop_
_geom_bond_atom_site_label_1
_geom_bond_atom_site_label_2
_ccdc_geom_bond_type
O4    Zn22  S    
C64   C65   S    
O29   Zn12  S    
C47   H75   S    
O26   Zn23  S    
O73   Zn26  S    
C67   H11   S    
C98   O102  A    
C108  O59   A    
C23   C25   S    
C92   O96   A    
C21   H2    S    
C47   O18   S    
C59   H101  S    
C60   H106  S    
C33   O14   S    
C30   O12   S    
C53   H89   S    
O104  Zn4   S    
C110  C133  S    
O67   Zn19  S    
C15   C156  D    
C77   O28   A    
O53   Zn24  S    
O103  Zn3   S    
C40   C41   S    
O76   Zn28  S    
O35   Zn3   S    
C18   C19   S    
Br14  C147  S    
C79   C159  S    
O74   Zn30  S    
C115  C124  S    
O13   Zn28  S    
Br12  C145  S    
C9    O18   S    
O60   Zn13  S    
O33   Zn10  S    
C125  C134  T    
C34   C36   S    
C12   O21   S    
C40   H59   S    
C88   O92   A    
C11   C153  D    
C38   H53   S    
C51   H84   S    
C103  O107  A    
O90   Zn32  S    
O114  Zn14  S    
C43   C44   S    
Br7   C156  S    
C99   O103  A    
O31   Zn8   S    
O52   Zn22  S    
C74   O24   A    
C94   O98   A    
O50   Zn20  S    
C32   H41   S    
C149  C153  S    
C19   H69   S    
C66   H9    S    
C56   H97   S    
C121  C130  S    
C1    C73   T    
Br4   C153  S    
C112  O70   A    
C17   H1    S    
O54   Zn25  S    
O75   Zn31  S    
C126  C135  T    
C49   H81   S    
C27   C28   S    
C21   C22   S    
C104  O56   A    
C107  O64   A    
C130  C138  T    
C19   H58   S    
C78   O117  A    
C18   H36   S    
O80   Zn27  S    
C104  O108  A    
C12   C154  D    
O58   Zn10  S    
C36   H48   S    
C74   O113  A    
O51   Zn21  S    
O88   Zn5   S    
O116  Zn16  S    
C56   H98   S    
C10   C74   S    
O34   Zn6   S    
C62   H110  S    
C108  O61   A    
O33   Zn31  S    
O97   Zn29  S    
C107  C136  S    
C34   H46   S    
C68   C98   S    
C39   H56   S    
C114  O74   A    
O81   Zn1   S    
O44   Zn28  S    
C75   O114  A    
C110  O72   A    
C54   H92   S    
C141  C144  S    
C69   H15   S    
C16   C157  D    
C22   H17   S    
O27   Zn27  S    
C8    C149  D    
C37   H51   S    
C85   O5    A    
Br9   C142  S    
C49   H79   S    
O33   Zn12  S    
C159  O9    S    
C116  O79   A    
C23   O10   S    
C61   H108  S    
C53   C54   S    
C8    C71   S    
C110  O65   A    
O55   Zn27  S    
C113  O69   A    
C47   H74   S    
O66   Zn7   S    
C84   C95   T    
O83   Zn7   S    
O30   Zn7   S    
C37   H52   S    
C105  O57   A    
C41   H61   S    
C96   O47   A    
C115  O82   A    
C109  O60   A    
C120  O91   A    
O109  Zn9   S    
O48   Zn18  S    
C52   H86   S    
C3    C81   S    
C57   C97   S    
C37   C38   S    
C96   O100  A    
C90   O41   A    
C70   O110  A    
C33   H43   S    
O79   Zn23  S    
C3    C144  D    
C20   C21   S    
C63   O23   S    
C93   C95   S    
C5    C83   S    
C120  O84   A    
C31   H38   S    
C71   O2    A    
C11   O20   S    
C8    O17   S    
C2    C150  T    
C48   H76   S    
C101  O105  A    
O32   Zn5   S    
Br5   C154  S    
C100  O104  A    
O43   Zn14  S    
C90   O94   A    
C141  C158  D    
C119  C127  S    
C16   C77   S    
O111  Zn10  S    
C116  O76   A    
C35   C46   T    
C65   H6    S    
C98   O49   A    
C51   H85   S    
C56   O21   S    
C123  C132  T    
C84   C92   S    
O85   Zn5   S    
O98   Zn30  S    
O88   Zn20  S    
C4    C85   S    
C15   O23   S    
O99   Zn21  S    
C28   H31   S    
C29   H33   S    
C6    C87   S    
C14   O22   S    
C113  O71   A    
Br16  C149  S    
C30   H37   S    
C90   C106  S    
C20   H102  S    
C60   O22   S    
C36   H50   S    
O110  Zn30  S    
C29   H32   S    
C143  C160  D    
C67   H12   S    
C26   H26   S    
C83   O4    A    
C52   H88   S    
O7    Zn26  S    
C109  C138  S    
C7    C148  D    
C80   C158  S    
C116  C125  S    
C38   C39   S    
O87   Zn3   S    
C5    C146  D    
O39   Zn9   S    
C89   C139  S    
O38   Zn2   S    
C50   H82   S    
O62   Zn15  S    
C87   O7    A    
O70   Zn22  S    
C15   C78   S    
C59   H104  S    
O41   Zn11  S    
C76   O115  A    
C41   C42   S    
O118  Zn18  S    
C13   C24   T    
O49   Zn19  S    
C53   O20   S    
O37   Zn32  S    
C47   C48   S    
C83   O35   A    
C142  C159  D    
C45   H73   S    
C33   C34   S    
C27   H28   S    
C40   H60   S    
C65   H8    S    
O92   Zn1   S    
C80   O119  A    
C124  C133  T    
C38   H54   S    
O42   Zn13  S    
C42   H63   S    
O91   Zn2   S    
C24   C102  S    
O89   Zn4   S    
C25   C26   S    
C43   O17   S    
C25   H23   S    
O63   Zn16  S    
Br13  C146  S    
C86   O6    A    
C32   H42   S    
C61   C62   S    
C18   H47   S    
C45   H72   S    
C73   C96   S    
C158  O8    S    
C66   H10   S    
C43   H66   S    
C160  O10   S    
C48   H77   S    
O120  Zn20  S    
C111  O73   A    
C27   H29   S    
C66   O25   S    
C30   H35   S    
C58   H99   S    
O119  Zn19  S    
C91   O42   A    
C5    O14   S    
C86   O37   A    
O28   Zn1   S    
C7    O16   S    
C75   O26   A    
C55   H96   S    
C31   H39   S    
O44   Zn14  S    
C54   C55   S    
O96   Zn28  S    
C111  C132  S    
C112  O68   A    
C122  O89   A    
C23   H21   S    
C76   O27   A    
O107  Zn7   S    
O6    Zn25  S    
C59   H103  S    
C109  O62   A    
C114  C123  S    
C107  O58   A    
Br11  C144  S    
C114  O81   A    
C44   H68   S    
C51   C52   S    
C39   H55   S    
Br15  C148  S    
C37   O15   S    
C56   C58   S    
C53   H90   S    
C14   C75   S    
C54   H93   S    
O113  Zn13  S    
C99   O50   A    
O36   Zn4   S    
C69   H14   S    
C102  O106  A    
C72   O112  A    
O88   Zn3   S    
C35   C99   S    
O65   Zn18  S    
C22   H18   S    
C70   O109  A    
C44   C45   S    
O99   Zn6   S    
O1    Zn9   S    
C118  C126  S    
C82   C160  S    
C50   O19   S    
C60   H105  S    
O101  Zn32  S    
O82   Zn12  S    
O72   Zn25  S    
C49   H78   S    
C28   H30   S    
C61   H107  S    
O77   Zn2   S    
O115  Zn15  S    
C127  C136  T    
C67   C69   S    
O64   Zn17  S    
C20   H91   S    
O86   Zn6   S    
O1    Zn16  S    
O45   Zn15  S    
C151  C152  S    
C145  C148  S    
C28   C29   S    
C103  O54   A    
C146  C147  S    
C30   C31   S    
C115  O75   A    
O44   Zn23  S    
C72   O13   A    
O55   Zn29  S    
O56   Zn26  S    
C122  O86   A    
C23   H20   S    
O105  Zn5   S    
C71   O111  A    
C48   C49   S    
C6    O15   S    
C105  O63   A    
C91   C117  S    
C97   O101  A    
C16   O25   S    
C40   O16   S    
C55   H94   S    
C26   H24   S    
O71   Zn24  S    
C100  O51   A    
C89   O40   A    
O66   Zn32  S    
C88   O39   A    
C17   O8    S    
O66   Zn18  S    
C94   O46   A    
C66   C67   S    
O24   Zn29  S    
O1    Zn30  S    
O40   Zn10  S    
C79   O30   A    
C118  O80   A    
Br10  C143  S    
C101  O52   A    
C154  C157  S    
C21   H13   S    
C155  C156  S    
C32   H40   S    
C34   H45   S    
C44   H70   S    
O68   Zn20  S    
O69   Zn21  S    
C1    C94   S    
C79   O118  A    
O55   Zn13  S    
C9    C151  D    
C69   H16   S    
C111  O67   A    
C10   C152  D    
O117  Zn17  S    
C64   H4    S    
O99   Zn4   S    
O84   Zn8   S    
C102  O53   A    
O100  Zn31  S    
C93   O97   A    
O1    Zn1   S    
C7    C86   S    
C22   H19   S    
O99   Zn24  S    
C43   H67   S    
C58   H100  S    
O77   Zn26  S    
O78   Zn29  S    
C87   O38   A    
C88   C128  S    
C121  O85   A    
C57   C68   T    
C41   H62   S    
C89   O93   A    
C129  C137  T    
C91   O95   A    
C10   O19   S    
O59   Zn11  S    
C26   H27   S    
C39   H57   S    
C42   H64   S    
C80   O31   A    
O57   Zn9   S    
C81   O120  A    
Br3   C152  S    
Br6   C155  S    
O55   Zn15  S    
C58   C59   S    
C33   H44   S    
O3    Zn21  S    
C60   C61   S    
C50   H83   S    
C119  O83   A    
Br8   C157  S    
C13   C101  S    
C81   O32   A    
O33   Zn17  S    
O66   Zn25  S    
C142  C143  S    
C42   H65   S    
C106  C117  T    
C46   C100  S    
C131  C140  T    
O106  Zn6   S    
C112  C135  S    
C31   C32   S    
C85   O36   A    
C122  C131  S    
C17   C18   S    
C78   O29   A    
O2    Zn31  S    
C12   C76   S    
C64   H5    S    
C118  O78   A    
C103  C150  S    
O88   Zn22  S    
O61   Zn14  S    
C108  C140  S    
O112  Zn11  S    
C19   H80   S    
O93   Zn12  S    
C65   H7    S    
C97   O48   A    
C2    C104  S    
C62   H111  S    
C77   O116  A    
C63   H112  S    
C27   O11   S    
C120  C129  S    
C25   H22   S    
C45   H71   S    
O46   Zn16  S    
C29   H34   S    
O95   Zn27  S    
O47   Zn17  S    
C128  C139  T    
Br1   C141  S    
C82   O3    A    
C105  C137  S    
C113  C134  S    
O108  Zn8   S    
O5    Zn24  S    
C93   O45   A    
C6    C147  D    
O77   Zn8   S    
C20   O9    S    
O102  Zn2   S    
C4    C145  D    
C17   H25   S    
C9    C70   S    
C4    O12   S    
C3    O11   S    
C50   C51   S    
C92   O43   A    
C63   H3    S    
C11   C72   S    
C121  O87   A    
C14   C155  D    
C119  O90   A    
C63   C64   S    
C36   H49   S    
C82   O34   A    
C55   H95   S    
C62   H109  S    
O44   Zn11  S    
Br2   C151  S    
C52   H87   S    
O94   Zn23  S    
O77   Zn19  S    
