data_mof_unit_17437.cif
_audit_creation_date              2012-12-11T16:37:18-0500
_audit_creation_method            fapswitch 2.2
_symmetry_space_group_name_H-M    P1
_symmetry_Int_Tables_number       1
_space_group_crystal_system       triclinic
_cell_length_a                    19.33916
_cell_length_b                    7.054348
_cell_length_c                    18.100156
_cell_angle_alpha                 90.083126
_cell_angle_beta                  108.377015
_cell_angle_gamma                 91.073979
_cell_volume                      2342.90577768

loop_
_atom_site_label
_atom_site_type_symbol
_atom_type_description
_atom_site_fract_x
_atom_site_fract_y
_atom_site_fract_z
_atom_type_partial_charge
O1    O     O_R   0.561710 0.369960 0.440200 -0.537041
O2    O     O_R   0.061710 0.630040 0.940200 -0.532746
O3    O     O_R   0.412630 0.033330 0.406330 -0.546392
O4    O     O_R   0.912630 0.966670 0.906330 -0.541563
O5    O     O_R   0.438290 0.869790 0.559800 -0.546565
O6    O     O_R   0.938290 0.130210 0.059800 -0.538930
C1    C     C_R   0.385530 0.202153 0.383045 0.678979
C2    C     C_R   0.883639 0.794403 0.884490 0.697879
O7    O     O_R   0.559570 0.039810 0.430640 -0.543128
O8    O     O_R   0.059570 0.960190 0.930640 -0.535056
O9    O     O_R   0.586280 0.876320 0.584290 -0.549863
O10   O     O_R   0.086280 0.123680 0.084290 -0.540919
C3    C     C_R   0.580322 0.210871 0.415583 0.718044
C4    C     C_R   0.081422 0.791695 0.916777 0.685158
O11   O     O_R   0.413720 0.363440 0.415710 -0.531414
O12   O     O_R   0.913720 0.636560 0.915710 -0.536974
O13   O     O_3   0.508590 0.205630 0.550380 -0.383229
O14   O     O_3   0.008590 0.794370 0.050380 -0.385647
V1    V     V_3+5 0.498410 0.928130 0.490650 1.384394
V2    V     V_3+5 0.998410 0.071870 0.990650 1.366767
O15   O     O_R   0.587370 0.546990 0.593670 -0.522427
O16   O     O_R   0.087370 0.453010 0.093670 -0.556740
C5    C     C_R   0.615522 0.718715 0.615099 0.718913
C6    C     C_R   0.114894 0.284678 0.117219 0.680316
O17   O     O_R   0.440430 0.540520 0.569360 -0.540118
O18   O     O_R   0.940430 0.459480 0.069360 -0.542308
C7    C     C_R   0.419707 0.709848 0.585507 0.667880
C8    C     C_R   0.923902 0.288723 0.089606 0.670809
V3    V     V_3+5 0.501590 0.428960 0.509350 1.417005
V4    V     V_3+5 0.001590 0.571040 0.009350 1.343894
O19   O     O_3   0.491410 0.701330 0.449620 -0.372865
O20   O     O_3   0.991410 0.298670 0.949620 -0.371437
C9    C     C_R   0.291178 0.892672 0.694738 -0.152396
C10   C     C_R   0.814129 0.128625 0.223847 -0.178593
H1    H     H_    0.264007 0.020232 0.702439 0.127238
H2    H     H_    0.812575 0.011566 0.261961 0.105122
C11   C     C_R   0.329506 0.887353 0.639976 0.142487
C12   C     C_R   0.859663 0.115445 0.176975 0.137302
C13   C     C_R   0.371425 0.723314 0.636746 -0.110428
C14   C     C_R   0.871709 0.278299 0.135888 -0.059590
C15   C     C_R   0.365275 0.565971 0.682497 -0.193762
C16   C     C_R   0.826124 0.433146 0.132057 -0.215044
H3    H     H_    0.394875 0.438368 0.680929 0.132888
H4    H     H_    0.828401 0.553855 0.096158 0.127386
C17   C     C_R   0.319810 0.568250 0.729572 -0.141163
C18   C     C_R   0.771576 0.428217 0.167180 -0.171444
H5    H     H_    0.312521 0.439416 0.758832 0.105714
H6    H     H_    0.732205 0.537973 0.150911 0.143142
C19   C     C_R   0.283631 0.733684 0.737750 0.055239
C20   C     C_R   0.767924 0.282996 0.218985 0.070918
C21   C     C_R   0.254819 0.695910 0.866614 0.173425
C22   C     C_R   0.694967 0.436369 0.301613 0.173041
C23   C     C_R   0.203607 0.709769 0.907313 -0.191798
C24   C     C_R   0.654309 0.410330 0.353172 -0.170461
H7    H     H_    0.219111 0.670609 0.967898 0.085335
H8    H     H_    0.640129 0.533860 0.380613 0.127611
C25   C     C_R   0.133616 0.780414 0.871939 -0.049675
C26   C     C_R   0.627051 0.231192 0.364835 -0.080342
C27   C     C_R   0.113632 0.832471 0.793672 -0.166935
C28   C     C_R   0.640617 0.078099 0.323303 -0.174541
H9    H     H_    0.059690 0.885743 0.764914 0.108398
H10   H     H_    0.616608 0.940653 0.327536 0.133561
C29   C     C_R   0.162375 0.811066 0.751171 -0.180162
C30   C     C_R   0.684214 0.102617 0.275164 -0.199331
H11   H     H_    0.144543 0.849263 0.690202 0.120930
H12   H     H_    0.693849 0.985757 0.243169 0.146546
C31   C     C_R   0.233363 0.742538 0.786185 0.065716
C32   C     C_R   0.714705 0.278010 0.265061 0.070894
C33   C     C_R   0.761699 0.619277 0.807756 0.012426
C34   C     C_R   0.294851 0.394354 0.281584 0.021405
C35   C     C_R   0.812731 0.774650 0.817675 -0.125138
C36   C     C_R   0.318156 0.218543 0.313736 -0.148177
C37   C     C_R   0.792672 0.918387 0.760935 -0.195628
C38   C     C_R   0.268160 0.070928 0.286537 -0.094161
H13   H     H_    0.828428 0.040146 0.765092 0.138349
H14   H     H_    0.279643 0.940121 0.316930 0.148060
C39   C     C_R   0.728635 0.902297 0.695744 -0.205096
C40   C     C_R   0.202035 0.096341 0.224265 -0.102777
H15   H     H_    0.717655 0.010158 0.651703 0.190053
H16   H     H_    0.163231 0.983156 0.205555 0.182555
C41   C     C_R   0.681993 0.741564 0.684073 -0.106386
C42   C     C_R   0.183537 0.268675 0.185874 -0.206443
C43   C     C_R   0.700639 0.603768 0.740602 0.040059
C44   C     C_R   0.232527 0.417083 0.216692 0.019263
C45   C     C_3   0.704488 0.396342 0.728759 0.501212
C46   C     C_3   0.218072 0.606198 0.243865 0.477197
C47   C     C_3   0.768909 0.404615 0.805863 -0.112961
C48   C     C_3   0.276997 0.560847 0.322542 -0.064056
H17   H     H_    0.822807 0.363049 0.802369 0.139745
H18   H     H_    0.325038 0.658946 0.340194 0.152936
O21   O     O_3   0.721184 0.352109 0.658912 -0.564092
C49   C     C_3   0.790349 0.412677 0.655585 -0.317326
H19   H     H_    0.832122 0.306959 0.683345 0.133244
H20   H     H_    0.807515 0.555632 0.680808 0.155315
H21   H     H_    0.787449 0.419917 0.593479 0.167916
O22   O     O_3   0.245975 0.745498 0.203369 -0.569592
C50   C     C_3   0.215324 0.737312 0.121223 -0.228601
H22   H     H_    0.156226 0.764397 0.101689 0.159513
H23   H     H_    0.227108 0.602028 0.096702 0.125106
H24   H     H_    0.241056 0.852046 0.096464 0.152193
C51   C     C_3   0.633335 0.282935 0.727798 -0.299887
C52   C     C_3   0.575262 0.390244 0.752407 -0.811946
H25   H     H_    0.547337 0.494398 0.707938 0.234957
H26   H     H_    0.533268 0.287558 0.758656 0.214733
H27   H     H_    0.598212 0.468126 0.808128 0.210909
H28   H     H_    0.606729 0.229923 0.668106 0.236594
H29   H     H_    0.646217 0.150169 0.761432 0.148803
C53   C     C_3   0.138708 0.639169 0.246753 -0.328827
C54   C     C_3   0.132642 0.777509 0.310104 -0.820095
H30   H     H_    0.101585 0.903577 0.285172 0.208902
H31   H     H_    0.104703 0.707526 0.348077 0.227966
H32   H     H_    0.185509 0.836382 0.345378 0.247273
H33   H     H_    0.112950 0.502033 0.254887 0.140152
H34   H     H_    0.103670 0.693410 0.190564 0.198076
C55   C     C_3   0.750017 0.302091 0.871859 -0.443823
C56   C     C_3   0.806016 0.338982 0.947550 -0.674952
H35   H     H_    0.859109 0.299667 0.941904 0.270008
H36   H     H_    0.806365 0.490610 0.964095 0.217186
H37   H     H_    0.791678 0.247640 0.990482 0.196027
H38   H     H_    0.697881 0.346902 0.878420 0.212344
H39   H     H_    0.747649 0.146691 0.861242 0.200870
C57   C     C_3   0.250526 0.490724 0.391917 -0.330241
C58   C     C_3   0.261543 0.634686 0.457677 -0.756533
H40   H     H_    0.300515 0.747780 0.453708 0.210301
H41   H     H_    0.209668 0.696740 0.458532 0.222409
H42   H     H_    0.282554 0.561234 0.514031 0.221917
H43   H     H_    0.193622 0.435463 0.372518 0.186747
H44   H     H_    0.282330 0.367736 0.420274 0.174301
C59   C     C_3   0.321529 0.054045 0.584268 -0.320781
C60   C     C_3   0.248183 0.153898 0.565301 -0.822072
H45   H     H_    0.202595 0.048455 0.554418 0.233559
H46   H     H_    0.247683 0.251869 0.613145 0.232437
H47   H     H_    0.238564 0.238827 0.511937 0.221541
H48   H     H_    0.366936 0.157618 0.608379 0.182925
H49   H     H_    0.324007 0.005328 0.527249 0.183280
C61   C     C_3   0.887063 0.920915 0.167739 -0.354497
C62   C     C_3   0.966436 0.902140 0.214069 -0.719885
H50   H     H_    0.000394 0.005788 0.194108 0.221797
H51   H     H_    0.974303 0.926410 0.276896 0.211954
H52   H     H_    0.983558 0.756316 0.206019 0.231207
H53   H     H_    0.856336 0.811153 0.189303 0.166786
H54   H     H_    0.876859 0.885229 0.105493 0.193132
C63   C     C_3   0.332140 0.643286 0.912373 -0.370090
C64   C     C_3   0.384447 0.813742 0.923940 -0.738546
H55   H     H_    0.388751 0.864030 0.867498 0.230707
H56   H     H_    0.365496 0.931462 0.953092 0.224156
H57   H     H_    0.439538 0.772690 0.961215 0.215967
H58   H     H_    0.351393 0.525427 0.884104 0.174436
H59   H     H_    0.334679 0.590710 0.971046 0.175989
C65   C     C_3   0.699141 0.633019 0.273845 -0.393278
C66   C     C_3   0.631659 0.663558 0.201623 -0.754878
H60   H     H_    0.613491 0.530447 0.167440 0.228871
H61   H     H_    0.585426 0.713810 0.219876 0.226995
H62   H     H_    0.643429 0.766996 0.160900 0.203206
H63   H     H_    0.699747 0.732545 0.321219 0.167692
H64   H     H_    0.751637 0.664830 0.263786 0.165199

loop_
_geom_bond_atom_site_label_1
_geom_bond_atom_site_label_2
_ccdc_geom_bond_type
C51   H29   S    
C46   C53   S    
C29   H11   S    
C51   C52   S    
C55   H39   S    
C37   H13   S    
O4    C2    A    
V1    O19   S    
C50   H22   S    
C45   O21   S    
C58   H40   S    
C13   C15   A    
C53   C54   S    
C62   H51   S    
O9    V1    S    
C38   H14   S    
C30   C32   A    
C12   C14   A    
C44   C46   S    
O3    C1    A    
C54   H31   S    
C24   C26   A    
C46   C48   S    
C58   H41   S    
C8    C14   S    
C9    C19   A    
C55   C56   S    
O13   V3    S    
C56   H35   S    
C52   H27   S    
C28   H10   S    
C16   C18   A    
C17   H5    S    
C53   H34   S    
C57   H43   S    
C33   C35   A    
C6    C42   S    
O7    C3    A    
C41   C43   A    
C59   H49   S    
O7    V1    S    
O6    C8    A    
O8    V2    S    
C61   H54   S    
C66   H60   S    
C22   C65   S    
O3    V1    S    
O14   V4    S    
C12   C61   S    
C34   C44   A    
C47   C55   S    
C33   C47   S    
C1    O11   A    
C34   C48   S    
C2    O12   A    
O5    C7    A    
C15   H3    S    
C16   H4    S    
C64   H57   S    
O1    V3    S    
C50   H23   S    
C22   C24   A    
O11   V3    S    
C29   C31   A    
C23   H7    S    
O17   V3    S    
C63   H58   S    
C62   H52   S    
C24   H8    S    
C10   C20   A    
C27   H9    S    
C45   C47   S    
C36   C38   A    
O8    C4    A    
C54   H32   S    
C7    C13   S    
O21   C49   S    
C35   C37   A    
C23   C25   A    
C64   H55   S    
C58   H42   S    
C3    C26   S    
O15   V3    S    
C49   H21   S    
C9    C11   A    
C21   C23   A    
C30   H12   S    
C53   H33   S    
C60   H46   S    
C61   H53   S    
C33   C43   A    
C40   C42   A    
C14   C16   A    
C17   C19   A    
O22   C50   S    
O10   V2    S    
C49   H20   S    
C39   H15   S    
C21   C31   A    
C52   H26   S    
C46   O22   S    
C66   H62   S    
C64   H56   S    
C43   C45   S    
C48   H18   S    
O18   V4    S    
C42   C44   A    
C65   H63   S    
C47   H17   S    
O16   C6    A    
C60   H47   S    
O1    C3    A    
O12   V4    S    
O13   V1    S    
C1    C36   S    
C50   H24   S    
C45   C51   S    
C59   C60   S    
V2    O20   S    
C51   H28   S    
C4    C25   S    
C18   C20   A    
C2    C35   S    
C37   C39   A    
C19   C31   S    
C48   C57   S    
C10   C12   A    
O18   C8    A    
C5    C41   S    
C61   C62   S    
C22   C32   A    
O14   V2    S    
O5    V1    S    
C21   C63   S    
O17   C7    A    
O6    V2    S    
C62   H50   S    
O10   C6    A    
C27   C29   A    
C56   H37   S    
C28   C30   A    
O2    V4    S    
O15   C5    A    
C60   H45   S    
V3    O19   S    
O16   V4    S    
C54   H30   S    
V4    O20   S    
C20   C32   S    
O9    C5    A    
C49   H19   S    
C9    H1    S    
C10   H2    S    
C56   H36   S    
C40   H16   S    
C66   H61   S    
C57   H44   S    
C52   H25   S    
O2    C4    A    
C39   C41   A    
C25   C27   A    
C65   H64   S    
C59   H48   S    
O4    V2    S    
C18   H6    S    
C63   H59   S    
C11   C13   A    
C55   H38   S    
C38   C40   A    
C15   C17   A    
C65   C66   S    
C34   C36   A    
C57   C58   S    
C26   C28   A    
C11   C59   S    
C63   C64   S    
