data_mof_unit_31547.cif
_audit_creation_date              2012-12-11T14:54:26-0500
_audit_creation_method            fapswitch 2.2
_symmetry_space_group_name_H-M    P1
_symmetry_Int_Tables_number       1
_space_group_crystal_system       triclinic
_cell_length_a                    18.990438
_cell_length_b                    10.898963
_cell_length_c                    18.830983
_cell_angle_alpha                 89.910493
_cell_angle_beta                  90.156028
_cell_angle_gamma                 90.07487
_cell_volume                      3897.5405512

loop_
_atom_site_label
_atom_site_type_symbol
_atom_type_description
_atom_site_fract_x
_atom_site_fract_y
_atom_site_fract_z
_atom_type_partial_charge
C1    C     C_R   0.728326 0.373586 0.644248 0.538336
C2    C     C_R   0.307892 0.879755 0.462776 -0.141986
C3    C     C_R   0.043720 0.558376 0.447131 0.382934
C4    C     C_R   0.216831 0.337289 0.543086 -0.066223
C5    C     C_R   0.807979 0.380138 0.462825 -0.142097
C6    C     C_R   0.718748 0.820280 0.470069 -0.062874
C7    C     C_R   0.303089 0.869428 0.536198 -0.150777
C8    C     C_R   0.218504 0.320554 0.470010 -0.062792
C9    C     C_R   0.803142 0.369778 0.536241 -0.151040
C10   C     C_R   0.751814 0.908018 0.426331 0.042002
C11   C     C_R   0.240072 0.900602 0.569878 0.022727
C12   C     C_R   0.251801 0.408100 0.426316 0.041727
C13   C     C_R   0.270205 0.375300 0.354521 0.549744
C14   C     C_R   0.740035 0.400509 0.569861 0.022590
C15   C     C_R   0.780522 0.014227 0.455409 -0.147235
C16   C     C_R   0.181565 0.937924 0.529487 -0.135223
C17   C     C_R   0.280753 0.514077 0.455447 -0.147436
C18   C     C_R   0.681473 0.437377 0.529419 -0.135173
C19   C     C_R   0.778864 0.030703 0.527804 -0.134744
C20   C     C_R   0.185439 0.943451 0.456929 -0.139782
C21   C     C_R   0.279134 0.530476 0.527844 -0.134948
C22   C     C_R   0.685399 0.442973 0.456861 -0.139829
C23   C     C_R   0.747801 0.941952 0.572073 0.043134
C24   C     C_R   0.228334 0.873605 0.644254 0.538386
C25   C     C_R   0.249307 0.920023 0.423232 0.019718
C26   C     C_R   0.247825 0.441917 0.572073 0.042699
C27   C     C_R   0.749343 0.420000 0.423228 0.019574
C28   C     C_R   0.473455 0.063517 0.954973 -0.136647
C29   C     C_R   0.464378 0.059799 0.027391 -0.125952
C30   C     C_R   0.973449 0.563525 0.954972 -0.136627
C31   C     C_R   0.964371 0.559805 0.027390 -0.125930
C32   C     C_R   0.481165 0.162331 0.069412 0.034344
C33   C     C_R   0.501368 0.168594 0.923330 0.028549
C34   C     C_R   0.981168 0.662330 0.069413 0.034337
C35   C     C_R   0.770210 0.875285 0.354526 0.549736
C36   C     C_R   0.001371 0.668596 0.923331 0.028547
C37   C     C_R   0.503710 0.271266 0.037368 -0.146716
C38   C     C_R   0.514199 0.274294 0.964288 -0.137404
C39   C     C_R   0.003725 0.771260 0.037372 -0.146767
C40   C     C_R   0.014214 0.774290 0.964292 -0.137428
C41   C     C_R   0.564417 0.150864 0.639117 0.592141
C42   C     C_R   0.469207 0.155151 0.353128 0.572797
C43   C     C_R   0.064430 0.650861 0.639117 0.592136
C44   C     C_R   0.969210 0.655151 0.353128 0.572712
C45   C     C_R   0.816516 0.933448 0.956834 -0.136731
C46   C     C_3   0.452341 0.359231 0.473305 -0.242062
C47   C     C_R   0.211463 0.024937 0.026829 -0.127244
C48   C     C_R   0.316502 0.433609 0.956856 -0.136730
C49   C     C_R   0.711440 0.524899 0.026835 -0.127256
C50   C     C_R   0.821842 0.924105 0.029397 -0.127455
C51   C     C_R   0.210316 0.011719 0.954240 -0.136514
C52   C     C_R   0.321813 0.424295 0.029420 -0.127480
C53   C     C_R   0.710294 0.511691 0.954246 -0.136509
C54   C     C_R   0.762115 0.896686 0.070473 0.034219
C55   C     C_R   0.249922 0.919013 0.922634 0.028883
C56   C     C_R   0.262101 0.396728 0.070480 0.034216
C57   C     C_3   0.474449 0.356698 0.550773 -0.247991
C58   C     C_R   0.749920 0.419021 0.922633 0.028875
C59   C     C_R   0.697512 0.872800 0.037604 -0.146521
C60   C     C_R   0.295876 0.846816 0.963846 -0.137871
C61   C     C_R   0.197527 0.372704 0.037592 -0.146505
C62   C     C_R   0.795894 0.346857 0.963840 -0.137878
C63   C     C_R   0.691835 0.884419 0.964424 -0.137816
C64   C     C_R   0.298037 0.861801 0.037013 -0.146525
C65   C     C_R   0.191861 0.384310 0.964410 -0.137824
C66   C     C_R   0.798054 0.361834 0.037007 -0.146519
C67   C     C_R   0.750984 0.919398 0.924282 0.029975
C68   C     C_3   0.952534 0.859437 0.473240 -0.242128
C69   C     C_R   0.254029 0.948308 0.068878 0.034700
C70   C     C_R   0.250993 0.419411 0.924284 0.029978
C71   C     C_R   0.754027 0.448302 0.068879 0.034688
C72   C     C_R   0.740931 0.971874 0.646422 0.538935
C73   C     C_R   0.258580 0.968043 0.352215 0.540991
C74   C     C_R   0.240931 0.471880 0.646419 0.538969
C75   C     C_R   0.758588 0.468048 0.352216 0.540936
C76   C     C_R   0.730218 0.379007 0.852077 0.550264
C77   C     C_R   0.272556 0.373470 0.145367 0.550265
C78   C     C_R   0.230218 0.879005 0.852078 0.550259
C79   C     C_3   0.974637 0.856903 0.550705 -0.247979
C80   C     C_R   0.772561 0.873459 0.145363 0.550266
C81   C     C_R   0.531613 0.157615 0.852982 0.552270
C82   C     C_R   0.464157 0.156501 0.144420 0.548282
C83   C     C_R   0.031614 0.657615 0.852982 0.552277
C84   C     C_R   0.964159 0.656501 0.144421 0.548270
C85   C     C_R   0.741410 0.969391 0.853779 0.546630
C86   C     C_R   0.259929 0.976303 0.143730 0.544643
C87   C     C_R   0.241412 0.469390 0.853778 0.546641
C88   C     C_R   0.759929 0.476301 0.143730 0.544640
C89   C     C_R   0.511405 0.163929 0.418129 -0.035961
C90   C     C_R   0.717051 0.837080 0.543138 -0.066168
C91   C     C_R   0.550949 0.158026 0.562644 -0.036901
C92   C     C_R   0.011425 0.663913 0.418125 -0.036002
C93   C     C_R   0.050953 0.658016 0.562644 -0.036904
C94   C     C_R   0.510643 0.270641 0.459322 -0.065833
C95   C     C_R   0.530704 0.267993 0.530054 -0.063335
C96   C     C_R   0.010756 0.770671 0.459289 -0.065734
C97   C     C_R   0.030821 0.768032 0.530023 -0.063063
C98   C     C_R   0.561737 0.054846 0.519200 0.369754
C99   C     C_R   0.543790 0.058452 0.447103 0.383008
C100  C     C_R   0.061639 0.554769 0.519229 0.369725
Cr1   Cr    Cr6+3 0.771950 0.169480 0.750100 1.012851
Cr2   Cr    Cr6+3 0.383410 0.010620 0.249390 1.050058
Cr3   Cr    Cr6+3 0.116590 0.510620 0.750610 1.050828
Cr4   Cr    Cr6+3 0.883410 0.510620 0.249390 1.050048
Cr5   Cr    Cr6+3 0.228050 0.169480 0.249900 1.041776
Cr6   Cr    Cr6+3 0.271950 0.669480 0.750100 1.012819
Cr7   Cr    Cr6+3 0.728050 0.669480 0.249900 1.041872
Cr8   Cr    Cr6+3 0.614930 0.323340 0.749170 1.012493
Cr9   Cr    Cr6+3 0.385070 0.323340 0.250830 1.018476
Cr10  Cr    Cr6+3 0.114930 0.823340 0.749170 1.012496
Cr11  Cr    Cr6+3 0.885070 0.823340 0.250830 1.018481
Cr12  Cr    Cr6+3 0.616590 0.010620 0.750610 1.050847
F1    F     F_    0.582957 0.946860 0.547713 -0.605058
F2    F     F_    0.551301 0.954543 0.408133 -0.589982
F3    F     F_    0.082729 0.446729 0.547774 -0.605198
F4    F     F_    0.051158 0.454415 0.408195 -0.590086
H1    H     H_    0.862895 0.958853 0.926749 0.129442
H2    H     H_    0.326888 0.774218 0.940287 0.135948
H3    H     H_    0.151704 0.346937 0.068367 0.123507
H4    H     H_    0.826923 0.274290 0.940275 0.135950
H5    H     H_    0.640507 0.873150 0.940039 0.135384
H6    H     H_    0.333002 0.805145 0.068593 0.121772
H7    H     H_    0.140552 0.372922 0.940008 0.135341
H8    H     H_    0.833036 0.305205 0.068583 0.121791
H9    H     H_    0.899506 0.819028 0.464022 0.150578
H10   H     H_    0.996766 0.945673 0.569351 0.149803
H11   H     H_    0.399347 0.318677 0.464075 0.150585
H12   H     H_    0.179307 0.096578 0.049789 0.137675
H13   H     H_    0.496514 0.445505 0.569445 0.149810
H14   H     H_    0.461525 0.449524 0.447397 0.157810
H15   H     H_    0.434116 0.315213 0.586211 0.151176
H16   H     H_    0.961801 0.949684 0.447307 0.157829
H17   H     H_    0.934265 0.815552 0.586150 0.151144
H18   H     H_    0.691932 0.769259 0.576750 0.142266
H19   H     H_    0.358069 0.862066 0.437583 0.161379
H20   H     H_    0.191521 0.269622 0.576661 0.142708
H21   H     H_    0.858217 0.362830 0.437684 0.161701
H22   H     H_    0.697528 0.735994 0.448311 0.150087
H23   H     H_    0.362872 0.459114 0.926788 0.129455
H24   H     H_    0.348149 0.837675 0.566426 0.141187
H25   H     H_    0.197077 0.236445 0.448216 0.150294
H26   H     H_    0.848246 0.338381 0.566513 0.141378
H27   H     H_    0.806735 0.081855 0.422478 0.133870
H28   H     H_    0.131545 0.960487 0.553563 0.150191
H29   H     H_    0.307150 0.581555 0.422556 0.133910
H30   H     H_    0.631388 0.459573 0.553460 0.150338
H31   H     H_    0.801487 0.114012 0.549152 0.146138
H32   H     H_    0.139417 0.974049 0.427718 0.147481
H33   H     H_    0.301975 0.613597 0.549218 0.146109
H34   H     H_    0.679268 0.596511 0.049799 0.137694
H35   H     H_    0.639347 0.473258 0.427599 0.147487
H36   H     H_    0.462388 0.981597 0.924328 0.128971
H37   H     H_    0.443653 0.976017 0.050283 0.138572
H38   H     H_    0.962373 0.481610 0.924324 0.128968
H39   H     H_    0.943638 0.476027 0.050280 0.138567
H40   H     H_    0.514455 0.352368 0.068780 0.121130
H41   H     H_    0.536054 0.356595 0.940674 0.135433
H42   H     H_    0.014480 0.852356 0.068787 0.121137
H43   H     H_    0.036078 0.856587 0.940681 0.135450
H44   H     H_    0.873346 0.937303 0.053074 0.138778
H45   H     H_    0.175186 0.069278 0.923350 0.128583
H46   H     H_    0.373299 0.437619 0.053108 0.138763
H47   H     H_    0.675148 0.569227 0.923361 0.128606
H48   H     H_    0.651675 0.847146 0.068393 0.123514
O1    O     O_R   0.787510 0.042610 0.670410 -0.533567
O2    O     O_R   0.454250 0.051070 0.169440 -0.522031
O3    O     O_R   0.045750 0.551070 0.830560 -0.524771
O4    O     O_R   0.954250 0.551070 0.169440 -0.522025
O5    O     O_R   0.681210 0.959150 0.825320 -0.510383
O6    O     O_R   0.318790 0.959150 0.174680 -0.509969
O7    O     O_R   0.181210 0.459150 0.825320 -0.510358
O8    O     O_R   0.818790 0.459150 0.174680 -0.509961
O9    O     O_3   0.667820 0.167810 0.749960 -0.273044
O10   O     O_3   0.332180 0.167810 0.250040 -0.263738
O11   O     O_3   0.167820 0.667810 0.749960 -0.273031
O12   O     O_R   0.212490 0.042610 0.329590 -0.521382
O13   O     O_3   0.832180 0.667810 0.250040 -0.263780
O14   O     O_R   0.765670 0.292090 0.675090 -0.506395
O15   O     O_R   0.234330 0.292090 0.324910 -0.485203
O16   O     O_R   0.265670 0.792090 0.675090 -0.506395
O17   O     O_R   0.734330 0.792090 0.324910 -0.485078
O18   O     O_R   0.670220 0.409020 0.668560 -0.531918
O19   O     O_R   0.329780 0.409020 0.331440 -0.528764
O20   O     O_R   0.170220 0.909020 0.668560 -0.531951
O21   O     O_R   0.829780 0.909020 0.331440 -0.528764
O22   O     O_R   0.556580 0.251590 0.674980 -0.514163
O23   O     O_R   0.287510 0.542610 0.670410 -0.533557
O24   O     O_R   0.443420 0.251590 0.325020 -0.509407
O25   O     O_R   0.056580 0.751590 0.674980 -0.514130
O26   O     O_R   0.943420 0.751590 0.325020 -0.509408
O27   O     O_R   0.545890 0.049670 0.670030 -0.455223
O28   O     O_R   0.454110 0.049670 0.329970 -0.445119
O29   O     O_R   0.045890 0.549670 0.670030 -0.455127
O30   O     O_R   0.954110 0.549670 0.329970 -0.445117
O31   O     O_R   0.681340 0.957860 0.676500 -0.476366
O32   O     O_R   0.318660 0.957860 0.323500 -0.505117
O33   O     O_R   0.181340 0.457860 0.676500 -0.476525
O34   O     O_R   0.712490 0.542610 0.329590 -0.521301
O35   O     O_R   0.818660 0.457860 0.323500 -0.505154
O36   O     O_R   0.787380 0.044010 0.830940 -0.522948
O37   O     O_R   0.212620 0.044010 0.169060 -0.525751
O38   O     O_R   0.287380 0.544010 0.830940 -0.522975
O39   O     O_R   0.712620 0.544010 0.169060 -0.525758
O40   O     O_R   0.765540 0.293390 0.823910 -0.502282
O41   O     O_R   0.234460 0.293390 0.176090 -0.502164
O42   O     O_R   0.265540 0.793390 0.823910 -0.502294
O43   O     O_R   0.734460 0.793390 0.176090 -0.502155
O44   O     O_R   0.670090 0.410410 0.829090 -0.522804
O45   O     O_R   0.556450 0.252890 0.823790 -0.503063
O46   O     O_R   0.329910 0.410410 0.170910 -0.526316
O47   O     O_R   0.170090 0.910410 0.829090 -0.522808
O48   O     O_R   0.829910 0.910410 0.170910 -0.526298
O49   O     O_R   0.443550 0.252890 0.176210 -0.508531
O50   O     O_R   0.056450 0.752890 0.823790 -0.503071
O51   O     O_R   0.943550 0.752890 0.176210 -0.508542
O52   O     O_R   0.545750 0.051070 0.830560 -0.524793

loop_
_geom_bond_atom_site_label_1
_geom_bond_atom_site_label_2
_ccdc_geom_bond_type
C58   C62   A    
C81   O45   A    
C21   C26   A    
Cr2   O6    S    
C88   O8    A    
C53   C58   A    
C61   H3    S    
C72   O1    A    
C14   C18   A    
C40   H43   S    
Cr1   O9    S    
C2    C7    A    
C4    C8    A    
C72   O31   A    
Cr8   O45   S    
Cr1   O36   S    
C58   C76   S    
C47   H12   S    
C99   F2    S    
Cr10  O11   S    
C62   H4    S    
C7    C11   A    
C50   C54   A    
C49   H34   S    
Cr7   O17   S    
C57   H13   S    
C28   C29   A    
C16   H28   S    
Cr11  O51   S    
Cr6   O23   S    
C15   C19   A    
C29   C32   A    
Cr9   O49   S    
C10   C15   A    
C30   C31   A    
C90   H18   S    
C64   H6    S    
C81   O52   A    
Cr4   O4    S    
C20   C25   A    
C36   C83   S    
C45   H1    S    
C65   C70   A    
C11   C24   S    
C92   C96   A    
C76   O44   A    
Cr3   O33   S    
C89   C94   A    
C68   H16   S    
Cr11  O48   S    
C47   C69   A    
Cr1   O14   S    
C44   O26   A    
C5    C27   A    
C3    C100  A    
Cr4   O13   S    
C88   O39   A    
C66   C71   A    
C13   O19   A    
Cr5   O12   S    
C12   C17   A    
C24   O16   A    
Cr2   O28   S    
Cr6   O11   S    
C20   H32   S    
C60   H2    S    
C8    H25   S    
C59   H48   S    
C21   H33   S    
C87   O38   A    
Cr7   O43   S    
C44   C92   S    
C84   O51   A    
C16   C20   A    
C80   O48   A    
Cr9   O19   S    
C68   C79   S    
Cr12  O52   S    
Cr12  O9    S    
Cr10  O20   S    
Cr2   O2    S    
C86   O6    A    
C55   C60   A    
C96   C97   A    
C1    O18   A    
Cr3   O7    S    
C37   H40   S    
Cr7   O39   S    
C100  F3    S    
C34   C84   S    
Cr5   O15   S    
C27   C75   S    
C70   C87   S    
C43   C93   S    
Cr6   O16   S    
C63   H5    S    
C79   C97   S    
C54   C80   S    
C54   C59   A    
Cr9   O24   S    
C79   H17   S    
C63   C67   A    
C4    C26   A    
Cr11  O21   S    
C67   C85   S    
C62   C66   A    
C86   O37   A    
C34   C39   A    
C46   H11   S    
C36   C40   A    
C39   C40   A    
C55   C78   S    
C41   O27   A    
Cr9   O10   S    
C53   H47   S    
C98   F1    S    
C47   C51   A    
C64   C69   A    
C51   C55   A    
C50   H44   S    
C6    C90   A    
C83   O3    A    
C32   C37   A    
C42   O28   A    
C85   O5    A    
C56   C77   S    
C3    C92   A    
C6    H22   S    
C19   C23   A    
C9    C14   A    
C78   O42   A    
Cr12  O31   S    
C5    C9    A    
C37   C38   A    
C84   O4    A    
Cr8   O18   S    
C77   O41   A    
Cr6   O38   S    
C82   O49   A    
C1    O14   A    
C85   O36   A    
Cr5   O37   S    
Cr12  O5    S    
C46   C94   S    
C74   O33   A    
C48   C52   A    
C8    C12   A    
C87   O7    A    
Cr8   O9    S    
Cr3   O11   S    
C23   C90   A    
C68   C96   S    
Cr3   O3    S    
Cr1   O1    S    
C93   C100  A    
C10   C35   S    
C77   O46   A    
C15   H27   S    
C41   C91   S    
C79   H10   S    
C89   C99   A    
C28   C33   A    
C28   H36   S    
Cr5   O10   S    
C39   H42   S    
C57   C95   S    
C17   H29   S    
Cr4   O35   S    
C66   H8    S    
C35   O17   A    
Cr9   O46   S    
C93   C97   A    
Cr4   O8    S    
C83   O50   A    
C31   C34   A    
C29   H37   S    
C74   O23   A    
C82   O2    A    
C75   O34   A    
C42   O24   A    
Cr8   O44   S    
C22   H35   S    
C48   H23   S    
Cr10  O50   S    
C18   C22   A    
C59   C63   A    
C23   C72   S    
C57   H15   S    
C2    H19   S    
C38   H41   S    
C48   C70   A    
C18   H30   S    
Cr1   O40   S    
Cr2   O32   S    
Cr6   O42   S    
Cr7   O34   S    
C31   H39   S    
C9    H26   S    
C76   O40   A    
Cr5   O41   S    
C45   C67   A    
C75   O35   A    
C24   O20   A    
Cr2   O10   S    
C32   C82   S    
C43   O29   A    
Cr10  O25   S    
C22   C27   A    
C33   C38   A    
C30   C36   A    
C60   C64   A    
C46   H14   S    
C42   C89   S    
Cr10  O47   S    
C5    H21   S    
C46   C57   S    
C13   O15   A    
C35   O21   A    
Cr12  O27   S    
C7    H24   S    
C45   C50   A    
C73   O12   A    
C49   C53   A    
C78   O47   A    
C44   O30   A    
C3    F4    S    
C41   O22   A    
C51   H45   S    
C2    C25   A    
C25   C73   S    
C65   H7    S    
C91   C98   A    
C94   C95   A    
C19   H31   S    
C11   C16   A    
C6    C10   A    
C91   C95   A    
C71   C88   S    
C61   C65   A    
C4    H20   S    
C30   H38   S    
C80   O43   A    
C12   C13   S    
C43   O25   A    
Cr11  O26   S    
C26   C74   S    
C98   C99   A    
C49   C71   A    
C73   O32   A    
Cr11  O13   S    
Cr4   O30   S    
C56   C61   A    
C1    C14   S    
Cr3   O29   S    
Cr8   O22   S    
C33   C81   S    
C68   H9    S    
Cr7   O13   S    
C69   C86   S    
C52   C56   A    
C52   H46   S    
C17   C21   A    
