data_mof_unit_10762.cif
_audit_creation_date              2013-03-05T15:49:45-0500
_audit_creation_method            fapswitch 2.2
_symmetry_space_group_name_H-M    P1
_symmetry_Int_Tables_number       1
_space_group_crystal_system       triclinic
_cell_length_a                    6.90423
_cell_length_b                    19.330451
_cell_length_c                    23.470618
_cell_angle_alpha                 89.948946
_cell_angle_beta                  89.910843
_cell_angle_gamma                 90.067485
_cell_volume                      3132.42558227

loop_
_atom_site_label
_atom_site_type_symbol
_atom_site_description
_atom_site_fract_x
_atom_site_fract_y
_atom_site_fract_z
_atom_type_partial_charge
O1    O     O_R   0.620180 0.810610 0.187990 -0.572090
O2    O     O_R   0.379820 0.189390 0.812010 -0.579598
O3    O     O_R   0.379820 0.189390 0.687990 -0.578389
O4    O     O_R   0.620180 0.810610 0.312010 -0.580233
O5    O     O_R   0.120180 0.689390 0.312010 -0.581314
O6    O     O_R   0.879820 0.310610 0.687990 -0.579189
O7    O     O_R   0.879820 0.310610 0.812010 -0.569715
O8    O     O_R   0.120180 0.689390 0.187990 -0.570751
O9    O     O_R   0.290420 0.818570 0.311590 -0.595447
O10   O     O_R   0.709580 0.181430 0.688410 -0.593940
O11   O     O_R   0.709580 0.181430 0.811590 -0.595050
O12   O     O_R   0.290420 0.818570 0.188410 -0.567989
O13   O     O_R   0.790420 0.681430 0.188410 -0.568249
O14   O     O_R   0.209580 0.318570 0.811590 -0.566807
O15   O     O_R   0.209580 0.318570 0.688410 -0.594222
O16   O     O_R   0.790420 0.681430 0.311590 -0.595986
C1    C     C_R   0.458688 0.834167 0.332808 1.024710
C2    C     C_R   0.541302 0.165829 0.667260 1.026844
C3    C     C_R   0.540136 0.164393 0.831631 1.037330
C4    C     C_R   0.459728 0.834739 0.167617 1.031644
C5    C     C_R   0.959619 0.665472 0.167614 1.037062
C6    C     C_R   0.040224 0.334695 0.832296 1.031450
C7    C     C_R   0.041309 0.334338 0.667321 1.030547
C8    C     C_R   0.958696 0.665649 0.332667 1.026104
O17   O     O_3   0.453640 0.707610 0.250000 -0.223098
O18   O     O_3   0.546360 0.292390 0.750000 -0.217199
O19   O     O_3   0.953640 0.792390 0.250000 -0.226571
O20   O     O_3   0.046360 0.207610 0.750000 -0.236628
V1    V     V_3+5 0.178800 0.757860 0.250000 1.308307
V2    V     V_3+5 0.821200 0.242140 0.750000 1.287061
V3    V     V_3+5 0.678800 0.742140 0.250000 1.307320
V4    V     V_3+5 0.321200 0.257860 0.750000 1.297973
C9    C     C_R   0.163756 0.377630 0.570731 0.206448
C10   C     C_R   0.836278 0.622344 0.429244 0.206065
C11   C     C_R   0.845700 0.624814 0.070511 0.264543
C12   C     C_R   0.152349 0.375342 0.929553 0.262156
C13   C     C_R   0.636343 0.131095 0.932511 0.225401
C14   C     C_R   0.347647 0.874282 0.069436 0.297967
C15   C     C_R   0.337570 0.877002 0.429716 0.202730
C16   C     C_R   0.662505 0.122378 0.570751 0.201870
C17   C     C_R   0.030910 0.382667 0.616909 -0.356608
C18   C     C_R   0.969105 0.617307 0.383064 -0.354829
C19   C     C_R   0.970862 0.616812 0.117555 -0.334079
C20   C     C_R   0.028334 0.383468 0.882318 -0.328572
C21   C     C_R   0.527628 0.117439 0.882649 -0.352527
C22   C     C_R   0.470108 0.883433 0.117253 -0.337359
C23   C     C_R   0.468964 0.882560 0.383224 -0.353125
C24   C     C_R   0.530934 0.117144 0.617149 -0.348603
C25   C     C_R   0.888204 0.435317 0.615893 0.256443
C26   C     C_R   0.111795 0.564649 0.384064 0.256609
C27   C     C_R   0.115689 0.565296 0.115467 0.257687
C28   C     C_R   0.883232 0.434907 0.884393 0.257825
C29   C     C_R   0.399945 0.060354 0.882560 0.237213
C30   C     C_R   0.610826 0.936321 0.115751 0.249095
C31   C     C_R   0.610161 0.935775 0.383896 0.261225
C32   C     C_R   0.389537 0.063990 0.616808 0.252670
C33   C     C_R   0.870567 0.480918 0.568588 -0.058986
C34   C     C_R   0.129467 0.519056 0.431373 -0.059852
C35   C     C_R   0.124770 0.516686 0.069881 -0.078589
C36   C     C_R   0.873690 0.483470 0.930045 -0.077951
C37   C     C_R   0.361422 0.023062 0.933626 -0.053856
C38   C     C_R   0.610358 0.987449 0.072163 -0.063669
C39   C     C_R   0.626640 0.981900 0.430962 -0.062423
C40   C     C_R   0.373904 0.017084 0.570130 -0.060297
C41   C     C_R   0.003260 0.475515 0.522824 -0.085368
C42   C     C_R   0.996803 0.524463 0.477145 -0.085408
C43   C     C_R   0.992816 0.523161 0.023766 -0.083216
C44   C     C_R   0.005503 0.477029 0.976191 -0.082906
C45   C     C_R   0.490484 0.029244 0.979798 -0.085019
C46   C     C_R   0.478324 0.981318 0.026111 -0.091042
C47   C     C_R   0.496565 0.975312 0.477442 -0.083243
C48   C     C_R   0.503468 0.023768 0.523476 -0.080454
C49   C     C_R   0.137139 0.419834 0.521365 0.052478
C50   C     C_R   0.862928 0.580145 0.478607 0.052946
C51   C     C_R   0.844563 0.574329 0.025914 0.043375
C52   C     C_R   0.153609 0.425840 0.974083 0.042553
C53   C     C_R   0.635664 0.081923 0.978485 0.034183
C54   C     C_R   0.337204 0.926813 0.025732 0.031079
C55   C     C_R   0.365206 0.918864 0.479218 0.053861
C56   C     C_R   0.634722 0.080317 0.521474 0.052832
C57   C     C_R   0.730295 0.534852 0.567125 0.218279
C58   C     C_R   0.269748 0.465126 0.432836 0.219120
C59   C     C_R   0.264333 0.462314 0.068406 0.193115
C60   C     C_R   0.733996 0.537789 0.931534 0.190054
C61   C     C_R   0.195623 0.980069 0.939316 0.227556
C62   C     C_R   0.741015 0.044566 0.073161 0.204113
C63   C     C_R   0.763999 0.036943 0.431898 0.213533
C64   C     C_R   0.237943 0.961461 0.569516 0.201191
C65   C     C_R   0.754843 0.590162 0.529177 0.227924
C66   C     C_R   0.245242 0.409821 0.470795 0.229809
C67   C     C_R   0.296298 0.425596 0.017549 0.243776
C68   C     C_R   0.701952 0.574535 0.982399 0.244075
C69   C     C_R   0.186902 0.929220 0.983222 0.262156
C70   C     C_R   0.772777 0.084029 0.023587 0.247422
C71   C     C_R   0.739112 0.091617 0.470394 0.230198
C72   C     C_R   0.261753 0.907152 0.530424 0.231675
C73   C     C_3   0.540984 0.531736 0.599712 -0.798129
H1    H     H_    0.424055 0.558463 0.575842 0.215113
H2    H     H_    0.490302 0.477619 0.603776 0.251675
H3    H     H_    0.554501 0.556941 0.641922 0.291828
C74   C     C_3   0.459006 0.468235 0.400222 -0.800806
H4    H     H_    0.575991 0.441543 0.424095 0.215196
H5    H     H_    0.445440 0.442991 0.358030 0.290897
H6    H     H_    0.509637 0.522354 0.396116 0.252161
C75   C     C_3   0.370134 0.437250 0.121199 -0.802402
H7    H     H_    0.421336 0.383164 0.116413 0.224612
H8    H     H_    0.498815 0.469918 0.129926 0.274979
H9    H     H_    0.270187 0.435497 0.158196 0.270275
C76   C     C_3   0.628203 0.562791 0.878721 -0.791821
H10   H     H_    0.576675 0.616839 0.883510 0.227711
H11   H     H_    0.728238 0.564607 0.841745 0.270528
H12   H     H_    0.499745 0.530026 0.869955 0.273380
C77   C     C_3   0.018183 0.994292 0.902707 -0.815220
H13   H     H_    0.886420 0.997308 0.929242 0.219115
H14   H     H_    0.021311 0.046054 0.882652 0.250084
H15   H     H_    0.000616 0.953488 0.869861 0.284030
C78   C     C_3   0.832575 0.070206 0.128023 -0.802308
H16   H     H_    0.863410 0.126547 0.125949 0.224873
H17   H     H_    0.730634 0.064162 0.164271 0.269377
H18   H     H_    0.971204 0.043131 0.136395 0.276637
C79   C     C_3   0.950880 0.035770 0.398015 -0.799389
H19   H     H_    0.065896 0.066154 0.419623 0.216308
H20   H     H_    0.009192 0.982456 0.395917 0.252291
H21   H     H_    0.930144 0.058108 0.354955 0.290727
C80   C     C_3   0.054637 0.961158 0.605081 -0.788788
H22   H     H_    0.940755 0.928259 0.585605 0.218034
H23   H     H_    0.082678 0.940985 0.648498 0.294013
H24   H     H_    0.990434 0.013666 0.606209 0.251194
N1    N     N_R   0.797166 0.453617 0.668416 0.246140
O21   O     O_R   0.644482 0.420290 0.685943 -0.361396
O22   O     O_R   0.848729 0.510744 0.693528 -0.361579
N2    N     N_R   0.202743 0.546334 0.331526 0.246200
O23   O     O_R   0.355320 0.579680 0.313943 -0.361877
O24   O     O_R   0.151155 0.489198 0.306432 -0.364227
N3    N     N_R   0.264712 0.567262 0.157467 0.234488
O25   O     O_R   0.428486 0.597765 0.146443 -0.421263
O26   O     O_R   0.223435 0.550347 0.209448 -0.321991
N4    N     N_R   0.734184 0.432789 0.842417 0.234649
O27   O     O_R   0.775292 0.449680 0.790423 -0.320416
O28   O     O_R   0.570628 0.402158 0.853481 -0.420765
N5    N     N_R   0.332124 0.033323 0.829282 0.242490
O29   O     O_R   0.215154 0.069302 0.797704 -0.329934
O30   O     O_R   0.360451 0.968374 0.817380 -0.338114
N6    N     N_R   0.771015 0.931785 0.154114 0.236188
O31   O     O_R   0.744881 0.942467 0.208038 -0.316213
O32   O     O_R   0.938275 0.909888 0.136129 -0.427384
N7    N     N_R   0.702713 0.953041 0.331330 0.243622
O33   O     O_R   0.858612 0.920652 0.315347 -0.365039
O34   O     O_R   0.642867 0.006757 0.302924 -0.372060
N8    N     N_R   0.295517 0.048068 0.669458 0.239271
O35   O     O_R   0.363415 0.998484 0.701067 -0.327502
O36   O     O_R   0.138622 0.080398 0.684585 -0.367463
C81   C     C_3   0.699593 0.661710 0.550266 -0.958699
H25   H     H_    0.751309 0.668464 0.594718 0.269494
H26   H     H_    0.769969 0.703275 0.524975 0.257270
H27   H     H_    0.540161 0.668942 0.550069 0.247506
C82   C     C_3   0.300531 0.338275 0.449710 -0.963876
H28   H     H_    0.248855 0.331519 0.405255 0.268016
H29   H     H_    0.459967 0.331053 0.449919 0.247776
H30   H     H_    0.230144 0.296708 0.474996 0.258025
C83   C     C_3   0.498141 0.396904 0.007371 -0.970311
H31   H     H_    0.608537 0.429341 0.029054 0.257252
H32   H     H_    0.511809 0.343365 0.023871 0.247640
H33   H     H_    0.536720 0.398991 0.961710 0.284168
C84   C     C_3   0.500087 0.603192 0.992529 -0.967803
H34   H     H_    0.389782 0.571136 0.970425 0.257151
H35   H     H_    0.460858 0.600437 0.038117 0.283185
H36   H     H_    0.486981 0.656957 0.976500 0.249591
C85   C     C_3   0.009343 0.882069 0.986522 -0.940558
H37   H     H_    0.890372 0.893781 0.956838 0.247571
H38   H     H_    0.046831 0.828499 0.974534 0.250122
H39   H     H_    0.943073 0.885126 0.029396 0.276287
C86   C     C_3   0.970392 0.117905 0.016972 -0.981601
H40   H     H_    0.082246 0.088902 0.041156 0.259821
H41   H     H_    0.021166 0.116025 0.972293 0.257228
H42   H     H_    0.969021 0.171821 0.033052 0.254192
C87   C     C_3   0.788989 0.163911 0.449603 -0.964297
H43   H     H_    0.735341 0.170721 0.405351 0.267212
H44   H     H_    0.716774 0.204490 0.475411 0.257983
H45   H     H_    0.947808 0.172752 0.449440 0.247394
C88   C     C_3   0.213380 0.834491 0.550716 -0.958534
H46   H     H_    0.266425 0.827411 0.595002 0.269752
H47   H     H_    0.054874 0.825006 0.550525 0.246279
H48   H     H_    0.287165 0.794417 0.524750 0.256982
C89   C     C_3   0.346984 0.334730 0.578072 -0.945140
H49   H     H_    0.424126 0.350196 0.617238 0.286124
H50   H     H_    0.311441 0.278704 0.579497 0.234996
H51   H     H_    0.458736 0.344534 0.545445 0.243668
C90   C     C_3   0.653016 0.665230 0.421907 -0.945368
H52   H     H_    0.575857 0.649748 0.382747 0.285944
H53   H     H_    0.541290 0.655427 0.454543 0.243566
H54   H     H_    0.688524 0.721258 0.420474 0.234965
C91   C     C_3   0.746771 0.694376 0.062782 -0.923844
H55   H     H_    0.826101 0.736731 0.084335 0.218287
H56   H     H_    0.744750 0.709913 0.017297 0.244598
H57   H     H_    0.599052 0.692963 0.080878 0.273630
C92   C     C_3   0.249934 0.305677 0.937444 -0.923773
H58   H     H_    0.168230 0.263333 0.916661 0.211483
H59   H     H_    0.396048 0.306816 0.918418 0.274818
H60   H     H_    0.254797 0.290613 0.983007 0.244932
C93   C     C_3   0.732906 0.201300 0.938327 -0.932626
H61   H     H_    0.658793 0.241440 0.912948 0.229649
H62   H     H_    0.725229 0.220167 0.982864 0.250868
H63   H     H_    0.883706 0.199232 0.922494 0.245262
C94   C     C_3   0.264133 0.802313 0.060738 -0.932161
H64   H     H_    0.333261 0.762546 0.087765 0.218667
H65   H     H_    0.108615 0.800762 0.071740 0.267934
H66   H     H_    0.294321 0.784244 0.016783 0.238415
C95   C     C_3   0.154863 0.833683 0.422766 -0.940202
H67   H     H_    0.076454 0.849244 0.383820 0.286409
H68   H     H_    0.191193 0.777768 0.421027 0.234033
H69   H     H_    0.044512 0.842969 0.455902 0.243356
C96   C     C_3   0.845408 0.165658 0.577564 -0.936638
H70   H     H_    0.923688 0.150251 0.616544 0.288409
H71   H     H_    0.955942 0.156171 0.544521 0.243213
H72   H     H_    0.809307 0.221601 0.579113 0.233147

loop_
_geom_bond_atom_site_label_1
_geom_bond_atom_site_label_2
_geom_bond_distance
_ccdc_geom_bond_type
O17   V3    1.691075 S    
C30   N6    1.429966 S    
C64   C72   1.404500 A    
O18   V4    1.691074 S    
C82   H28   1.111001 S    
C14   C94   1.519395 S    
O12   V1    2.012992 S    
C46   C54   1.434266 A    
C85   H38   1.104268 S    
C93   H61   1.104432 S    
C45   C53   1.428308 A    
N7    O33   1.300781 A    
C10   C18   1.422173 A    
C72   C88   1.519353 S    
C19   C27   1.412860 A    
C83   H33   1.104586 S    
C89   H50   1.110634 S    
C47   C55   1.418584 A    
C73   H1    1.111042 S    
C41   C49   1.419997 A    
N3    O25   1.300159 A    
C94   H64   1.105454 S    
O16   V3    2.015769 S    
C75   H8    1.108839 S    
C69   C85   1.528574 S    
C84   H34   1.110770 S    
C57   C73   1.514455 S    
O8    V1    2.009437 S    
C50   C65   1.414611 A    
C23   C31   1.416498 A    
N7    O34   1.301547 A    
C35   C59   1.427123 A    
C49   C66   1.414665 A    
C77   H13   1.103291 S    
C45   C46   1.429897 A    
C78   H17   1.109332 S    
C94   H66   1.109000 S    
O19   V1    1.692520 S    
C54   C69   1.441436 A    
C37   C45   1.409136 A    
C42   C50   1.419991 A    
C88   H46   1.111000 S    
C53   C70   1.421790 A    
O1    V3    2.008356 S    
C95   H69   1.102853 S    
C25   C33   1.422482 A    
C15   C95   1.522318 S    
O3    C2    1.298879 A    
O2    V4    2.008354 S    
C85   H37   1.101494 S    
C90   H53   1.102370 S    
C16   C24   1.420496 A    
C79   H21   1.108211 S    
C28   C36   1.426646 A    
C35   C43   1.421352 A    
C5    C19   1.507673 S    
C27   N3    1.426509 S    
C68   C84   1.518843 S    
C71   C87   1.518815 S    
C6    C20   1.508588 S    
O11   V2    2.012990 S    
N2    O23   1.300806 A    
C87   H44   1.109783 S    
C63   C71   1.401595 A    
C16   C96   1.522679 S    
C80   H24   1.108375 S    
C28   N4    1.426331 S    
C16   C56   1.427418 A    
C7    C17   1.508770 S    
C81   H26   1.109661 S    
C11   C19   1.411687 A    
C11   C51   1.431742 A    
O9    V1    2.016211 S    
C77   H15   1.110102 S    
C57   C65   1.400908 A    
O15   C7    1.299997 A    
C87   H45   1.109563 S    
C96   H71   1.102816 S    
C21   C29   1.411576 A    
O16   C8    1.299975 A    
O7    V2    2.009435 S    
N3    O26   1.294063 A    
C62   C70   1.407488 A    
C93   H62   1.108622 S    
C38   C46   1.419988 A    
O12   C4    1.303607 A    
C84   H35   1.104547 S    
C61   C69   1.424634 A    
C17   C25   1.417587 A    
C83   H32   1.108859 S    
C34   C42   1.414681 A    
C83   H31   1.110740 S    
O5    V1    2.006812 S    
C94   H65   1.104322 S    
O17   V1    2.132745 S    
C88   H47   1.109422 S    
C75   H9    1.108769 S    
C14   C22   1.417262 A    
O19   V3    2.130708 S    
C43   C44   1.432273 A    
C26   C34   1.422513 A    
C74   H4    1.111043 S    
O20   V4    2.130709 S    
C12   C92   1.517839 S    
C34   C58   1.424232 A    
N6    O32   1.300332 A    
C73   H2    1.106679 S    
C78   H18   1.109144 S    
O14   V4    2.015549 S    
C63   C79   1.514811 S    
C89   H51   1.102363 S    
C14   C54   1.444671 A    
C91   H56   1.108860 S    
C86   H40   1.111168 S    
C25   N1    1.427854 S    
C65   C81   1.518298 S    
C59   C75   1.518625 S    
C31   C39   1.424812 A    
C56   C71   1.414543 A    
N5    O30   1.301375 A    
C15   C55   1.429382 A    
C52   C67   1.419300 A    
C92   H60   1.108652 S    
C64   C80   1.514992 S    
O8    C5    1.293128 A    
C38   C62   1.425163 A    
O10   V2    2.016213 S    
C31   N7    1.427653 S    
C92   H58   1.107530 S    
C96   H70   1.104197 S    
C91   H57   1.104474 S    
O11   C3    1.302086 A    
C22   C30   1.409900 A    
C32   C40   1.426863 A    
C95   H67   1.104777 S    
O13   C5    1.302839 A    
O3    V4    2.009152 S    
C44   C52   1.424609 A    
C26   N2    1.427953 S    
C92   H59   1.102773 S    
C8    C18   1.508643 S    
C79   H19   1.110604 S    
C39   C47   1.417488 A    
C86   H41   1.105811 S    
C37   C61   1.419842 A    
C51   C68   1.419757 A    
C18   C26   1.417612 A    
O15   V4    2.015771 S    
O4    C1    1.299507 A    
C9    C49   1.428681 A    
O6    V2    2.006814 S    
C10   C50   1.428602 A    
C87   H43   1.111001 S    
C74   H6    1.106681 S    
N5    O29   1.299037 A    
C80   H22   1.109986 S    
C93   H63   1.105728 S    
N8    O36   1.300319 A    
C76   H12   1.108844 S    
C43   C51   1.425083 A    
C41   C42   1.430078 A    
C13   C21   1.416151 A    
C73   H3    1.108415 S    
C59   C67   1.406551 A    
C15   C23   1.421860 A    
N1    O21   1.300803 A    
C74   H5    1.108419 S    
C88   H48   1.109880 S    
O9    C1    1.299934 A    
C24   C32   1.416517 A    
C96   H72   1.110660 S    
O1    C4    1.294562 A    
C39   C63   1.424689 A    
O2    C3    1.293499 A    
C29   C37   1.422651 A    
O13   V3    2.015550 S    
C10   C90   1.523401 S    
C1    C23   1.510757 S    
C33   C41   1.414676 A    
N6    O31   1.294928 A    
C2    C24   1.508692 S    
C86   H42   1.108830 S    
C3    C21   1.504216 S    
O18   V2    2.132746 S    
N4    O28   1.300159 A    
C55   C72   1.415020 A    
C82   H30   1.109659 S    
C84   H36   1.108834 S    
O7    C6    1.292580 A    
C30   C38   1.421848 A    
C75   H7    1.109781 S    
C60   C76   1.518609 S    
C58   C66   1.400959 A    
C9    C17   1.422210 A    
O14   C6    1.303799 A    
C66   C82   1.518285 S    
C76   H11   1.108792 S    
C47   C48   1.431368 A    
C48   C56   1.419772 A    
C90   H54   1.110636 S    
C36   C60   1.426993 A    
C81   H27   1.109778 S    
C20   C28   1.413164 A    
C89   H49   1.104408 S    
O5    C8    1.298243 A    
C13   C53   1.437357 A    
O10   C2    1.299402 A    
N2    O24   1.301715 A    
O6    C7    1.298287 A    
C61   C77   1.522621 S    
C95   H68   1.110643 S    
C58   C74   1.514457 S    
O20   V2    1.692519 S    
C62   C78   1.518627 S    
C29   N5    1.434697 S    
C40   C48   1.418589 A    
C90   H52   1.104443 S    
C33   C57   1.424257 A    
C79   H20   1.107997 S    
O4    V3    2.009151 S    
C12   C20   1.410615 A    
N4    O27   1.293972 A    
C11   C91   1.519765 S    
C70   C86   1.520359 S    
C12   C52   1.430771 A    
C27   C35   1.425955 A    
C36   C44   1.421216 A    
C82   H29   1.109780 S    
C91   H55   1.107588 S    
C76   H10   1.109828 S    
C80   H23   1.108155 S    
C13   C93   1.517652 S    
N8    O35   1.299890 A    
C67   C83   1.519123 S    
C9    C89   1.523369 S    
C85   H39   1.106420 S    
C60   C68   1.407060 A    
C77   H14   1.105570 S    
C81   H25   1.111000 S    
C78   H16   1.110472 S    
C32   N8    1.428098 S    
C40   C64   1.426595 A    
C4    C22   1.511957 S    
N1    O22   1.301718 A    
