data_mof_unit_15865.cif
_audit_creation_date              2012-12-11T16:53:33-0500
_audit_creation_method            fapswitch 2.2
_symmetry_space_group_name_H-M    P1
_symmetry_Int_Tables_number       1
_space_group_crystal_system       triclinic
_cell_length_a                    14.826695
_cell_length_b                    14.764682
_cell_length_c                    17.053472
_cell_angle_alpha                 109.020234
_cell_angle_beta                  106.590716
_cell_angle_gamma                 107.692825
_cell_volume                      3040.51500234

loop_
_atom_site_label
_atom_site_type_symbol
_atom_type_description
_atom_site_fract_x
_atom_site_fract_y
_atom_site_fract_z
_atom_type_partial_charge
Br1   Br    Br    0.752891 0.604620 0.470965 -0.488546
Br2   Br    Br    0.910704 0.720746 0.684647 -0.507997
Br3   Br    Br    0.102260 0.319000 0.289998 -0.532868
Br4   Br    Br    0.298503 0.283214 0.261320 -0.493443
Br5   Br    Br    0.323345 0.589076 0.287538 -0.532707
C1    C     C_R   0.088209 0.284806 0.074749 -0.083511
C2    C     C_R   0.063891 0.552233 0.263224 -0.044528
C3    C     C_R   0.281492 0.783846 0.178079 -0.185649
C4    C     C_R   0.937269 0.523924 0.748555 0.042051
C5    C     C_R   0.697234 0.403710 0.994003 -0.153658
C6    C     C_R   0.337810 0.777747 0.255251 -0.012218
C7    C     C_R   0.635330 0.432025 0.938194 0.021368
C8    C     C_R   0.971839 0.534953 0.273780 0.066134
C9    C     C_R   0.994027 0.816650 0.968288 0.129352
C10   C     C_R   0.382859 0.447102 0.868601 0.134126
C11   C     C_R   0.343896 0.407203 0.921778 0.046470
C12   C     C_R   0.029532 0.585729 0.749331 0.113740
C13   C     C_R   0.382106 0.343261 0.952450 -0.167610
C14   C     C_R   0.469872 0.335204 0.943301 -0.168699
C15   C     C_R   0.521321 0.392709 0.905010 0.044058
C16   C     C_R   0.778274 0.201467 0.814189 -0.128647
C17   C     C_R   0.471191 0.439439 0.859551 0.109581
C18   C     C_3   0.416748 0.396601 0.757353 -0.478641
C19   C     C_3   0.323123 0.407417 0.768367 -0.464062
C20   C     C_R   0.969072 0.574450 0.363364 0.075018
C21   C     C_R   0.045594 0.617943 0.680529 0.004150
C22   C     C_R   0.139362 0.618738 0.587339 -0.146852
C23   C     C_R   0.763898 0.194505 0.728115 0.078157
C24   C     C_R   0.132036 0.614842 0.664364 -0.217545
C25   C     C_R   0.972873 0.639569 0.625076 0.327070
C26   C     C_R   0.969447 0.625040 0.537751 -0.070263
C27   C     C_R   0.055380 0.614994 0.521308 0.102399
C28   C     C_R   0.255289 0.528708 0.946153 -0.126559
C29   C     C_R   0.054805 0.592206 0.436663 -0.241105
C30   C     C_R   0.883477 0.587037 0.376686 -0.088307
C31   C     C_R   0.882421 0.611509 0.463948 0.329072
C32   C     C_R   0.721819 0.096540 0.643196 0.106581
C33   C     C_R   0.444666 0.852825 0.326257 0.140147
C34   C     C_R   0.282978 0.451985 0.960705 0.026106
C35   C     C_R   0.599166 0.020729 0.395756 -0.194913
C36   C     C_R   0.507411 0.940394 0.319641 -0.158744
C37   C     C_R   0.479709 0.842866 0.406992 -0.210908
C38   C     C_R   0.573588 0.918717 0.481194 0.129375
C39   C     C_R   0.629504 0.012655 0.478070 0.160697
C40   C     C_R   0.785881 0.296267 0.736042 -0.141208
C41   C     C_R   0.705756 0.101071 0.559610 -0.259528
C42   C     C_R   0.680729 0.997535 0.643201 -0.182673
C43   C     C_R   0.606052 0.907570 0.562109 0.001815
C44   C     C_R   0.083410 0.123944 0.154294 -0.010992
C45   C     C_R   0.275857 0.681883 0.248937 0.255902
C46   C     C_R   0.998467 0.108932 0.079698 0.075678
C47   C     C_R   0.906128 0.012826 0.038735 -0.165516
C48   C     C_R   0.895124 0.943466 0.079485 -0.194230
C49   C     C_R   0.976397 0.967576 0.160717 0.086703
C50   C     C_R   0.072117 0.053684 0.192744 0.057811
C51   C     C_3   0.142883 0.138157 0.287944 -0.563886
C52   C     C_R   0.250565 0.433997 0.025046 -0.052615
C53   C     C_3   0.156133 0.216713 0.247464 0.576693
C54   C     C_R   0.109545 0.606133 0.826815 -0.187318
C55   C     C_R   0.915703 0.201071 0.998916 -0.124635
C56   C     C_R   0.702528 0.497951 0.916463 0.048214
C57   C     C_R   0.002010 0.190861 0.046681 0.065604
C58   C     C_R   0.889521 0.462941 0.187936 -0.096443
C59   C     C_R   0.080944 0.803750 0.010354 0.036050
C60   C     C_R   0.909741 0.719310 0.935225 -0.149217
H1    H     H_    0.166106 0.311617 0.124838 0.171514
H2    H     H_    0.401863 0.312502 0.719305 0.205521
H3    H     H_    0.308393 0.470187 0.752286 0.185266
H4    H     H_    0.252867 0.329758 0.736060 0.205698
H5    H     H_    0.119530 0.578982 0.426734 0.164447
H6    H     H_    0.205625 0.612714 0.574936 0.145117
H7    H     H_    0.191322 0.602658 0.708266 0.133573
H8    H     H_    0.742886 0.175590 0.558204 0.124823
H9    H     H_    0.768194 0.138206 0.834017 0.094165
H10   H     H_    0.698976 0.990999 0.706541 0.116924
H11   H     H_    0.642631 0.091662 0.391947 0.139185
H12   H     H_    0.806775 0.430515 0.170575 0.111064
H13   H     H_    0.483076 0.950396 0.258150 0.123477
H14   H     H_    0.429032 0.782820 0.417308 0.175014
H15   H     H_    0.840096 0.993733 0.978133 0.122460
H16   H     H_    0.821598 0.873781 0.050509 0.129443
H17   H     H_    0.101137 0.147617 0.332650 0.216895
H18   H     H_    0.214701 0.128353 0.316457 0.214540
H19   H     H_    0.269233 0.561975 0.900632 0.102189
H20   H     H_    0.783501 0.319883 0.682567 0.092300
H21   H     H_    0.260353 0.380301 0.053315 0.112880
H22   H     H_    0.190339 0.663405 0.855256 0.105895
H23   H     H_    0.830268 0.697462 0.891115 0.135350
H24   H     H_    0.835145 0.152045 0.981319 0.093359
H25   H     H_    0.622179 0.454444 0.782565 0.111961
H26   H     H_    0.634968 0.573097 0.857250 0.099707
H27   H     H_    0.222257 0.921033 0.103410 0.113867
H28   H     H_    0.223609 0.828611 0.013111 0.101059
H29   H     H_    0.784886 0.486166 0.723711 0.120170
H30   H     H_    0.807985 0.447166 0.629218 0.117078
H31   H     H_    0.787518 0.643637 0.320522 0.160685
H32   H     H_    0.730047 0.510374 0.286979 0.162672
H33   H     H_    0.587662 0.814526 0.628969 0.121901
H34   H     H_    0.142520 0.606864 0.314655 0.121686
H35   H     H_    0.577654 0.753554 0.522961 0.188063
H36   H     H_    0.313945 0.838068 0.153189 0.106248
H37   H     H_    0.670629 0.341921 0.014023 0.100130
H38   H     H_    0.351022 0.307459 0.990792 0.137139
H39   H     H_    0.503012 0.293867 0.975699 0.127034
H40   H     H_    0.453803 0.451339 0.732034 0.194968
N1    N     N_R   0.055640 0.348550 0.045600 -0.043664
N2    N     N_R   0.811290 0.303400 0.871650 -0.042530
N3    N     N_R   0.205180 0.552990 0.997660 -0.044653
N4    N     N_R   0.814810 0.361830 0.823710 -0.046248
N5    N     N_R   0.201660 0.494570 0.045600 -0.033008
N6    N     N_R   0.068420 0.560530 0.871650 -0.047307
N7    N     N_R   0.948050 0.295860 0.997660 -0.046586
N8    N     N_R   0.185190 0.638170 0.176290 -0.070909
N9    N     N_3   0.672785 0.524787 0.842972 -0.225556
N10   N     N_3   0.184712 0.874115 0.032406 -0.203454
N11   N     N_3   0.835474 0.508921 0.694554 -0.169013
N12   N     N_R   0.798340 0.505430 0.954400 -0.048088
N13   N     N_3   0.797993 0.574078 0.301341 -0.215036
N14   N     N_3   0.557403 0.807458 0.562731 -0.201496
N15   N     N_R   0.931580 0.439470 0.128350 -0.048162
N16   N     N_R   0.051950 0.704140 0.002340 -0.059963
N17   N     N_R   0.944360 0.651450 0.954400 -0.051769
N18   N     N_R   0.039170 0.492150 0.176290 -0.025325
N19   N     N_R   0.188710 0.696600 0.128350 -0.058556
N20   N     N_R   0.794820 0.447010 0.002340 -0.052199
N21   N     N_R   0.960830 0.507850 0.823710 -0.058272
Ni1   Ni    Ni4+2 0.119330 0.493420 0.109950 0.295019
Ni2   Ni    Ni4+2 0.880670 0.506580 0.890050 0.212862
Ni3   Ni    Ni4+2 0.872590 0.372590 0.000000 0.212610
Ni4   Ni    Ni4+2 0.127410 0.627410 0.000000 0.201961

loop_
_geom_bond_atom_site_label_1
_geom_bond_atom_site_label_2
_ccdc_geom_bond_type
C50   C51   S    
C48   H16   S    
C7    C56   A    
C22   C24   A    
C14   C15   A    
N16   Ni4   S    
N2    Ni3   S    
H33   N14   S    
N1    N7    A    
C48   C49   A    
C28   N3    A    
C28   C34   A    
C1    H1    S    
C2    H34   S    
C60   H23   S    
C12   C21   S    
H31   N13   S    
C33   C37   A    
C25   C26   A    
C40   N4    A    
C59   N16   A    
C34   C52   A    
C52   H21   S    
C55   C57   A    
C13   C14   A    
H28   N10   S    
C18   H2    S    
H32   N13   S    
N4    Ni2   S    
C10   C17   A    
C42   C43   A    
N3    N5    A    
C44   C46   A    
C54   N6    A    
C18   C19   S    
N7    Ni3   S    
C32   C42   A    
C5    N20   A    
C38   C43   A    
C29   H5    S    
N3    Ni4   S    
N15   N18   A    
C20   C29   A    
C24   H7    S    
C37   H14   S    
C59   N10   S    
N2    N4    A    
C8    C20   S    
C46   C57   S    
H27   N10   S    
C39   C41   A    
C19   H4    S    
C43   N14   S    
C23   C40   A    
C56   N12   A    
N15   Ni3   S    
C5    H37   S    
C33   C36   A    
C28   H19   S    
C36   H13   S    
H29   N11   S    
C3    N19   A    
C44   C50   A    
C16   H9    S    
C44   C53   S    
C35   H11   S    
C30   C31   A    
C27   C29   A    
C6    C33   S    
C40   H20   S    
C38   C39   A    
C55   N7    A    
C14   H39   S    
N6    Ni4   S    
N18   Ni1   S    
C26   C27   A    
C8    C58   A    
C35   C39   A    
H30   N11   S    
C9    C59   A    
C7    C15   S    
N6    N21   A    
C1    N1    A    
N19   Ni4   S    
H35   N14   S    
C60   N17   A    
N16   N17   A    
C16   N2    A    
C5    C7    A    
C12   C54   A    
C4    C12   A    
C35   C36   A    
C16   C23   A    
C20   C30   A    
C21   C25   A    
Br5   C45   S    
C37   C38   A    
C15   C17   A    
C22   H6    S    
C47   C48   A    
C51   H18   S    
C58   H12   S    
C55   H24   S    
C49   C50   A    
C10   C19   S    
N21   Ni2   S    
C22   C27   A    
C26   C31   A    
C4    N11   S    
C2    N18   A    
C52   N5    A    
C51   H17   S    
N8    Ni1   S    
C3    H36   S    
N5    Ni1   S    
C4    N21   A    
H26   N9    S    
Br2   C25   S    
C45   N8    A    
C1    C57   A    
C42   H10   S    
C46   C47   A    
C6    C45   A    
C58   N15   A    
N8    N19   A    
C23   C32   S    
C3    C6    A    
N1    Ni1   S    
C9    C60   A    
C51   C53   S    
C13   H38   S    
H25   N9    S    
N17   Ni2   S    
N12   Ni2   S    
C54   H22   S    
C19   H3    S    
C11   C34   S    
Br3   C53   S    
N20   Ni3   S    
C2    C8    A    
C21   C24   A    
C11   C13   A    
Br4   C53   S    
C56   N9    S    
C17   C18   S    
C30   N13   S    
C32   C41   A    
C47   H15   S    
N12   N20   A    
C41   H8    S    
C10   C11   A    
Br1   C31   S    
C18   H40   S    
