data_mof_unit_18700.cif
_audit_creation_date              2012-12-10T17:02:30-0500
_audit_creation_method            fapswitch 2.2
_symmetry_space_group_name_H-M    P1
_symmetry_Int_Tables_number       1
_space_group_crystal_system       triclinic
_cell_length_a                    10.789531
_cell_length_b                    11.006445
_cell_length_c                    9.910413
_cell_angle_alpha                 111.197924
_cell_angle_beta                  98.239207
_cell_angle_gamma                 92.059869
_cell_volume                      1081.0231672

loop_
_atom_site_label
_atom_site_type_symbol
_atom_type_description
_atom_site_fract_x
_atom_site_fract_y
_atom_site_fract_z
_atom_type_partial_charge
C1    C     C_R   0.493253 0.254385 0.440434 0.835561
C2    C     C_R   0.506748 0.745615 0.559566 0.835562
C3    C     C_2   0.474144 0.115398 0.408142 -0.328314
C4    C     C_2   0.525858 0.884602 0.591859 -0.328311
C5    C     C_2   0.527994 0.062954 0.501842 0.110165
C6    C     C_2   0.472007 0.937047 0.498160 0.110166
C7    C     C_2   0.517275 0.504513 0.079364 0.417050
C8    C     C_2   0.482725 0.495488 0.920636 0.417050
C9    C     C_R   0.263149 0.499569 0.500803 0.775587
C10   C     C_R   0.736851 0.500431 0.499197 0.775583
C11   C     C_R   0.160807 0.728600 0.679641 -0.136811
C12   C     C_R   0.839193 0.271400 0.320361 -0.136810
C13   C     C_R   0.111893 0.839922 0.767036 0.202358
C14   C     C_R   0.888107 0.160077 0.232965 0.202359
C15   C     C_R   0.982812 0.841405 0.763000 -0.122443
C16   C     C_R   0.017187 0.158595 0.237000 -0.122443
C17   C     C_R   0.902568 0.730877 0.673646 -0.189354
C18   C     C_R   0.097432 0.269124 0.326354 -0.189354
C19   C     C_R   0.950514 0.614630 0.587757 0.064016
C20   C     C_R   0.049486 0.385370 0.412243 0.064016
C21   C     C_R   0.081296 0.613680 0.590360 0.046507
C22   C     C_R   0.918703 0.386320 0.409641 0.046506
C23   C     C_R   0.870581 0.500813 0.497719 -0.130529
C24   C     C_R   0.129419 0.499187 0.502281 -0.130530
Cu1   Cu    Cu3+1 0.521920 0.521810 0.644910 1.008285
Cu2   Cu    Cu3+1 0.478080 0.478190 0.355090 1.008285
H1    H     H_    0.055646 0.071521 0.171001 0.186816
H2    H     H_    0.944354 0.928479 0.828999 0.186815
H3    H     H_    0.261393 0.734241 0.683365 0.167235
H4    H     H_    0.738607 0.265758 0.316637 0.167234
H5    H     H_    0.802898 0.738443 0.672805 0.152041
H6    H     H_    0.197102 0.261558 0.327195 0.152042
H7    H     H_    0.599195 0.938678 0.683271 0.181544
H8    H     H_    0.400810 0.061320 0.316728 0.181546
H9    H     H_    0.646660 0.582158 0.914102 0.197355
H10   H     H_    0.353340 0.417841 0.085898 0.197353
N1    N     N_2   0.445130 0.445420 0.137360 -0.302569
N2    N     N_2   0.554870 0.554580 0.862640 -0.302569
O1    O     O_R   0.511700 0.332340 0.577400 -0.548698
O2    O     O_R   0.488300 0.667660 0.422600 -0.548698
O3    O     O_R   0.474680 0.295500 0.332650 -0.569072
O4    O     O_R   0.525320 0.704500 0.667350 -0.569072
O5    O     O_R   0.338170 0.518410 0.622370 -0.521825
O6    O     O_R   0.661830 0.481590 0.377630 -0.521826
O7    O     O_R   0.301150 0.481570 0.377630 -0.570300
O8    O     O_R   0.698850 0.518430 0.622370 -0.570299
I1    I     I_    0.234099 0.005106 0.907060 -0.422967
I2    I     I_    0.765901 0.994893 0.092942 -0.422968
I3    I     I_    0.295202 0.845740 0.357711 -0.394240
I4    I     I_    0.704797 0.154264 0.642295 -0.394238
O9    O     O_3   0.367635 0.431598 0.838994 -0.558480
C25   C     C_3   0.369312 0.294078 0.796858 0.075521
H11   H     H_    0.354223 0.261121 0.886544 0.149515
H12   H     H_    0.459643 0.259140 0.764000 0.184151
C26   C     C_3   0.262176 0.225949 0.670080 -0.667953
H13   H     H_    0.272416 0.253874 0.575293 0.224355
H14   H     H_    0.262901 0.118191 0.635573 0.229831
H15   H     H_    0.170536 0.254189 0.704619 0.255659
O10   O     O_3   0.632364 0.568404 0.161006 -0.558479
C27   C     C_3   0.630682 0.705924 0.203141 0.075520
H16   H     H_    0.540351 0.740860 0.236000 0.184152
H17   H     H_    0.645769 0.738881 0.113453 0.149515
C28   C     C_3   0.737819 0.774057 0.329918 -0.667953
H18   H     H_    0.829461 0.745832 0.295372 0.255658
H19   H     H_    0.737082 0.881814 0.364435 0.229829
H20   H     H_    0.727591 0.746119 0.424699 0.224361

loop_
_geom_bond_atom_site_label_1
_geom_bond_atom_site_label_2
_ccdc_geom_bond_type
Cu1   O4    S    
C10   O8    A    
C2    C4    S    
C26   H13   S    
C28   H19   S    
Cu2   N1    S    
C9    O7    A    
C2    O2    A    
C10   C23   S    
C19   C23   A    
Cu2   O7    S    
C25   C26   S    
C12   C14   A    
Cu1   O5    S    
C16   H1    S    
C26   H14   S    
C7    N1    D    
C28   H20   S    
Cu2   O6    S    
C7    C8    S    
C9    C24   S    
C16   C18   A    
Cu1   O1    S    
C11   C13   A    
C8    O9    S    
Cu2   O2    S    
C15   H2    S    
C26   H15   S    
C8    N2    D    
C2    O4    A    
C27   C28   S    
C17   H5    S    
C1    O3    A    
H10   N1    S    
C19   C21   A    
C25   H12   S    
C18   C20   A    
C13   C15   A    
C6    I3    S    
C5    C6    S    
Cu1   N2    S    
C14   C16   A    
C5    I4    S    
C9    O5    A    
C4    C6    D    
C18   H6    S    
C1    O1    A    
C28   H18   S    
C10   O6    A    
O9    C25   S    
C12   C22   A    
O10   C27   S    
H9    N2    S    
C25   H11   S    
C11   H3    S    
C27   H17   S    
C21   C24   A    
C7    O10   S    
C1    C3    S    
C15   C17   A    
C22   C23   A    
C17   C19   A    
C14   I2    S    
C3    H8    S    
C12   H4    S    
Cu1   Cu2   S    
C4    H7    S    
C13   I1    S    
Cu1   O8    S    
C11   C21   A    
C20   C24   A    
Cu2   O3    S    
C20   C22   A    
C27   H16   S    
C3    C5    D    
