data_mof_unit_39182.cif
_audit_creation_date              2012-12-11T16:05:14-0500
_audit_creation_method            fapswitch 2.2
_symmetry_space_group_name_H-M    P1
_symmetry_Int_Tables_number       1
_space_group_crystal_system       triclinic
_cell_length_a                    10.667779
_cell_length_b                    10.645637
_cell_length_c                    16.922297
_cell_angle_alpha                 98.602328
_cell_angle_beta                  98.547351
_cell_angle_gamma                 61.249295
_cell_volume                      1659.38475462

loop_
_atom_site_label
_atom_site_type_symbol
_atom_type_description
_atom_site_fract_x
_atom_site_fract_y
_atom_site_fract_z
_atom_type_partial_charge
C1    C     C_R   0.383999 0.705194 0.387162 0.547141
C2    C     C_3   0.329794 0.674999 0.232021 -0.105973
C3    C     C_3   0.377725 0.744128 0.307674 0.013024
C4    C     C_R   0.369448 0.345627 0.359262 0.572076
C5    C     C_3   0.494774 0.745253 0.265028 -0.131874
C6    C     C_3   0.385215 0.897705 0.241219 -0.149166
C7    C     C_3   0.270179 0.895411 0.285751 -0.094023
C8    C     C_3   0.221724 0.826383 0.209825 0.267799
C9    C     C_3   0.335720 0.828937 0.164988 0.047485
C10   C     C_3   0.474004 0.244851 0.779400 0.286019
C11   C     C_3   0.464420 0.383956 0.757273 -0.132364
C12   C     C_3   0.736266 0.380101 0.252173 -0.173947
C13   C     C_3   0.376586 0.369210 0.679652 0.006038
C14   C     C_3   0.387223 0.229905 0.701579 -0.082472
C15   C     C_3   0.246402 0.320485 0.742391 -0.156041
C16   C     C_R   0.781980 0.374016 0.404022 0.557806
C17   C     C_3   0.235179 0.460808 0.719247 -0.113087
C18   C     C_3   0.322850 0.473887 0.798983 -0.172385
C19   C     C_3   0.334693 0.333572 0.820682 0.025742
C20   C     C_1   0.820986 0.340014 0.708918 -0.024005
C21   C     C_1   0.847860 0.313495 0.777484 -0.004203
C22   C     C_1   0.338212 0.811698 0.709783 -0.023306
C23   C     C_3   0.841733 0.336719 0.327471 0.043734
C24   C     C_1   0.313711 0.838842 0.778626 -0.025247
C25   C     C_R   0.959366 0.283950 0.102603 0.554111
C26   C     C_R   0.318295 0.298451 0.120739 0.535088
C27   C     C_R   0.295375 0.888891 0.087946 0.540540
C28   C     C_R   0.356512 0.771222 0.627232 0.541679
C29   C     C_R   0.886871 0.298824 0.860439 0.578111
C30   C     C_R   0.310136 0.295187 0.893250 0.556074
C31   C     C_R   0.280432 0.884382 0.859125 0.530120
C32   C     C_R   0.408397 0.378246 0.601133 0.560755
C33   C     C_R   0.775359 0.378727 0.629223 0.537676
C34   C     C_3   0.935542 0.189566 0.285549 -0.129462
C35   C     C_1   0.341563 0.333141 0.275732 -0.033323
C36   C     C_1   0.329679 0.322923 0.204520 -0.048549
C37   C     C_3   0.831195 0.233075 0.208776 -0.077658
C38   C     C_3   0.023742 0.254319 0.257991 -0.127228
C39   C     C_3   0.926917 0.401510 0.300596 0.243698
C40   C     C_3   0.822130 0.446154 0.225265 -0.094876
C41   C     C_3   0.917489 0.299014 0.182959 0.020240
C42   C     C_3   0.444927 0.677592 0.186962 -0.184595
Cl1   Cl    Cl    0.040001 0.866619 0.178401 -0.582275
Cl2   Cl    Cl    0.987310 0.516723 0.361439 -0.558288
Cr1   Cr    Cr6+3 0.608340 0.611040 0.520430 1.072842
Cr2   Cr    Cr6+3 0.287650 0.601120 0.489350 1.098014
Cr3   Cr    Cr6+3 0.604040 0.287870 0.490280 1.059058
Cr4   Cr    Cr6+3 0.054020 0.052700 0.970850 1.117927
Cr5   Cr    Cr6+3 0.059230 0.375120 0.993390 1.073120
Cr6   Cr    Cr6+3 0.374950 0.061200 0.992340 1.099838
H1    H     H_    0.618527 0.426656 0.252947 0.110402
H2    H     H_    0.971347 0.088844 0.313618 0.169976
H3    H     H_    0.142126 0.203926 0.258390 0.104318
H4    H     H_    0.777357 0.550877 0.199546 0.158519
H5    H     H_    0.304025 0.585789 0.229766 0.139198
H6    H     H_    0.514469 0.590713 0.144066 0.129995
H7    H     H_    0.606092 0.713338 0.291876 0.169028
H8    H     H_    0.853167 0.981529 0.774192 0.371712
H9    H     H_    0.408010 0.989620 0.243408 0.137754
H10   H     H_    0.207760 0.981216 0.331037 0.128945
H11   H     H_    0.552861 0.411845 0.761944 0.117622
H12   H     H_    0.413680 0.129455 0.661451 0.161397
H13   H     H_    0.156137 0.294684 0.737580 0.125072
H14   H     H_    0.137176 0.549904 0.692427 0.163863
H15   H     H_    0.296223 0.572755 0.840453 0.141043
H16   H     H_    0.790607 0.165028 0.169148 0.197578
O1    O     O_R   0.751220 0.499230 0.435170 -0.473945
O2    O     O_R   0.412990 0.180750 0.091610 -0.500940
O3    O     O_R   0.366620 0.943130 0.065760 -0.510953
O4    O     O_R   0.477220 0.727600 0.436870 -0.491865
O5    O     O_R   0.160510 0.906330 0.879210 -0.518722
O6    O     O_R   0.930190 0.179050 0.889450 -0.446024
O7    O     O_R   0.909140 0.398170 0.896710 -0.508429
O8    O     O_R   0.186190 0.363460 0.918830 -0.507256
O9    O     O_R   0.401670 0.173200 0.913310 -0.439532
O10   O     O_R   0.356120 0.936130 0.900470 -0.472646
O11   O     O_3   0.162740 0.163010 0.985530 -0.316685
O12   O     O_R   0.297880 0.469080 0.560050 -0.481749
O13   O     O_R   0.258650 0.745120 0.411470 -0.481288
O14   O     O_R   0.297070 0.467240 0.395960 -0.452404
O15   O     O_R   0.488830 0.252610 0.387790 -0.508310
O16   O     O_R   0.724400 0.302390 0.420980 -0.510089
O17   O     O_R   0.752100 0.501210 0.612190 -0.494641
O18   O     O_R   0.478040 0.729440 0.600970 -0.482720
O19   O     O_R   0.259530 0.747110 0.588490 -0.511016
O20   O     O_2   0.686270 0.138046 0.896941 -0.266099
O21   O     O_2   0.618178 0.967929 0.812383 -0.264610
O22   O     O_3   0.764311 0.060806 0.751193 -0.531591
O23   O     O_R   0.489720 0.254590 0.564810 -0.489402
O24   O     O_R   0.725220 0.304230 0.585080 -0.497902
O25   O     O_3   0.500010 0.500010 0.500020 -0.333203
O26   O     O_R   0.171830 0.913880 0.057510 -0.464421
O27   O     O_R   0.940690 0.186050 0.054730 -0.461942
O28   O     O_R   0.920470 0.405720 0.075010 -0.502687
O29   O     O_R   0.196690 0.370460 0.084120 -0.495798
S1    S     S_3+6 0.639079 0.098045 0.813179 0.029041

loop_
_geom_bond_atom_site_label_1
_geom_bond_atom_site_label_2
_ccdc_geom_bond_type
C5    C42   S    
O22   S1    S    
C11   C18   S    
C25   O27   A    
C28   O18   A    
C34   C37   S    
C13   C32   S    
C35   C36   T    
C8    Cl1   S    
C6    C9    S    
C7    C8    S    
C18   H15   S    
C15   C19   S    
C12   C23   S    
C9    C42   S    
C5    C6    S    
Cr6   O3    S    
C4    O14   A    
C3    C7    S    
C2    H5    S    
C17   H14   S    
C38   C39   S    
C30   O8    A    
C29   O7    A    
C14   H12   S    
C18   C19   S    
Cr3   O16   S    
C12   C37   S    
C42   H6    S    
C4    O15   A    
C8    C9    S    
Cr1   O1    S    
Cr5   O28   S    
C27   O3    A    
Cr2   O19   S    
C31   O5    A    
C4    C35   S    
C25   O28   A    
C22   C28   S    
C13   C14   S    
O21   S1    D    
Cr3   O23   S    
Cr1   O17   S    
Cr4   O6    S    
Cr4   O27   S    
C38   C41   S    
C10   C14   S    
C25   C41   S    
C39   C40   S    
Cr2   O12   S    
Cr2   O25   S    
C11   H11   S    
C21   C29   S    
C1    C3    S    
Cr4   O11   S    
C12   C40   S    
Cr6   O10   S    
C32   O23   A    
C14   C15   S    
C10   S1    S    
C10   C19   S    
C23   C34   S    
C37   H16   S    
C16   O16   A    
C17   C18   S    
C27   O26   A    
C16   O1    A    
Cr5   O29   S    
C33   O17   A    
C39   Cl2   S    
O20   S1    D    
C20   C33   S    
C26   C36   S    
C40   C41   S    
C16   C23   S    
C40   H4    S    
C1    O13   A    
Cr3   O24   S    
Cr5   O7    S    
Cr1   O18   S    
Cr4   O5    S    
Cr6   O11   S    
C7    H10   S    
C12   H1    S    
C9    C27   S    
C26   O29   A    
C15   C17   S    
Cr1   O4    S    
C34   C38   S    
Cr3   O25   S    
C6    H9    S    
C2    C8    S    
C3    C5    S    
H8    O22   S    
C6    C7    S    
C5    H7    S    
C34   H2    S    
C1    O4    A    
C13   C17   S    
C26   O2    A    
C29   O6    A    
C2    C3    S    
C24   C31   S    
C33   O24   A    
Cr2   O14   S    
C30   O9    A    
C11   C13   S    
C31   O10   A    
Cr2   O13   S    
C38   H3    S    
C2    C42   S    
C23   C39   S    
Cr5   O11   S    
C22   C24   T    
Cr3   O15   S    
C37   C41   S    
Cr1   O25   S    
C10   C11   S    
C32   O12   A    
C20   C21   T    
Cr4   O26   S    
C28   O19   A    
C15   H13   S    
Cr5   O8    S    
Cr6   O9    S    
C19   C30   S    
Cr6   O2    S    
