data_mof_unit_59823.cif
_audit_creation_date              2012-12-11T16:28:29-0500
_audit_creation_method            fapswitch 2.2
_symmetry_space_group_name_H-M    P1
_symmetry_Int_Tables_number       1
_space_group_crystal_system       triclinic
_cell_length_a                    16.46847
_cell_length_b                    7.268463
_cell_length_c                    15.313084
_cell_angle_alpha                 90.00207
_cell_angle_beta                  94.549496
_cell_angle_gamma                 89.99886
_cell_volume                      1827.20787776

loop_
_atom_site_label
_atom_site_type_symbol
_atom_type_description
_atom_site_fract_x
_atom_site_fract_y
_atom_site_fract_z
_atom_type_partial_charge
O1    O     O_R   0.663460 0.361760 0.165970 -0.544378
O2    O     O_R   0.336540 0.638240 0.834030 -0.516244
O3    O     O_R   0.836540 0.861760 0.334030 -0.544349
O4    O     O_R   0.163460 0.138240 0.665970 -0.516193
O5    O     O_R   0.827100 0.689870 0.163730 -0.547812
O6    O     O_R   0.172900 0.310130 0.836270 -0.523808
O7    O     O_R   0.672900 0.189870 0.336270 -0.547815
O8    O     O_R   0.327100 0.810130 0.663730 -0.523862
H1    H     H_    0.214548 0.985681 0.507812 0.118397
H2    H     H_    0.785687 0.019106 0.492517 0.118540
H3    H     H_    0.285446 0.486711 0.992162 0.118369
H4    H     H_    0.714334 0.518050 0.007505 0.118513
C1    C     C_R   0.853085 0.522745 0.143476 0.710033
C2    C     C_R   0.146822 0.476885 0.856432 0.717164
C3    C     C_R   0.646912 0.022752 0.356522 0.710101
C4    C     C_R   0.353176 0.976879 0.643565 0.717091
O9    O     O_R   0.663490 0.691370 0.155500 -0.524360
O10   O     O_R   0.336510 0.308630 0.844500 -0.548933
O11   O     O_R   0.836510 0.191370 0.344500 -0.524410
O12   O     O_R   0.163490 0.808630 0.655500 -0.548956
O13   O     O_R   0.671770 0.863320 0.325740 -0.520442
O14   O     O_R   0.328230 0.136680 0.674260 -0.545257
O15   O     O_R   0.828230 0.363320 0.174260 -0.520494
O16   O     O_R   0.171770 0.636680 0.825740 -0.545254
C5    C     C_R   0.633399 0.523530 0.137194 0.769787
C6    C     C_R   0.366562 0.477157 0.862803 0.764680
C7    C     C_R   0.866607 0.023535 0.362800 0.769757
C8    C     C_R   0.133442 0.977154 0.637192 0.764711
H5    H     H_    0.140984 0.105249 0.242914 0.138690
H6    H     H_    0.862339 0.085714 0.760756 0.136390
H7    H     H_    0.359106 0.606349 0.257051 0.138850
H8    H     H_    0.637787 0.584536 0.739250 0.136282
O17   O     O_3   0.752910 0.528800 0.305860 -0.383721
O18   O     O_3   0.247090 0.471200 0.694140 -0.383423
O19   O     O_3   0.747090 0.028800 0.194140 -0.383757
O20   O     O_3   0.252910 0.971200 0.805860 -0.383384
V1    V     V_3+5 0.749460 0.803010 0.239640 1.448746
V2    V     V_3+5 0.250540 0.196990 0.760360 1.452711
V3    V     V_3+5 0.750540 0.303010 0.260360 1.448682
V4    V     V_3+5 0.249460 0.696990 0.739640 1.452634
C9    C     C_1   0.468829 0.992835 0.530059 0.007603
C10   C     C_1   0.531396 0.003802 0.470087 0.009756
C11   C     C_1   0.031166 0.492843 0.969934 0.007584
C12   C     C_1   0.968600 0.503794 0.029908 0.009810
C13   C     C_R   0.041679 0.048798 0.322903 0.358358
C14   C     C_R   0.960000 0.026911 0.678665 0.357583
C15   C     C_R   0.458351 0.549369 0.177068 0.358340
C16   C     C_R   0.540046 0.526316 0.821328 0.357594
C17   C     C_R   0.124411 0.067780 0.307610 -0.286111
C18   C     C_R   0.877926 0.054377 0.695007 -0.285965
C19   C     C_R   0.375639 0.568766 0.192352 -0.286165
C20   C     C_R   0.622153 0.553329 0.804993 -0.285936
C21   C     C_R   0.185810 0.039346 0.374105 0.349339
C22   C     C_R   0.815834 0.044798 0.627912 0.351220
C23   C     C_R   0.314220 0.540549 0.125854 0.349389
C24   C     C_R   0.684229 0.543533 0.872095 0.351167
C25   C     C_R   0.164674 0.004303 0.458307 -0.149046
C26   C     C_R   0.835942 0.022179 0.542413 -0.149286
C27   C     C_R   0.335332 0.505201 0.041667 -0.149018
C28   C     C_R   0.664087 0.521249 0.957599 -0.149271
C29   C     C_R   0.082407 0.002549 0.479230 -0.062757
C30   C     C_R   0.917975 0.013028 0.521111 -0.063824
C31   C     C_R   0.417599 0.502978 0.020754 -0.062768
C32   C     C_R   0.582043 0.512583 0.978891 -0.063812
C33   C     C_R   0.018912 0.021298 0.410434 -0.011373
C34   C     C_R   0.981744 0.008803 0.590182 -0.008763
C35   C     C_R   0.481102 0.521635 0.089548 -0.011446
C36   C     C_R   0.518279 0.508452 0.909814 -0.008705
C37   C     C_R   0.064251 0.990692 0.568275 -0.113228
C38   C     C_R   0.935922 0.015638 0.431822 -0.113739
C39   C     C_R   0.435756 0.490728 0.931720 -0.113170
C40   C     C_R   0.564088 0.515597 0.068172 -0.113786
C41   C     C_1   0.415838 0.985017 0.581342 -0.168026
C42   C     C_1   0.584323 0.012918 0.418780 -0.165611
C43   C     C_1   0.084158 0.485034 0.918652 -0.167986
C44   C     C_1   0.915673 0.512902 0.081216 -0.165642
O21   O     O_3   0.734787 0.063153 0.643371 -0.646503
H9    H     H_    0.730454 0.078294 0.707209 0.289150
O22   O     O_3   0.267312 0.049155 0.359391 -0.645678
H10   H     H_    0.272348 0.074855 0.296433 0.289329
O23   O     O_3   0.765297 0.561394 0.856640 -0.646494
H11   H     H_    0.769656 0.576261 0.792792 0.289148
O24   O     O_3   0.232725 0.550825 0.140552 -0.645668
H12   H     H_    0.227706 0.576767 0.203492 0.289352
O25   O     O_3   0.984052 0.081321 0.253710 -0.559063
C45   C     C_3   0.989125 0.943488 0.188969 0.086408
H13   H     H_    0.962981 0.813644 0.212286 0.131157
H14   H     H_    0.052355 0.913647 0.172480 0.115520
C46   C     C_3   0.942395 0.005725 0.104492 -0.636100
H15   H     H_    0.971928 0.129335 0.078853 0.208389
H16   H     H_    0.942478 0.895649 0.054437 0.168026
H17   H     H_    0.878557 0.038725 0.116068 0.246038
O26   O     O_3   0.018888 0.048015 0.747789 -0.557409
C47   C     C_3   0.010597 0.910434 0.811962 0.082331
H18   H     H_    0.035158 0.778671 0.788889 0.131456
H19   H     H_    0.946731 0.885361 0.827453 0.118570
C48   C     C_3   0.057423 0.969104 0.897031 -0.638308
H20   H     H_    0.033675 0.102704 0.918972 0.212168
H21   H     H_    0.049931 0.866067 0.949003 0.168295
H22   H     H_    0.123099 0.982763 0.887769 0.243389
O27   O     O_3   0.515996 0.581631 0.246272 -0.559039
C49   C     C_3   0.510850 0.443691 0.310943 0.086359
H23   H     H_    0.537006 0.313871 0.287600 0.131166
H24   H     H_    0.447593 0.413863 0.327352 0.115481
C50   C     C_3   0.557527 0.505760 0.395482 -0.636128
H25   H     H_    0.527994 0.629358 0.421140 0.208409
H26   H     H_    0.557382 0.395611 0.445489 0.168055
H27   H     H_    0.621385 0.538721 0.383977 0.245997
O28   O     O_3   0.481176 0.547710 0.752208 -0.557434
C51   C     C_3   0.489377 0.410205 0.687971 0.082357
H28   H     H_    0.464813 0.278440 0.711025 0.131460
H29   H     H_    0.553215 0.385076 0.672402 0.118646
C52   C     C_3   0.442503 0.469043 0.602959 -0.638278
H30   H     H_    0.466260 0.602652 0.581047 0.212176
H31   H     H_    0.449933 0.366071 0.550939 0.168258
H32   H     H_    0.376842 0.482754 0.612282 0.243421

loop_
_geom_bond_atom_site_label_1
_geom_bond_atom_site_label_2
_ccdc_geom_bond_type
C26   C30   A    
O26   C47   S    
C15   O27   S    
C23   C27   A    
C9    C10   S    
C8    C37   S    
O10   C6    A    
O23   H11   S    
C24   O23   S    
H5    C17   S    
O21   H9    S    
C50   H26   S    
C30   C38   A    
O27   C49   S    
O18   V4    S    
C32   C36   A    
O19   V1    S    
C14   C34   A    
C16   C20   A    
O5    V1    S    
O12   V4    S    
C45   H14   S    
C34   C37   A    
C33   C38   A    
O14   V2    S    
C1    O15   A    
C49   C50   S    
C35   C40   A    
C2    O16   A    
C12   C44   T    
C51   H28   S    
H8    C20   S    
O4    C8    A    
O17   V3    S    
O6    V2    S    
C46   H16   S    
O11   C7    A    
O5    C1    A    
C52   H32   S    
O7    C3    A    
C16   O28   S    
H6    C18   S    
O8    C4    A    
O1    C5    A    
C6    C39   S    
C47   H18   S    
H3    C27   S    
C15   C35   A    
C48   H21   S    
C48   H20   S    
C11   C43   T    
C50   H27   S    
C31   C35   A    
C10   C42   T    
C30   C34   A    
C4    C41   S    
H7    C19   S    
C21   C25   A    
C45   H13   S    
C15   C19   A    
O12   C8    A    
C47   C48   S    
O25   C45   S    
C24   C28   A    
C13   O25   S    
C11   C12   S    
O2    V4    S    
O6    C2    A    
O24   H12   S    
C1    C44   S    
C13   C17   A    
O2    C6    A    
C5    C40   S    
O9    V1    S    
C16   C36   A    
C46   H17   S    
C47   H19   S    
C51   C52   S    
C7    C38   S    
O11   V3    S    
C31   C39   A    
C13   C33   A    
C23   O24   S    
C48   H22   S    
C52   H30   S    
C22   C26   A    
C29   C37   A    
C4    O14   A    
H2    C26   S    
O4    V2    S    
C45   C46   S    
C25   C29   A    
C50   H25   S    
C14   C18   A    
C27   C31   A    
C49   H24   S    
C28   C32   A    
C21   O22   S    
C2    C43   S    
C22   O21   S    
O3    C7    A    
O10   V2    S    
O9    C5    A    
C18   C22   A    
O28   C51   S    
C14   O26   S    
C36   C39   A    
C17   C21   A    
O20   V2    S    
O16   V4    S    
H1    C25   S    
C32   C40   A    
C49   H23   S    
C51   H29   S    
O1    V3    S    
C9    C41   T    
O22   H10   S    
H4    C28   S    
C29   C33   A    
C3    O13   A    
C3    C42   S    
O13   V1    S    
O3    V1    S    
C19   C23   A    
O7    V3    S    
O8    V4    S    
C46   H15   S    
O15   V3    S    
C20   C24   A    
C52   H31   S    
