data_mof_unit_17976.cif
_audit_creation_date              2012-12-10T18:59:13-0500
_audit_creation_method            fapswitch 2.2
_symmetry_space_group_name_H-M    P1
_symmetry_Int_Tables_number       1
_space_group_crystal_system       triclinic
_cell_length_a                    9.892645
_cell_length_b                    10.65882
_cell_length_c                    16.759553
_cell_angle_alpha                 89.022547
_cell_angle_beta                  96.910186
_cell_angle_gamma                 89.785651
_cell_volume                      1754.07089647

loop_
_atom_site_label
_atom_site_type_symbol
_atom_type_description
_atom_site_fract_x
_atom_site_fract_y
_atom_site_fract_z
_atom_type_partial_charge
C1    C     C_R   0.499551 0.260481 0.497253 0.951978
C2    C     C_R   0.500449 0.739519 0.502746 0.951976
C3    C     C_R   0.421764 0.938159 0.554396 -0.009329
C4    C     C_R   0.578237 0.061841 0.445603 -0.009339
C5    C     C_R   0.501415 0.872048 0.504783 -0.080487
C6    C     C_R   0.498585 0.127952 0.495215 -0.080519
C7    C     C_R   0.057084 0.551548 0.436635 0.034709
C8    C     C_R   0.942917 0.448452 0.563365 0.034723
C9    C     C_R   0.913908 0.550568 0.437026 -0.096533
C10   C     C_R   0.086092 0.449432 0.562974 -0.096544
C11   C     C_R   0.520722 0.500999 0.653422 0.954765
C12   C     C_R   0.479277 0.499013 0.346578 0.954886
C13   C     C_R   0.539480 0.500764 0.740567 -0.023978
C14   C     C_R   0.460504 0.499355 0.259435 -0.023997
C15   C     C_R   0.454804 0.422202 0.779274 -0.255029
C16   C     C_R   0.545111 0.578035 0.220760 -0.255123
C17   C     C_R   0.466825 0.416297 0.861799 -0.144881
C18   C     C_R   0.533012 0.584108 0.138236 -0.144789
C19   C     C_R   0.562763 0.490622 0.907496 0.314367
C20   C     C_R   0.437063 0.509834 0.092508 0.314323
C21   C     C_R   0.656406 0.564031 0.870107 -0.108863
C22   C     C_R   0.343488 0.436311 0.129872 -0.108792
C23   C     C_R   0.642518 0.572080 0.785224 -0.096638
C24   C     C_R   0.357456 0.428086 0.214749 -0.096653
C25   C     C_R   0.420389 0.067145 0.547953 -0.227505
C26   C     C_R   0.579611 0.932855 0.452045 -0.227492
H1    H     H_    0.621418 0.635136 0.254710 0.168215
H2    H     H_    0.378497 0.365069 0.745350 0.168217
H3    H     H_    0.601730 0.644146 0.109570 0.193971
H4    H     H_    0.398066 0.356332 0.890486 0.193901
H5    H     H_    0.362704 0.121258 0.586671 0.179148
H6    H     H_    0.637297 0.878741 0.413328 0.179140
H7    H     H_    0.848130 0.592144 0.387192 0.157166
H8    H     H_    0.151871 0.407856 0.612808 0.157161
N1    N     N_2   0.559100 0.499702 0.990854 -0.137330
N2    N     N_2   0.440719 0.500829 0.009146 -0.137420
N3    N     N_R   0.857210 0.499970 0.500020 -0.122183
N4    N     N_R   0.142790 0.500030 0.499980 -0.122187
O1    O     O_R   0.614620 0.316750 0.500010 -0.568484
O2    O     O_R   0.385380 0.683250 0.499990 -0.568501
O3    O     O_R   0.385290 0.316780 0.500000 -0.610788
O4    O     O_R   0.614710 0.683220 0.500000 -0.610762
O5    O     O_R   0.627460 0.498830 0.616130 -0.603280
O6    O     O_R   0.372540 0.501170 0.383870 -0.603280
O7    O     O_R   0.398130 0.498850 0.616130 -0.617207
O8    O     O_R   0.601870 0.501150 0.383870 -0.617214
Zn1   Zn    Zn3+2 0.653130 0.499980 0.500000 1.032273
Zn2   Zn    Zn3+2 0.346870 0.500020 0.500000 1.032263
C27   C     C_2   0.761013 0.639641 0.919494 0.432941
H9    H     H_    0.803262 0.723196 0.894535 0.053679
O9    O     O_2   0.802865 0.608673 0.988568 -0.521396
C28   C     C_2   0.238880 0.360761 0.080448 0.432734
H10   H     H_    0.196830 0.277031 0.105315 0.053671
O10   O     O_2   0.196800 0.391983 0.011453 -0.521332
C29   C     C_2   0.732981 0.657053 0.744626 0.441879
H11   H     H_    0.840247 0.663353 0.766994 0.085119
O11   O     O_2   0.687821 0.723706 0.687580 -0.540114
C30   C     C_2   0.267056 0.342993 0.255309 0.441961
H12   H     H_    0.159807 0.336608 0.232919 0.085080
O12   O     O_2   0.312252 0.276340 0.312346 -0.540133
C31   C     C_2   0.344293 0.877891 0.615423 0.943000
O13   O     O_2   0.385404 0.780668 0.649958 -0.601799
O14   O     O_R   0.225936 0.935432 0.635487 -0.789668
H13   H     H_    0.182739 0.886508 0.678145 0.355387
C32   C     C_2   0.655716 0.122109 0.384579 0.943012
O15   O     O_2   0.614612 0.219335 0.350046 -0.601766
O16   O     O_R   0.774073 0.064565 0.364517 -0.789665
H14   H     H_    0.817280 0.113491 0.321865 0.355392
C33   C     C_2   0.109577 0.610178 0.366510 0.937099
O17   O     O_2   0.069156 0.573944 0.299037 -0.651015
O18   O     O_R   0.197896 0.711954 0.376382 -0.765433
H15   H     H_    0.225367 0.744663 0.323530 0.336377
C34   C     C_2   0.890424 0.389818 0.633489 0.937068
O19   O     O_2   0.930852 0.426044 0.700963 -0.651070
O20   O     O_R   0.802100 0.288046 0.623616 -0.765425
H16   H     H_    0.774631 0.255333 0.676467 0.336367

loop_
_geom_bond_atom_site_label_1
_geom_bond_atom_site_label_2
_ccdc_geom_bond_type
C25   H5    S    
C4    C26   A    
C29   H11   S    
C7    C33   S    
C17   C19   A    
C14   C16   A    
C23   C29   S    
C2    O4    A    
N3    Zn1   S    
C29   O11   D    
C34   O20   S    
C34   O19   D    
N4    Zn2   S    
N1    N2    D    
C10   N4    A    
O20   H16   S    
C3    C5    A    
C16   H1    S    
C21   C27   S    
C20   C22   A    
O18   H15   S    
C10   H8    S    
C18   H3    S    
C19   N1    S    
C26   H6    S    
C17   H4    S    
C11   C13   S    
C15   H2    S    
C33   O17   D    
C9    H7    S    
C4    C6    A    
C4    C32   S    
C1    O3    A    
C8    C34   S    
C19   C21   A    
O3    Zn2   S    
C28   O10   D    
C32   O15   D    
C22   C28   S    
C18   C20   A    
O4    Zn1   S    
C13   C15   A    
C21   C23   A    
C31   O13   D    
C22   C24   A    
C11   O5    A    
C11   O7    A    
C6    C25   A    
C33   O18   S    
C8    N3    A    
C1    O1    A    
C3    C31   S    
C30   O12   D    
O16   H14   S    
C2    C5    S    
C24   C30   S    
C2    O2    A    
C3    C25   A    
C28   H10   S    
C13   C23   A    
C16   C18   A    
C27   H9    S    
O7    Zn2   S    
C14   C24   A    
C1    C6    S    
C7    C9    A    
O2    Zn2   S    
O8    Zn1   S    
C12   O6    A    
C5    C26   A    
C27   O9    D    
C30   H12   S    
C15   C17   A    
O1    Zn1   S    
O5    Zn1   S    
C7    N4    A    
C8    C10   A    
C9    N3    A    
O6    Zn2   S    
C31   O14   S    
C12   C14   S    
O14   H13   S    
C32   O16   S    
C12   O8    A    
C20   N2    S    
