data_mof_unit_29328.cif
_audit_creation_date              2012-12-10T20:27:14-0500
_audit_creation_method            fapswitch 2.2
_symmetry_space_group_name_H-M    P1
_symmetry_Int_Tables_number       1
_space_group_crystal_system       triclinic
_cell_length_a                    10.59657
_cell_length_b                    10.686622
_cell_length_c                    9.885256
_cell_angle_alpha                 90.019728
_cell_angle_beta                  102.852258
_cell_angle_gamma                 90.290086
_cell_volume                      1091.36136106

loop_
_atom_site_label
_atom_site_type_symbol
_atom_type_description
_atom_site_fract_x
_atom_site_fract_y
_atom_site_fract_z
_atom_type_partial_charge
Br1   Br    Br    0.195732 0.581826 0.053338 -0.471035
Br2   Br    Br    0.199777 0.278865 0.090457 -0.397970
Br3   Br    Br    0.230378 0.121626 0.589454 -0.472319
C1    C     C_R   0.502097 0.260055 0.500486 0.934995
C2    C     C_R   0.586963 0.569656 0.092685 -0.050539
C3    C     C_R   0.586415 0.570313 0.948698 -0.085404
C4    C     C_R   0.257977 0.495014 0.442874 0.965745
C5    C     C_R   0.421591 0.419469 0.910005 0.133113
C6    C     C_3   0.278189 0.412193 0.865970 -0.559331
C7    C     C_3   0.273575 0.423742 0.017536 0.431541
C8    C     C_R   0.504152 0.739844 0.501105 0.879996
C9    C     C_R   0.741469 0.492098 0.556382 0.960059
C10   C     C_2   0.119937 0.471346 0.411866 -0.270659
C11   C     C_2   0.069290 0.415440 0.508193 -0.162224
C12   C     C_R   0.517279 0.128385 0.504999 -0.062028
C13   C     C_2   0.879197 0.469567 0.584321 -0.448453
C14   C     C_2   0.931515 0.407739 0.491976 0.443322
C15   C     C_R   0.501832 0.063333 0.622196 0.057371
C16   C     C_R   0.555471 0.065034 0.396506 -0.135450
C17   C     C_R   0.557427 0.935529 0.397245 -0.183882
C18   C     C_R   0.522471 0.871344 0.507220 -0.068722
C19   C     C_R   0.507612 0.936027 0.624849 0.059625
C20   C     C_3   0.405078 0.924340 0.706422 -0.445853
C21   C     C_3   0.395894 0.066054 0.700591 0.094586
C22   C     C_R   0.418510 0.422804 0.051530 0.151966
Cl1   Cl    Cl    0.842741 0.323127 0.347086 -0.544280
H1    H     H_    0.426327 0.111851 0.803795 0.147927
H2    H     H_    0.578674 0.886449 0.309058 0.171758
H3    H     H_    0.317272 0.874287 0.648525 0.236324
H4    H     H_    0.444607 0.888211 0.812792 0.191149
H5    H     H_    0.655490 0.627869 0.163226 0.147269
H6    H     H_    0.654192 0.629381 0.910756 0.153243
H7    H     H_    0.236702 0.493902 0.802208 0.226123
H8    H     H_    0.245957 0.319283 0.820485 0.232308
H9    H     H_    0.128508 0.387556 0.606858 0.178671
H10   H     H_    0.940110 0.511094 0.676807 0.156176
H11   H     H_    0.060240 0.498493 0.312101 0.212384
H12   H     H_    0.576559 0.114483 0.308376 0.196690
N1    N     N_R   0.499160 0.499140 0.142600 -0.101904
N2    N     N_R   0.499160 0.499180 0.856960 -0.096214
O1    O     O_R   0.500020 0.316790 0.614700 -0.614669
O2    O     O_R   0.500000 0.316760 0.385350 -0.595562
O3    O     O_R   0.317820 0.500020 0.571850 -0.625768
O4    O     O_R   0.317800 0.499980 0.342510 -0.554504
O5    O     O_R   0.500000 0.683240 0.614650 -0.621773
O6    O     O_R   0.499980 0.683210 0.385300 -0.615693
O7    O     O_R   0.682200 0.500020 0.657490 -0.610261
O8    O     O_R   0.682180 0.499980 0.428150 -0.576736
Zn1   Zn    Zn3+2 0.500010 0.500020 0.653140 0.975021
Zn2   Zn    Zn3+2 0.499990 0.499980 0.346860 1.033871

loop_
_geom_bond_atom_site_label_1
_geom_bond_atom_site_label_2
_ccdc_geom_bond_type
C5    C6    S    
C12   C15   A    
C3    H6    S    
C20   C21   S    
C16   H12   S    
C4    O3    A    
C17   H2    S    
C6    C7    S    
O6    Zn2   S    
C10   H11   S    
C16   C17   A    
C21   H1    S    
O5    Zn1   S    
C9    O8    A    
C18   C19   A    
C1    C12   S    
O8    Zn2   S    
O7    Zn1   S    
C10   C11   D    
C13   H10   S    
C6    H7    S    
C5    C22   A    
C11   C14   S    
Br3   C21   S    
C2    C3    A    
C1    O2    A    
O2    Zn2   S    
C9    O7    A    
C15   C21   S    
C14   Cl1   S    
C20   H3    S    
C7    C22   S    
O1    Zn1   S    
C12   C16   A    
C2    N1    A    
C6    H8    S    
C3    N2    A    
C8    O5    A    
C1    O1    A    
N2    Zn1   S    
Br2   C7    S    
C20   H4    S    
C4    C10   S    
N1    Zn2   S    
C17   C18   A    
O4    Zn2   S    
C11   H9    S    
C19   C20   S    
O3    Zn1   S    
C8    O6    A    
C5    N2    A    
C4    O4    A    
C15   C19   A    
C8    C18   S    
C22   N1    A    
Br1   C7    S    
C9    C13   S    
C13   C14   D    
C2    H5    S    
