data_mof_unit_18263.cif
_audit_creation_date              2012-12-11T14:21:14-0500
_audit_creation_method            fapswitch 2.2
_symmetry_space_group_name_H-M    P1
_symmetry_Int_Tables_number       1
_space_group_crystal_system       triclinic
_cell_length_a                    11.61715
_cell_length_b                    11.604638
_cell_length_c                    19.547375
_cell_angle_alpha                 90.799207
_cell_angle_beta                  90.626053
_cell_angle_gamma                 59.857461
_cell_volume                      2278.65183718

loop_
_atom_site_label
_atom_site_type_symbol
_atom_type_description
_atom_site_fract_x
_atom_site_fract_y
_atom_site_fract_z
_atom_type_partial_charge
C1    C     C_R   0.640621 0.117092 0.599177 0.549032
C2    C     C_1   0.641937 0.704325 0.668003 0.006763
C3    C     C_1   0.125744 0.198715 0.859225 0.003841
C4    C     C_1   0.171874 0.170589 0.727650 -0.029809
C5    C     C_1   0.149676 0.182360 0.798893 -0.029931
C6    C     C_1   0.196182 0.161211 0.667387 0.005820
C7    C     C_1   0.678172 0.191440 0.860804 0.004045
C8    C     C_1   0.658924 0.166950 0.728990 -0.030292
C9    C     C_1   0.665504 0.180918 0.800304 -0.030654
C10   C     C_1   0.653593 0.149223 0.668569 0.005010
C11   C     C_R   0.665105 0.663192 0.195233 0.013234
C12   C     C_R   0.612551 0.746479 0.598611 0.548602
C13   C     C_R   0.541782 0.705771 0.226901 0.042042
C14   C     C_R   0.541830 0.678717 0.296223 0.031606
C15   C     C_R   0.769259 0.631479 0.306540 -0.166316
C16   C     C_R   0.779585 0.620508 0.235794 -0.160249
C17   C     C_R   0.421632 0.759287 0.189724 -0.108686
C18   C     C_R   0.311080 0.762477 0.217649 -0.068383
C19   C     C_R   0.313072 0.724174 0.284868 0.202958
C20   C     C_R   0.431073 0.674627 0.322624 -0.071255
C21   C     C_R   0.648987 0.666235 0.337366 0.005137
C22   C     C_R   0.149864 0.200030 0.192983 -0.008627
C23   C     C_R   0.242042 0.145090 0.598267 0.554292
C24   C     C_R   0.158617 0.296646 0.233765 -0.009529
C25   C     C_R   0.139105 0.297465 0.304693 0.082850
C26   C     C_R   0.177989 0.072254 0.295305 -0.162610
C27   C     C_R   0.164309 0.086719 0.224590 -0.161994
C28   C     C_R   0.188525 0.390586 0.206786 -0.116207
C29   C     C_R   0.182198 0.491934 0.248226 -0.172694
C30   C     C_R   0.135817 0.507236 0.315058 -0.136181
C31   C     C_R   0.106275 0.414595 0.342562 0.257975
C32   C     C_R   0.168708 0.176053 0.336226 0.021134
C33   C     C_R   0.726588 0.213041 0.207480 0.035883
C34   C     C_R   0.641588 0.108932 0.400619 0.545164
C35   C     C_R   0.809340 0.083913 0.236289 -0.009644
C36   C     C_R   0.758355 0.046022 0.290045 0.015699
C37   C     C_R   0.592333 0.277119 0.310416 -0.148527
C38   C     C_R   0.616446 0.309131 0.245071 0.206973
C39   C     C_R   0.931547 0.984196 0.207872 -0.061076
C40   C     C_R   0.972298 0.850614 0.215134 -0.055727
C41   C     C_R   0.905098 0.814112 0.259044 -0.092761
C42   C     C_R   0.799593 0.909713 0.296843 -0.078482
C43   C     C_R   0.663973 0.145385 0.333128 -0.028074
C44   C     C_R   0.080782 0.231421 0.928507 0.547616
C45   C     C_R   0.617920 0.733227 0.404171 0.538713
C46   C     C_R   0.683722 0.603658 0.929464 0.541990
C47   C     C_R   0.708224 0.206740 0.930207 0.553266
C48   C     C_R   0.086367 0.235302 0.124777 0.533120
C49   C     C_R   0.682908 0.612400 0.125493 0.539008
C50   C     C_R   0.742777 0.235629 0.134680 0.583142
C51   C     C_R   0.238247 0.143638 0.402893 0.580897
C52   C     C_1   0.669367 0.645990 0.860142 0.005725
C53   C     C_1   0.655009 0.683881 0.728468 -0.030224
C54   C     C_1   0.662775 0.666498 0.799741 -0.030526
Cr1   Cr    Cr6+3 0.404720 0.198220 0.499960 1.045560
Cr2   Cr    Cr6+3 0.698290 0.897110 0.500380 1.027768
Cr3   Cr    Cr6+3 0.396970 0.904720 0.499610 1.026412
Cr4   Cr    Cr6+3 0.926180 0.151990 0.028120 1.007301
Cr5   Cr    Cr6+3 0.921330 0.451820 0.027470 1.021775
Cr6   Cr    Cr6+3 0.626260 0.446870 0.028710 1.057183
H1    H     H_    0.852759 0.617326 0.337254 0.149463
H2    H     H_    0.207100 0.562119 0.227226 0.159376
H3    H     H_    0.119541 0.592225 0.345400 0.142770
H4    H     H_    0.514096 0.353300 0.341823 0.123407
H5    H     H_    0.989387 0.006997 0.174289 0.140442
H6    H     H_    0.052003 0.775185 0.184711 0.104047
H7    H     H_    0.936695 0.711512 0.264210 0.111521
H8    H     H_    0.746736 0.876566 0.328374 0.153405
H9    H     H_    0.414024 0.794682 0.137959 0.122228
H10   H     H_    0.877045 0.577793 0.212774 0.151036
H11   H     H_    0.223578 0.797655 0.186451 0.098411
H12   H     H_    0.434997 0.633850 0.372629 0.122855
H13   H     H_    0.199494 0.979398 0.318048 0.179422
H14   H     H_    0.222156 0.383171 0.154668 0.156045
H15   H     H_    0.167633 0.009238 0.193267 0.118002
O1    O     O_R   0.267740 0.231960 0.575440 -0.497351
O2    O     O_R   0.685970 0.784660 0.430010 -0.514060
O3    O     O_R   0.502530 0.767000 0.423990 -0.531965
O4    O     O_R   0.288330 0.026350 0.429250 -0.510243
O5    O     O_3   0.499990 0.000020 0.499980 -0.265043
O6    O     O_R   0.821500 0.119340 0.952830 -0.500937
O7    O     O_R   0.037130 0.162530 0.957360 -0.494761
O8    O     O_R   0.056440 0.344740 0.951340 -0.503346
O9    O     O_R   0.797900 0.560360 0.957470 -0.492751
O10   O     O_R   0.596130 0.579390 0.952730 -0.511480
O11   O     O_R   0.639060 0.321160 0.958670 -0.493903
O12   O     O_R   0.527280 0.186640 0.570530 -0.496686
O13   O     O_R   0.821240 0.124200 0.104370 -0.547204
O14   O     O_R   0.036890 0.167040 0.097840 -0.531895
O15   O     O_R   0.056180 0.349610 0.102880 -0.521818
O16   O     O_R   0.797660 0.564870 0.097950 -0.510239
O17   O     O_R   0.595880 0.584250 0.104270 -0.492096
O18   O     O_R   0.638830 0.325670 0.099150 -0.432095
O19   O     O_3   0.824590 0.350230 0.028100 -0.278937
O20   O     O_R   0.728090 0.003450 0.576380 -0.501633
O21   O     O_R   0.682970 0.789190 0.570490 -0.491912
O22   O     O_R   0.499290 0.771880 0.575530 -0.506825
O23   O     O_R   0.285330 0.030870 0.569730 -0.494797
O24   O     O_R   0.270980 0.227080 0.423890 -0.467914
O25   O     O_R   0.530280 0.182120 0.430050 -0.507532
O26   O     O_R   0.731330 0.998570 0.424830 -0.517189
O27   O     O_3   0.047069 0.435096 0.406055 -0.691699
H16   H     H_    0.033171 0.520319 0.425828 0.312170
O28   O     O_3   0.532715 0.431750 0.216934 -0.676167
H17   H     H_    0.447929 0.472706 0.242373 0.320644
O29   O     O_3   0.197068 0.743997 0.313735 -0.746201
H18   H     H_    0.211731 0.727191 0.363560 0.314357

loop_
_geom_bond_atom_site_label_1
_geom_bond_atom_site_label_2
_ccdc_geom_bond_type
C25   C31   A    
Cr2   O20   S    
C22   C48   S    
C26   C32   A    
C41   C42   A    
Cr3   O4    S    
C36   C42   A    
C35   C36   A    
C23   O1    A    
C44   O8    A    
C2    C12   S    
C41   H7    S    
C53   C54   S    
C17   H9    S    
C26   C27   A    
C29   C30   A    
C14   C21   A    
C28   C29   A    
Cr5   O8    S    
Cr2   O26   S    
C44   O7    A    
Cr4   O7    S    
C30   C31   A    
O29   H18   S    
Cr3   O23   S    
C15   C16   A    
C46   C52   S    
C26   H13   S    
Cr2   O21   S    
C18   C19   A    
C1    O12   A    
C38   O28   S    
C19   C20   A    
C8    C9    S    
Cr1   O25   S    
C34   O25   A    
C45   O3    A    
Cr5   O19   S    
C50   O13   A    
C46   O10   A    
Cr6   O18   S    
C25   C32   A    
C28   H14   S    
C40   H6    S    
C30   H3    S    
C42   H8    S    
C39   H5    S    
Cr3   O5    S    
C49   O16   A    
C27   H15   S    
O28   H17   S    
C52   C54   T    
C21   C45   S    
Cr6   O17   S    
C51   O24   A    
C3    C44   S    
C34   O26   A    
C34   C43   S    
C47   O11   A    
C14   C20   A    
C16   H10   S    
C24   C25   A    
C4    C6    T    
Cr4   O6    S    
C39   C40   A    
Cr6   O11   S    
C33   C50   S    
Cr2   O2    S    
Cr5   O15   S    
C7    C47   S    
C37   C43   A    
C35   C39   A    
C31   O27   S    
C32   C51   S    
C37   C38   A    
C11   C49   S    
C11   C16   A    
C1    O20   A    
Cr3   O22   S    
C17   C18   A    
C15   H1    S    
Cr5   O16   S    
Cr5   O9    S    
C12   O22   A    
C46   O9    A    
Cr1   O1    S    
C40   C41   A    
C22   C27   A    
C22   C24   A    
C49   O17   A    
C37   H4    S    
C18   H11   S    
C7    C9    T    
C29   H2    S    
C48   O15   A    
Cr3   O3    S    
C12   O21   A    
C1    C10   S    
C24   C28   A    
C4    C5    S    
C3    C5    T    
C2    C53   T    
Cr4   O13   S    
Cr6   O10   S    
C50   O18   A    
C33   C38   A    
Cr2   O5    S    
C13   C17   A    
C48   O14   A    
Cr4   O19   S    
Cr1   O5    S    
C11   C13   A    
C6    C23   S    
C33   C35   A    
C47   O6    A    
Cr1   O12   S    
O27   H16   S    
Cr4   O14   S    
C51   O4    A    
C19   O29   S    
C15   C21   A    
C23   O23   A    
C8    C10   T    
Cr1   O24   S    
C20   H12   S    
C36   C43   A    
C45   O2    A    
C13   C14   A    
Cr6   O19   S    
