data_mof_unit_28265.cif
_audit_creation_date              2012-12-10T17:36:47-0500
_audit_creation_method            fapswitch 2.2
_symmetry_space_group_name_H-M    P1
_symmetry_Int_Tables_number       1
_space_group_crystal_system       triclinic
_cell_length_a                    10.605894
_cell_length_b                    12.327535
_cell_length_c                    13.182333
_cell_angle_alpha                 116.653694
_cell_angle_beta                  77.713837
_cell_angle_gamma                 101.046332
_cell_volume                      1495.93828401

loop_
_atom_site_label
_atom_site_type_symbol
_atom_type_description
_atom_site_fract_x
_atom_site_fract_y
_atom_site_fract_z
_atom_type_partial_charge
C1    C     C_R   0.511924 0.854883 0.286554 0.766587
C2    C     C_3   0.018136 0.013092 0.603339 -0.190522
C3    C     C_3   0.933495 0.906039 0.521228 -0.177131
C4    C     C_3   0.876932 0.998667 0.500286 -0.032875
C5    C     C_R   0.322204 0.277714 0.019917 -0.181402
C6    C     C_R   0.453685 0.228102 0.834473 -0.043580
C7    C     C_R   0.602217 0.814217 0.085881 -0.189983
C8    C     C_R   0.629983 0.734757 0.971307 -0.128701
C9    C     C_R   0.582875 0.611870 0.933314 -0.158614
C10   C     C_R   0.501897 0.566326 0.009346 0.078659
C11   C     C_R   0.461684 0.650621 0.123165 0.084017
C12   C     C_R   0.740262 0.999292 0.499825 0.824863
C13   C     C_R   0.458307 0.440163 0.975884 0.069168
C14   C     C_R   0.366267 0.401920 0.052161 0.167981
C15   C     C_R   0.316713 0.488175 0.158567 -0.232665
C16   C     C_R   0.362164 0.610789 0.192989 -0.196176
C17   C     C_R   0.504002 0.350422 0.868908 -0.217421
C18   C     C_R   0.365003 0.191121 0.911071 -0.194694
C19   C     C_R   0.521155 0.772954 0.163432 -0.099646
C20   C     C_R   0.707769 0.346743 0.329414 -0.293106
C21   C     C_R   0.323823 0.759792 0.644898 0.024542
C22   C     C_R   0.285055 0.663168 0.676469 -0.064378
C23   C     C_R   0.480910 0.145086 0.713369 0.824436
C24   C     C_R   0.351563 0.559530 0.621694 -0.229636
C25   C     C_R   0.457885 0.551516 0.534573 -0.026153
C26   C     C_R   0.493837 0.653045 0.505511 0.284762
C27   C     C_R   0.529870 0.447104 0.475355 -0.025713
C28   C     C_R   0.635556 0.446877 0.388878 0.174540
C29   C     C_R   0.668993 0.546588 0.362164 -0.279385
C30   C     C_R   0.599982 0.647246 0.419227 -0.178768
C31   C     C_R   0.502305 0.342064 0.497696 0.024658
C32   C     C_R   0.675663 0.246728 0.355567 0.088524
C33   C     C_R   0.259710 0.000702 0.500201 0.792318
C34   C     C_3   0.982109 0.987085 0.397246 -0.215329
C35   C     C_3   0.040811 0.894436 0.418103 -0.153908
C36   C     C_3   0.123004 0.001498 0.500109 -0.024059
C37   C     C_3   0.066798 0.094283 0.479150 -0.156756
C38   C     C_3   0.959875 0.104634 0.581468 0.295231
Cu1   Cu    Cu3+1 0.529830 0.098270 0.475420 0.953977
Cu2   Cu    Cu3+1 0.470170 0.901730 0.524580 0.926640
H1    H     H_    0.077540 0.808212 0.350944 0.135374
H2    H     H_    0.577831 0.373015 0.809287 0.170745
H3    H     H_    0.647191 0.907688 0.114364 0.152231
H4    H     H_    0.609398 0.555826 0.843368 0.139252
H5    H     H_    0.691898 0.767853 0.912059 0.149875
H6    H     H_    0.315476 0.673867 0.273943 0.170629
H7    H     H_    0.730970 0.169077 0.310037 0.118562
H8    H     H_    0.749903 0.547076 0.296266 0.157306
H9    H     H_    0.788637 0.345929 0.263171 0.140352
H10   H     H_    0.423906 0.334076 0.561779 0.126059
H11   H     H_    0.272504 0.840246 0.687281 0.128331
H12   H     H_    0.964158 0.976081 0.313010 0.143313
H13   H     H_    0.318346 0.486955 0.648750 0.149463
H14   H     H_    0.633891 0.718716 0.392557 0.206305
H15   H     H_    0.123581 0.171749 0.462601 0.156453
H16   H     H_    0.036008 0.024498 0.687740 0.146910
H17   H     H_    0.876422 0.828839 0.538065 0.158754
H18   H     H_    0.324686 0.096513 0.885205 0.148439
H19   H     H_    0.242314 0.460794 0.215620 0.144825
H20   H     H_    0.251687 0.248084 0.077665 0.134074
N1    N     N_R   0.575030 0.246270 0.438190 -0.180437
N2    N     N_R   0.425760 0.754330 0.561190 -0.211591
O1    O     O_R   0.537510 0.972500 0.318130 -0.584292
O2    O     O_R   0.487140 0.806530 0.359650 -0.604084
O3    O     O_R   0.708330 0.082950 0.479220 -0.561474
O4    O     O_R   0.657960 0.916980 0.520740 -0.604918
O5    O     O_R   0.512860 0.193470 0.640350 -0.576920
O6    O     O_R   0.462490 0.027500 0.681870 -0.587156
O7    O     O_R   0.342040 0.083020 0.479260 -0.588036
O8    O     O_R   0.291670 0.917050 0.520780 -0.593128
C39   C     C_1   0.176564 0.670347 0.765265 0.235825
N3    N     N_1   0.089381 0.676069 0.836584 -0.265199
Br1   Br    Br    0.898794 0.256051 0.699577 -0.546143

loop_
_geom_bond_atom_site_label_1
_geom_bond_atom_site_label_2
_ccdc_geom_bond_type
C34   C37   S    
C31   N1    A    
C35   C36   S    
C7    C8    A    
C30   H14   S    
C11   C19   A    
C29   C30   A    
Cu2   O8    S    
C36   C37   S    
C37   C38   S    
C32   N1    A    
C15   C16   A    
C33   C36   S    
Cu2   N2    S    
C34   C35   S    
C23   O5    A    
C17   H2    S    
C8    H5    S    
C18   H18   S    
C8    C9    A    
C7    H3    S    
C4    C12   S    
C9    C10   A    
C33   O7    A    
Cu2   O4    S    
C21   C22   A    
Cu1   O3    S    
Cu1   O5    S    
Cu1   N1    S    
C1    O1    A    
C25   C26   A    
C6    C18   A    
C4    C34   S    
C1    C19   S    
C29   H8    S    
C27   C31   A    
C24   C25   A    
C16   H6    S    
Cu1   Cu2   S    
C5    C18   A    
C20   C28   A    
C24   H13   S    
C12   O4    A    
C23   O6    A    
C20   H9    S    
C11   C16   A    
C2    C38   S    
C3    C35   S    
Cu1   O7    S    
C5    C14   A    
C33   O8    A    
C3    H17   S    
C4    C38   S    
C26   C30   A    
C7    C19   A    
C32   H7    S    
C22   C24   A    
C31   H10   S    
C3    C4    S    
C1    O2    A    
C22   C39   S    
C21   H11   S    
C20   C32   A    
C2    C36   S    
C6    C17   A    
C28   C29   A    
C9    H4    S    
C5    H20   S    
C15   H19   S    
C10   C13   A    
C25   C27   A    
Cu1   O1    S    
C12   O3    A    
C34   H12   S    
Cu2   O2    S    
C13   C17   A    
C2    C3    S    
C26   N2    A    
C39   N3    T    
C2    H16   S    
C6    C23   S    
C35   H1    S    
C10   C11   A    
C37   H15   S    
Cu2   O6    S    
C27   C28   A    
C14   C15   A    
C21   N2    A    
C13   C14   A    
C38   Br1   S    
