data_mof_unit_7691.cif
_audit_creation_date              2012-12-10T17:41:01-0500
_audit_creation_method            fapswitch 2.2
_symmetry_space_group_name_H-M    P1
_symmetry_Int_Tables_number       1
_space_group_crystal_system       triclinic
_cell_length_a                    15.026653
_cell_length_b                    13.719254
_cell_length_c                    11.723732
_cell_angle_alpha                 90.706604
_cell_angle_beta                  89.701011
_cell_angle_gamma                 89.196246
_cell_volume                      2416.44303569

loop_
_atom_site_label
_atom_site_type_symbol
_atom_type_description
_atom_site_fract_x
_atom_site_fract_y
_atom_site_fract_z
_atom_type_partial_charge
C1    C     C_R   0.328954 0.500730 0.501497 0.849245
C2    C     C_R   0.671034 0.499379 0.492912 0.836819
C3    C     C_R   0.909228 0.495313 0.384848 -0.056314
C4    C     C_R   0.091091 0.525160 0.600967 -0.061126
C5    C     C_R   0.947149 0.540739 0.695258 -0.305969
C6    C     C_R   0.053781 0.489134 0.289295 -0.309083
C7    C     C_R   0.039863 0.547586 0.699672 0.456299
C8    C     C_R   0.960623 0.487849 0.282740 0.461604
C9    C     C_R   0.432914 0.794923 0.554299 0.013350
C10   C     C_R   0.567719 0.204679 0.447823 0.004802
C11   C     C_R   0.567243 0.791942 0.446650 0.020330
C12   C     C_R   0.432882 0.208142 0.554182 0.019453
C13   C     C_R   0.569322 0.894753 0.446942 -0.007055
C14   C     C_R   0.431145 0.105140 0.555587 -0.006035
C15   C     C_R   0.431124 0.897974 0.555588 -0.005791
C16   C     C_R   0.569752 0.101675 0.447956 0.000515
C17   C     C_R   0.500171 0.948116 0.501264 0.088031
C18   C     C_R   0.500240 0.051672 0.501422 0.089013
C19   C     C_R   0.639060 0.945249 0.395094 -0.194700
C20   C     C_R   0.362413 0.054479 0.609904 -0.201238
C21   C     C_R   0.362424 0.951895 0.609916 -0.195347
C22   C     C_R   0.639576 0.047595 0.396517 -0.210009
C23   C     C_R   0.500049 0.499529 0.283812 0.813827
C24   C     C_R   0.500651 0.500446 0.716164 0.834466
C25   C     C_1   0.501155 0.498747 0.162178 -0.182345
C26   C     C_1   0.502075 0.501055 0.837760 -0.186704
C27   C     C_1   0.502086 0.499225 0.059809 0.002730
C28   C     C_1   0.502631 0.500409 0.940133 -0.004797
C29   C     C_R   0.815068 0.488788 0.384510 0.421977
C30   C     C_R   0.185036 0.518221 0.603925 0.370071
C31   C     C_R   0.767618 0.498422 0.488665 -0.169328
C32   C     C_R   0.232719 0.502867 0.501768 -0.160239
C33   C     C_R   0.811974 0.514536 0.590852 -0.277179
C34   C     C_R   0.189171 0.493379 0.397964 -0.283209
C35   C     C_R   0.904128 0.520534 0.592636 0.084324
C36   C     C_R   0.096704 0.496795 0.394024 0.084291
C37   C     C_R   0.953433 0.508431 0.490790 -0.051320
C38   C     C_R   0.047055 0.509944 0.495355 -0.044086
Cu1   Cu    Cu3+1 0.500000 0.597420 0.500000 0.962773
Cu2   Cu    Cu3+1 0.500000 0.402580 0.500000 0.932202
H1    H     H_    0.773970 0.523996 0.669336 0.150622
H2    H     H_    0.227779 0.483405 0.320059 0.145738
H3    H     H_    0.908503 0.552536 0.772571 0.145633
H4    H     H_    0.093144 0.484789 0.211782 0.146711
H5    H     H_    0.380686 0.755466 0.596791 0.138540
H6    H     H_    0.620223 0.243763 0.406022 0.128452
H7    H     H_    0.619547 0.750303 0.403946 0.141385
H8    H     H_    0.380578 0.249929 0.596680 0.119515
H9    H     H_    0.693542 0.905635 0.354082 0.144161
H10   H     H_    0.308623 0.094149 0.652329 0.135469
H11   H     H_    0.308658 0.914742 0.652267 0.137288
H12   H     H_    0.695057 0.084156 0.358207 0.152453
N1    N     N_R   0.500000 0.743810 0.500000 -0.187179
N2    N     N_R   0.500000 0.256190 0.500000 -0.181044
O1    O     O_R   0.370260 0.582280 0.500020 -0.574562
O2    O     O_R   0.629740 0.417720 0.499980 -0.602892
O3    O     O_R   0.629740 0.582280 0.499980 -0.577769
O4    O     O_R   0.370260 0.417720 0.500020 -0.602764
O5    O     O_R   0.500010 0.582270 0.337200 -0.566455
O6    O     O_R   0.499990 0.417730 0.662800 -0.580024
O7    O     O_R   0.499990 0.582270 0.662800 -0.567705
O8    O     O_R   0.500010 0.417730 0.337200 -0.589284
O9    O     O_3   0.770594 0.485585 0.281172 -0.584025
C39   C     C_3   0.732520 0.393461 0.256795 0.077983
H13   H     H_    0.719507 0.392198 0.163581 0.182572
H14   H     H_    0.666331 0.388369 0.297142 0.143565
C40   C     C_3   0.789728 0.302769 0.286956 -0.423115
H15   H     H_    0.861619 0.317235 0.279162 0.223390
H16   H     H_    0.776796 0.282759 0.377022 0.202011
C41   C     C_3   0.768320 0.216385 0.208942 -0.932215
H17   H     H_    0.696039 0.200843 0.212069 0.255580
H18   H     H_    0.806715 0.151063 0.236158 0.256225
H19   H     H_    0.787144 0.232316 0.119469 0.254253
O10   O     O_3   0.230669 0.530094 0.705329 -0.601903
C42   C     C_3   0.247628 0.437646 0.753337 0.087817
H20   H     H_    0.307808 0.404247 0.712598 0.138848
H21   H     H_    0.190803 0.386858 0.742448 0.124391
C43   C     C_3   0.264416 0.450721 0.881053 -0.301020
H22   H     H_    0.316159 0.506537 0.894643 0.222764
H23   H     H_    0.202478 0.477063 0.924031 0.244913
C44   C     C_3   0.294418 0.355320 0.935268 -0.941679
H24   H     H_    0.242600 0.299073 0.924279 0.254545
H25   H     H_    0.305569 0.367421 0.027898 0.260771
H26   H     H_    0.357669 0.328703 0.895617 0.264114
O11   O     O_3   0.080233 0.568664 0.802815 -0.603878
C45   C     C_3   0.064971 0.667511 0.834323 0.050377
H27   H     H_    0.066223 0.672176 0.928975 0.159770
H28   H     H_    0.998549 0.696500 0.808088 0.128036
C46   C     C_3   0.139010 0.731545 0.787169 -0.299649
H29   H     H_    0.204521 0.704404 0.818048 0.247451
H30   H     H_    0.139110 0.727642 0.692433 0.217155
C47   C     C_3   0.126256 0.837640 0.825015 -0.950243
H31   H     H_    0.061927 0.867046 0.793075 0.260686
H32   H     H_    0.180985 0.882013 0.790013 0.252917
H33   H     H_    0.127293 0.843719 0.919570 0.261117
O12   O     O_3   0.919746 0.488446 0.176624 -0.560567
C48   C     C_3   0.946076 0.406715 0.108453 0.029749
H34   H     H_    0.884831 0.368043 0.082985 0.177090
H35   H     H_    0.989157 0.352285 0.152912 0.116837
C49   C     C_3   0.991954 0.440216 0.999567 -0.300919
H36   H     H_    0.946247 0.489921 0.953292 0.231517
H37   H     H_    0.053059 0.480868 0.020955 0.216857
C50   C     C_3   0.016615 0.353284 0.922568 -0.907472
H38   H     H_    0.064176 0.303978 0.966600 0.248817
H39   H     H_    0.048440 0.378950 0.843203 0.274974
H40   H     H_    0.956126 0.312130 0.899094 0.249050

loop_
_geom_bond_atom_site_label_1
_geom_bond_atom_site_label_2
_ccdc_geom_bond_type
C29   O9    S    
C9    H5    S    
C24   O7    A    
Cu2   O6    S    
C14   C18   A    
C11   H7    S    
C8    O12   S    
C12   H8    S    
C48   C49   S    
C44   H24   S    
C2    O3    A    
C7    O11   S    
O11   C45   S    
C23   O5    A    
C35   C37   A    
C24   C26   S    
C30   O10   S    
C45   H28   S    
Cu1   O3    S    
Cu2   O8    S    
C3    C29   A    
C47   H31   S    
C20   H10   S    
C48   H35   S    
C23   O8    A    
Cu1   O1    S    
Cu2   O2    S    
C34   H2    S    
C10   H6    S    
C31   C33   A    
C41   H17   S    
C46   H30   S    
C11   N1    A    
C23   C25   S    
C5    H3    S    
C6    H4    S    
C4    C7    A    
C49   H37   S    
C44   H25   S    
C48   H34   S    
Cu1   O7    S    
Cu2   O4    S    
O10   C42   S    
C13   C19   A    
C40   H15   S    
C39   C40   S    
C14   C20   A    
C19   C22   A    
C3    C8    A    
Cu1   Cu2   S    
C5    C7    A    
C43   H22   S    
C6    C8    A    
C1    C32   S    
C2    C31   S    
C40   H16   S    
C32   C34   A    
C42   H20   S    
C37   C38   A    
C19   H9    S    
C24   O6    A    
Cu1   O5    S    
O12   C48   S    
C41   H19   S    
C47   H32   S    
C17   C18   A    
C43   H23   S    
C50   H39   S    
C46   C47   S    
C42   H21   S    
C12   C14   A    
Cu2   N2    S    
C9    N1    A    
C47   H33   S    
C21   H11   S    
C44   H26   S    
C22   H12   S    
C15   C17   A    
C16   C22   A    
C45   H27   S    
C4    C38   A    
C45   C46   S    
C41   H18   S    
C25   C27   T    
C26   C28   T    
C13   C17   A    
C40   C41   S    
C33   H1    S    
C39   H13   S    
C36   C38   A    
C1    O1    A    
C29   C31   A    
C10   C16   A    
C1    O4    A    
C30   C32   A    
C11   C13   A    
C43   C44   S    
Cu1   N1    S    
C5    C35   A    
C49   H36   S    
C33   C35   A    
C6    C36   A    
C50   H40   S    
C34   C36   A    
C49   C50   S    
C9    C15   A    
C10   N2    A    
C42   C43   S    
C4    C30   A    
O9    C39   S    
C15   C21   A    
C20   C21   A    
C3    C37   A    
C16   C18   A    
C50   H38   S    
C2    O2    A    
C46   H29   S    
C12   N2    A    
C39   H14   S    
C27   C28   S    
