data_mof_unit_24548.cif
_audit_creation_date              2013-03-05T15:50:09-0500
_audit_creation_method            fapswitch 2.2
_symmetry_space_group_name_H-M    P1
_symmetry_Int_Tables_number       1
_space_group_crystal_system       triclinic
_cell_length_a                    18.280787
_cell_length_b                    25.830869
_cell_length_c                    18.325324
_cell_angle_alpha                 89.866228
_cell_angle_beta                  90.203895
_cell_angle_gamma                 90.774384
_cell_volume                      8652.50809305

loop_
_atom_site_label
_atom_site_type_symbol
_atom_site_description
_atom_site_fract_x
_atom_site_fract_y
_atom_site_fract_z
_atom_type_partial_charge
Zn1   Zn    Zn3+2 0.249990 0.293780 0.913250 0.972553
Zn2   Zn    Zn3+2 0.249990 0.706220 0.086750 0.972735
Zn3   Zn    Zn3+2 0.249990 0.706220 0.913250 0.973534
Zn4   Zn    Zn3+2 0.249990 0.293780 0.086750 0.984172
Zn5   Zn    Zn3+2 0.749990 0.793780 0.413250 0.968453
Zn6   Zn    Zn3+2 0.749990 0.206220 0.586750 0.973847
Zn7   Zn    Zn3+2 0.749990 0.206220 0.413250 0.966640
Zn8   Zn    Zn3+2 0.749990 0.793780 0.586750 0.974419
Zn9   Zn    Zn3+2 0.336760 0.206240 0.000000 0.968126
Zn10  Zn    Zn3+2 0.336760 0.793760 0.000000 0.964181
Zn11  Zn    Zn3+2 0.836760 0.706240 0.500000 0.986899
Zn12  Zn    Zn3+2 0.836760 0.293760 0.500000 0.968639
Zn13  Zn    Zn3+2 0.163250 0.206230 0.000000 0.969098
Zn14  Zn    Zn3+2 0.163250 0.793770 0.000000 0.989118
Zn15  Zn    Zn3+2 0.663250 0.706230 0.500000 0.982702
Zn16  Zn    Zn3+2 0.663250 0.293770 0.500000 0.994757
O1    O     O_3   0.249990 0.250010 0.000000 -0.490673
O2    O     O_3   0.249990 0.749990 0.000000 -0.493986
O3    O     O_3   0.749990 0.750010 0.500000 -0.496425
O4    O     O_3   0.749990 0.249990 0.500000 -0.491942
O5    O     O_R   0.335430 0.280650 0.146160 -0.630120
O6    O     O_R   0.335430 0.719350 0.853840 -0.635140
O7    O     O_R   0.335430 0.719350 0.146160 -0.634118
O8    O     O_R   0.335430 0.280650 0.853840 -0.635227
O9    O     O_R   0.835430 0.780650 0.646160 -0.622911
O10   O     O_R   0.835430 0.219350 0.353840 -0.641655
O11   O     O_R   0.835430 0.219350 0.646160 -0.632583
O12   O     O_R   0.835430 0.780650 0.353840 -0.632827
O13   O     O_R   0.164550 0.280640 0.853840 -0.624670
O14   O     O_R   0.164550 0.719360 0.146160 -0.634663
O15   O     O_R   0.164550 0.719360 0.853840 -0.637582
O16   O     O_R   0.164550 0.280640 0.146160 -0.634795
O17   O     O_R   0.664550 0.780640 0.353840 -0.627311
O18   O     O_R   0.664550 0.219360 0.646160 -0.637056
O19   O     O_R   0.664550 0.219360 0.353840 -0.631414
O20   O     O_R   0.664550 0.780640 0.646160 -0.630349
O21   O     O_R   0.396160 0.219380 0.914560 -0.634230
O22   O     O_R   0.396160 0.780620 0.085440 -0.639730
O23   O     O_R   0.396160 0.780620 0.914560 -0.630505
O24   O     O_R   0.396160 0.219380 0.085440 -0.630265
O25   O     O_R   0.896160 0.719380 0.414560 -0.616433
O26   O     O_R   0.896160 0.280620 0.585440 -0.640042
O27   O     O_R   0.896160 0.280620 0.414560 -0.640254
O28   O     O_R   0.896160 0.719380 0.585440 -0.636249
O29   O     O_R   0.103840 0.219370 0.085450 -0.644080
O30   O     O_R   0.103840 0.780630 0.914550 -0.619062
O31   O     O_R   0.103840 0.780630 0.085450 -0.623351
O32   O     O_R   0.103840 0.219370 0.914550 -0.645696
O33   O     O_R   0.603840 0.719370 0.585450 -0.627093
O34   O     O_R   0.603840 0.280630 0.414550 -0.621123
O35   O     O_R   0.603840 0.280630 0.585450 -0.624338
O36   O     O_R   0.603840 0.719370 0.414550 -0.639834
O37   O     O_R   0.310730 0.133160 0.000000 -0.645654
O38   O     O_R   0.310730 0.866840 0.000000 -0.651831
O39   O     O_R   0.810730 0.633160 0.500000 -0.636338
O40   O     O_R   0.810730 0.366840 0.500000 -0.646954
O41   O     O_R   0.249970 0.366860 0.060720 -0.633907
O42   O     O_R   0.249970 0.633140 0.939280 -0.641603
O43   O     O_R   0.249970 0.633140 0.060720 -0.640032
O44   O     O_R   0.249970 0.366860 0.939280 -0.646083
O45   O     O_R   0.749970 0.866860 0.560720 -0.646591
O46   O     O_R   0.749970 0.133140 0.439280 -0.654648
O47   O     O_R   0.749970 0.133140 0.560720 -0.637083
O48   O     O_R   0.749970 0.866860 0.439280 -0.645687
O49   O     O_R   0.189290 0.133150 0.000000 -0.643106
O50   O     O_R   0.189290 0.866850 0.000000 -0.634811
O51   O     O_R   0.689290 0.633150 0.500000 -0.647494
O52   O     O_R   0.689290 0.366850 0.500000 -0.632814
C1    C     C_R   0.389943 0.250392 0.139438 0.781620
C2    C     C_R   0.389783 0.750295 0.860057 0.785717
C3    C     C_R   0.390082 0.750014 0.139664 0.781022
C4    C     C_R   0.389986 0.250574 0.860493 0.777023
C5    C     C_R   0.889996 0.750395 0.639375 0.786290
C6    C     C_R   0.893817 0.246733 0.363577 0.806001
C7    C     C_R   0.889922 0.250144 0.639798 0.783241
C8    C     C_R   0.890435 0.751135 0.361056 0.778217
C9    C     C_R   0.110056 0.249845 0.860233 0.788779
C10   C     C_R   0.109279 0.748839 0.139097 0.784309
C11   C     C_R   0.109939 0.749556 0.860527 0.780412
C12   C     C_R   0.106083 0.253338 0.136266 0.814719
C13   C     C_R   0.609941 0.749963 0.360328 0.784516
C14   C     C_R   0.609800 0.249325 0.639535 0.782665
C15   C     C_R   0.610037 0.249701 0.360452 0.788274
C16   C     C_R   0.610300 0.749595 0.640169 0.785376
C17   C     C_R   0.249365 0.108961 0.992582 0.795824
C18   C     C_R   0.250696 0.890814 0.008427 0.791925
C19   C     C_R   0.748924 0.609063 0.492733 0.815032
C20   C     C_R   0.750943 0.390961 0.507223 0.798549
C21   C     C_R   0.250730 0.391353 0.999810 0.754220
C22   C     C_R   0.251610 0.608671 0.999919 0.762067
C23   C     C_R   0.750343 0.891362 0.500019 0.733244
C24   C     C_R   0.750845 0.108656 0.500099 0.763190
C25   C     C_3   0.183013 0.469663 0.037693 -0.417510
C26   C     C_3   0.252189 0.529865 0.919937 -0.362685
C27   C     C_3   0.184964 0.529362 0.039366 -0.368397
C28   C     C_3   0.252839 0.470379 0.919854 -0.365866
C29   C     C_3   0.752361 0.970171 0.579622 -0.373698
C30   C     C_3   0.682264 0.029426 0.461242 -0.369762
C31   C     C_3   0.753584 0.029608 0.579585 -0.371174
C32   C     C_3   0.681505 0.969620 0.461675 -0.410553
H1    H     H_    0.179756 0.454532 0.094432 0.230436
H2    H     H_    0.300717 0.544877 0.889605 0.187687
H3    H     H_    0.185255 0.542722 0.097069 0.231439
H4    H     H_    0.302534 0.456923 0.890931 0.185152
H5    H     H_    0.801559 0.955917 0.609058 0.185561
H6    H     H_    0.680309 0.043553 0.403847 0.193671
H7    H     H_    0.803979 0.043735 0.607926 0.181172
H8    H     H_    0.678746 0.955224 0.404517 0.196254
H9    H     H_    0.132987 0.456028 0.008368 0.188576
H10   H     H_    0.202434 0.543331 0.890654 0.199309
H11   H     H_    0.135373 0.544541 0.012391 0.213980
H12   H     H_    0.204250 0.455591 0.889133 0.198044
H13   H     H_    0.703273 0.956000 0.609862 0.192750
H14   H     H_    0.632778 0.043805 0.488891 0.211972
H15   H     H_    0.706116 0.043830 0.611066 0.230027
H16   H     H_    0.631631 0.955072 0.490210 0.155387
H17   H     H_    0.123717 0.915592 0.085154 0.192362
H18   H     H_    0.105360 0.078803 0.946613 0.209776
H19   H     H_    0.631086 0.414780 0.591903 0.185494
H20   H     H_    0.599782 0.579100 0.459025 0.226606
H21   H     H_    0.321337 0.456551 0.097094 0.198529
H22   H     H_    0.372220 0.544652 0.009831 0.158270
H23   H     H_    0.324990 0.545138 0.095437 0.189918
H24   H     H_    0.371266 0.455694 0.013020 0.148776
H25   H     H_    0.870068 0.956538 0.486923 0.146099
H26   H     H_    0.820319 0.044973 0.402413 0.183491
H27   H     H_    0.870597 0.045436 0.486636 0.150454
H28   H     H_    0.820024 0.956448 0.402556 0.192458
C33   C     C_3   0.320974 0.470386 0.039526 -0.385601
C34   C     C_3   0.322255 0.530399 0.038456 -0.401747
C35   C     C_3   0.819500 0.970653 0.459839 -0.385129
C36   C     C_3   0.819829 0.030627 0.459732 -0.405772
C37   C     C_3   0.251977 0.449105 0.999249 0.177766
C38   C     C_3   0.253016 0.550897 0.999403 0.156977
C39   C     C_3   0.750970 0.949129 0.500233 0.189095
C40   C     C_3   0.751618 0.050901 0.500238 0.174553
H29   H     H_    0.148534 0.104571 0.695084 0.135071
H30   H     H_    0.121410 0.914355 0.267533 0.133219
H31   H     H_    0.119195 0.915213 0.731097 0.139433
H32   H     H_    0.901470 0.131201 0.075420 0.204809
H33   H     H_    0.486551 0.916749 0.361396 0.162591
H34   H     H_    0.610977 0.418351 0.759174 0.140060
H35   H     H_    0.626413 0.412090 0.223508 0.175012
H36   H     H_    0.380937 0.810665 0.534375 0.143262
C41   C     C_R   0.997804 0.326278 0.861231 -0.211972
C42   C     C_R   0.014137 0.658878 0.164934 -0.198772
C43   C     C_R   0.015129 0.660513 0.838921 -0.209880
C44   C     C_R   0.092324 0.338435 0.244453 -0.163202
C45   C     C_R   0.585297 0.659984 0.271372 -0.201032
C46   C     C_R   0.523700 0.156818 0.671870 -0.202554
C47   C     C_R   0.508888 0.163748 0.345716 -0.205804
C48   C     C_R   0.644680 0.721387 0.788953 -0.198977
C49   C     C_R   0.943102 0.363787 0.862889 0.009274
C50   C     C_R   0.964605 0.617152 0.173890 0.032491
C51   C     C_R   0.970265 0.616630 0.827896 0.001909
C52   C     C_R   0.110207 0.366187 0.307781 -0.030906
C53   C     C_R   0.574056 0.615645 0.228640 0.031587
C54   C     C_R   0.480474 0.112471 0.685331 0.036128
C55   C     C_R   0.460473 0.121385 0.338561 0.031524
C56   C     C_R   0.662149 0.707510 0.860950 0.013644
C57   C     C_R   0.520787 0.616536 0.173711 -0.186404
C58   C     C_R   0.422364 0.115535 0.734228 -0.145491
C59   C     C_R   0.408472 0.121631 0.282529 -0.189236
C60   C     C_R   0.606557 0.705308 0.912980 -0.179946
C61   C     C_R   0.889987 0.363899 0.807705 -0.175572
C62   C     C_R   0.907157 0.621398 0.223130 -0.180867
C63   C     C_R   0.918838 0.616996 0.771401 -0.184402
C64   C     C_R   0.084611 0.347638 0.374763 -0.171279
C65   C     C_R   0.479198 0.660625 0.162182 -0.174447
C66   C     C_R   0.409924 0.161034 0.772082 -0.140013
C67   C     C_R   0.403640 0.163724 0.235485 -0.163823
C68   C     C_R   0.535448 0.718530 0.894307 -0.166797
C69   C     C_R   0.891118 0.327072 0.752305 -0.169812
C70   C     C_R   0.900555 0.665409 0.265367 -0.120490
C71   C     C_R   0.911016 0.660540 0.727705 -0.126615
C72   C     C_R   0.036048 0.305656 0.377366 -0.128052
C73   C     C_R   0.488687 0.705186 0.206282 0.086545
C74   C     C_R   0.455693 0.205145 0.762525 0.085592
C75   C     C_R   0.451770 0.206824 0.242158 0.083802
C76   C     C_R   0.517659 0.735105 0.822804 0.084750
C77   C     C_R   0.945511 0.288674 0.750550 0.088955
C78   C     C_R   0.951121 0.707112 0.259182 0.090473
C79   C     C_R   0.955546 0.705182 0.738178 0.084291
C80   C     C_R   0.012979 0.280166 0.312816 0.072472
C81   C     C_R   0.999594 0.288343 0.805537 0.054062
C82   C     C_R   0.007215 0.704898 0.206521 0.039432
C83   C     C_R   0.009059 0.704991 0.793760 0.041573
C84   C     C_R   0.050101 0.292064 0.247659 0.058201
C85   C     C_R   0.542576 0.704929 0.261397 0.056203
C86   C     C_R   0.511931 0.203742 0.710036 0.039580
C87   C     C_R   0.505660 0.206653 0.297384 0.051496
C88   C     C_R   0.572571 0.735567 0.768904 0.054594
C89   C     C_R   0.446515 0.750135 0.195447 -0.140719
C90   C     C_R   0.445306 0.250615 0.803647 -0.138003
C91   C     C_R   0.445860 0.250353 0.195791 -0.138220
C92   C     C_R   0.446027 0.750402 0.804178 -0.143476
C93   C     C_R   0.946209 0.250291 0.695724 -0.133879
C94   C     C_R   0.945341 0.751126 0.303931 -0.130880
C95   C     C_R   0.946171 0.750222 0.695448 -0.123818
C96   C     C_R   0.955684 0.242526 0.311765 -0.208207
C97   C     C_R   0.457443 0.794908 0.238640 0.080646
C98   C     C_R   0.488632 0.295564 0.791547 0.074336
C99   C     C_R   0.493112 0.293767 0.203335 0.076992
C100  C     C_R   0.428073 0.765802 0.732267 0.074467
C101  C     C_R   0.999677 0.211311 0.695225 0.075116
C102  C     C_R   0.991838 0.794694 0.294348 0.072513
C103  C     C_R   0.990962 0.794652 0.705575 0.073343
C104  C     C_R   0.949370 0.208176 0.251742 0.078817
C105  C     C_R   0.053900 0.211004 0.750177 0.076492
C106  C     C_R   0.046208 0.793733 0.239788 0.087012
C107  C     C_R   0.045739 0.794189 0.759993 0.074497
C108  C     C_R   0.986722 0.219964 0.186540 0.070762
C109  C     C_R   0.511422 0.794681 0.293785 0.078358
C110  C     C_R   0.543397 0.294938 0.737393 0.084692
C111  C     C_R   0.547832 0.293394 0.257828 0.074186
C112  C     C_R   0.482485 0.765208 0.677796 0.076841
C113  C     C_R   0.053602 0.249697 0.804521 -0.131812
C114  C     C_R   0.053765 0.748857 0.196209 -0.131552
C115  C     C_R   0.053994 0.749540 0.804024 -0.130463
C116  C     C_R   0.043896 0.257701 0.187665 -0.196473
C117  C     C_R   0.553618 0.749772 0.304482 -0.134777
C118  C     C_R   0.554331 0.249208 0.696541 -0.134502
C119  C     C_R   0.553853 0.249771 0.304212 -0.133935
C120  C     C_R   0.554158 0.749647 0.696317 -0.137655
C121  C     C_R   0.414421 0.839749 0.229154 -0.140211
C122  C     C_R   0.479543 0.341072 0.833501 -0.146034
C123  C     C_R   0.487826 0.337401 0.156640 -0.158998
C124  C     C_R   0.357055 0.783057 0.713734 -0.134439
C125  C     C_R   0.000522 0.172602 0.640593 -0.146560
C126  C     C_R   0.985763 0.839262 0.338752 -0.143165
C127  C     C_R   0.983626 0.839270 0.661075 -0.144080
C128  C     C_R   0.907261 0.161730 0.254888 -0.136382
C129  C     C_R   0.425488 0.883312 0.272700 -0.099639
C130  C     C_R   0.522890 0.384975 0.821235 -0.104013
C131  C     C_R   0.535289 0.379707 0.164382 -0.113729
C132  C     C_R   0.340369 0.798665 0.642869 -0.120383
C133  C     C_R   0.053754 0.134482 0.640888 -0.133913
C134  C     C_R   0.031831 0.882048 0.328592 -0.119128
C135  C     C_R   0.029215 0.882370 0.670783 -0.134809
C136  C     C_R   0.891395 0.133635 0.191895 -0.123769
C137  C     C_R   0.107170 0.134171 0.695052 -0.124158
C138  C     C_R   0.085331 0.881197 0.274996 -0.111232
C139  C     C_R   0.083398 0.881851 0.724086 -0.124470
C140  C     C_R   0.917194 0.151149 0.125002 -0.095565
C141  C     C_R   0.478498 0.883029 0.327156 -0.114596
C142  C     C_R   0.576850 0.384362 0.768133 -0.085894
C143  C     C_R   0.589303 0.379310 0.217889 -0.092969
C144  C     C_R   0.393846 0.798071 0.589266 -0.116501
C145  C     C_R   0.107620 0.171982 0.749182 -0.139981
C146  C     C_R   0.093090 0.837539 0.231349 -0.128191
C147  C     C_R   0.092107 0.838289 0.768074 -0.140018
C148  C     C_R   0.964507 0.193825 0.122035 -0.123116
C149  C     C_R   0.520778 0.839215 0.338197 -0.162246
C150  C     C_R   0.587692 0.339859 0.727021 -0.125739
C151  C     C_R   0.596039 0.336643 0.263983 -0.149986
C152  C     C_R   0.464273 0.781889 0.606276 -0.132774
H37   H     H_    0.038326 0.326485 0.904418 0.164552
H38   H     H_    0.057167 0.655153 0.124966 0.168778
H39   H     H_    0.054272 0.659706 0.883296 0.175432
H40   H     H_    0.110363 0.353803 0.192516 0.196792
H41   H     H_    0.628045 0.658994 0.312211 0.172083
H42   H     H_    0.566324 0.154077 0.631412 0.186466
H43   H     H_    0.548660 0.163018 0.389559 0.168516
H44   H     H_    0.688024 0.720824 0.749022 0.176699
H45   H     H_    0.511279 0.583104 0.139210 0.170335
H46   H     H_    0.387341 0.082206 0.744792 0.170397
H47   H     H_    0.370205 0.089592 0.275839 0.174711
H48   H     H_    0.618143 0.693968 0.968745 0.182432
H49   H     H_    0.847164 0.392474 0.807357 0.177971
H50   H     H_    0.868191 0.589851 0.230612 0.174700
H51   H     H_    0.883121 0.583883 0.761834 0.182026
H52   H     H_    0.101482 0.365945 0.425186 0.217140
H53   H     H_    0.439842 0.659244 0.118002 0.134632
H54   H     H_    0.364066 0.160875 0.809206 0.123775
H55   H     H_    0.360973 0.162161 0.194480 0.143912
H56   H     H_    0.494855 0.715690 0.936957 0.140716
H57   H     H_    0.848473 0.328831 0.711285 0.122385
H58   H     H_    0.855063 0.666137 0.302928 0.133277
H59   H     H_    0.868335 0.658861 0.686778 0.152071
H60   H     H_    0.019697 0.292181 0.430794 0.183433
H61   H     H_    0.371424 0.841684 0.188612 0.120850
H62   H     H_    0.439418 0.343289 0.876545 0.126766
H63   H     H_    0.447384 0.339284 0.113509 0.123050
H64   H     H_    0.313828 0.785290 0.753693 0.130657
H65   H     H_    0.960297 0.171408 0.597134 0.111672
H66   H     H_    0.945605 0.841587 0.381794 0.120146
H67   H     H_    0.943290 0.841268 0.617877 0.121480
H68   H     H_    0.887633 0.145975 0.306007 0.154201
H69   H     H_    0.053612 0.105125 0.598823 0.129679
H70   H     H_    0.026244 0.915884 0.362772 0.129061
H71   H     H_    0.022854 0.916136 0.636348 0.129755
H72   H     H_    0.857590 0.098964 0.194828 0.167462
H73   H     H_    0.392321 0.917264 0.264543 0.149943
H74   H     H_    0.515003 0.419453 0.853589 0.135855
H75   H     H_    0.530387 0.412798 0.128412 0.153870
H76   H     H_    0.285846 0.811699 0.629683 0.142011
H77   H     H_    0.150433 0.170262 0.790023 0.111335
H78   H     H_    0.136660 0.838559 0.191604 0.113715
H79   H     H_    0.135970 0.839573 0.807807 0.130729
H80   H     H_    0.980945 0.207012 0.068502 0.175992
H81   H     H_    0.560211 0.840669 0.382301 0.127750
H82   H     H_    0.631836 0.341071 0.687949 0.113536
H83   H     H_    0.639586 0.337978 0.304076 0.135197
H84   H     H_    0.504148 0.783337 0.562866 0.130821
C153  C     C_R   0.380060 0.048009 0.952449 -0.194230
C154  C     C_R   0.387663 0.954925 0.027225 -0.196058
C155  C     C_R   0.872898 0.549054 0.437488 -0.187087
C156  C     C_R   0.889139 0.456010 0.510728 -0.183661
C157  C     C_R   0.448778 0.025955 0.964422 -0.065456
C158  C     C_R   0.452762 0.979104 0.004181 -0.073915
C159  C     C_R   0.942001 0.526305 0.439651 -0.065577
C160  C     C_R   0.951520 0.481282 0.482518 -0.073885
C161  C     C_R   0.318414 0.975389 0.009829 0.066572
C162  C     C_R   0.315370 0.025651 0.981577 0.061231
C163  C     C_R   0.818155 0.475729 0.499893 0.053436
C164  C     C_R   0.812240 0.526246 0.473361 0.048556
C165  C     C_R   0.252230 0.947243 0.020249 -0.158521
C166  C     C_R   0.248000 0.052219 0.983447 -0.157655
C167  C     C_R   0.753319 0.447481 0.517187 -0.150842
C168  C     C_R   0.745847 0.552593 0.482539 -0.122275
C169  C     C_R   0.185179 0.973669 0.023245 0.014564
C170  C     C_R   0.181722 0.024224 0.995519 0.016848
C171  C     C_R   0.686724 0.473704 0.526307 0.009455
C172  C     C_R   0.680777 0.524489 0.499991 0.015361
C173  C     C_R   0.121198 0.950882 0.053340 -0.264892
C174  C     C_R   0.111759 0.044581 0.979916 -0.260593
C175  C     C_R   0.625738 0.450495 0.561517 -0.268549
C176  C     C_R   0.609614 0.544881 0.491363 -0.233966
C177  C     C_R   0.053135 0.973720 0.044054 0.388438
C178  C     C_R   0.048038 0.019595 0.003969 0.371108
C179  C     C_R   0.557210 0.473452 0.559359 0.384064
C180  C     C_R   0.548480 0.519807 0.521148 0.366279
H85   H     H_    0.377526 0.083078 0.920169 0.186246
H86   H     H_    0.391850 0.920206 0.059993 0.189905
H87   H     H_    0.865824 0.583883 0.405309 0.180208
H88   H     H_    0.897091 0.422780 0.545666 0.202782
Cl1   Cl    Cl    0.962779 0.047014 0.983852 -0.561926
Cl2   Cl    Cl    0.975110 0.942886 0.080736 -0.517713
Cl3   Cl    Cl    0.461935 0.547908 0.510811 -0.495124
Cl4   Cl    Cl    0.482938 0.442161 0.602434 -0.519721
C181  C     C_2   0.514532 0.055386 0.939620 0.979243
O53   O     O_2   0.570594 0.055654 0.976218 -0.577559
O54   O     O_R   0.511194 0.084886 0.875670 -0.810249
H89   H     H_    0.558792 0.103947 0.864856 0.356625
C182  C     C_2   0.522698 0.952150 0.018068 0.971357
O55   O     O_2   0.531811 0.928819 0.075490 -0.612644
O56   O     O_R   0.576905 0.951380 0.964447 -0.756895
H90   H     H_    0.621451 0.931168 0.980180 0.366112
C183  C     C_2   0.001379 0.550068 0.395258 0.973630
O57   O     O_2   0.046857 0.522814 0.365983 -0.568746
O58   O     O_R   0.003305 0.603655 0.384112 -0.791189
H91   H     H_    0.045104 0.615184 0.351403 0.354979
C184  C     C_2   0.024965 0.461310 0.502508 0.948261
O59   O     O_2   0.031359 0.416384 0.522523 -0.645758
O60   O     O_R   0.086298 0.494254 0.502446 -0.737363
H92   H     H_    0.132631 0.476025 0.517926 0.376597
C185  C     C_2   0.941227 0.402352 0.922786 0.946743
O61   O     O_2   0.889857 0.431978 0.927797 -0.567585
O62   O     O_R   0.998026 0.404771 0.974076 -0.849096
H93   H     H_    0.990424 0.432625 0.012103 0.344449
C186  C     C_2   0.973307 0.568114 0.133989 0.939709
O63   O     O_2   0.919642 0.541486 0.118450 -0.600761
O64   O     O_R   0.043050 0.550817 0.117309 -0.827874
H94   H     H_    0.041755 0.514662 0.095883 0.331543
C187  C     C_2   0.975867 0.570673 0.876049 0.939364
O65   O     O_2   0.941460 0.531014 0.861616 -0.591664
O66   O     O_R   0.019676 0.572533 0.938545 -0.832136
H95   H     H_    0.016890 0.538958 0.967188 0.350362
C188  C     C_2   0.157377 0.413337 0.303959 0.973924
O67   O     O_2   0.172237 0.437622 0.359420 -0.565375
O68   O     O_R   0.185156 0.430171 0.236842 -0.825923
H96   H     H_    0.216402 0.462753 0.241272 0.353373
C189  C     C_2   0.618209 0.568615 0.241629 0.921233
O69   O     O_2   0.609060 0.530207 0.203564 -0.641579
O70   O     O_R   0.670281 0.567961 0.297787 -0.842563
H97   H     H_    0.696437 0.533684 0.301528 0.345436
C190  C     C_2   0.497016 0.062535 0.649859 0.930791
O71   O     O_2   0.451965 0.027073 0.650472 -0.633238
O72   O     O_R   0.565038 0.055286 0.617348 -0.838442
H98   H     H_    0.570870 0.018720 0.598426 0.327500
C191  C     C_2   0.463072 0.077360 0.390485 0.894721
O73   O     O_2   0.428534 0.037449 0.377855 -0.647304
O74   O     O_R   0.504132 0.081542 0.454650 -0.830138
H99   H     H_    0.499875 0.049230 0.485881 0.353969
C192  C     C_2   0.738697 0.696277 0.882089 0.920981
O75   O     O_2   0.752090 0.676586 0.941356 -0.605510
O76   O     O_R   0.796053 0.709295 0.835015 -0.813518
H100  H     H_    0.845675 0.701902 0.857275 0.356441

loop_
_geom_bond_atom_site_label_1
_geom_bond_atom_site_label_2
_geom_bond_distance
_ccdc_geom_bond_type
C162  C166  1.418517 A    
C185  O61   1.223253 D    
C87   C119  1.416205 A    
C94   C102  1.412160 A    
C109  C149  1.418821 A    
C148  H80   1.080027 S    
C176  C180  1.396248 A    
C149  H81   1.081442 S    
C99   C123  1.417663 A    
C75   C91   1.412816 A    
C97   C121  1.418825 A    
O26   C7    1.272688 A    
C154  C158  1.402477 A    
C73   C89   1.415576 A    
C66   C74   1.415415 A    
C130  H74   1.082618 S    
C99   C111  1.411043 A    
C56   C192  1.482916 S    
C4    C90   1.454431 S    
O30   C11   1.282082 A    
C22   C38   1.492973 S    
C30   H14   1.107392 S    
C91   C99   1.412981 A    
C136  C140  1.387643 A    
C89   C97   1.414525 A    
C70   H58   1.081803 S    
Zn12  O26   1.934211 S    
C110  C118  1.416800 A    
C51   C63   1.396069 A    
C19   C168  1.471298 S    
H34   C142  1.082684 S    
C20   C167  1.471799 S    
C173  C177  1.393902 A    
C92   C100  1.414396 A    
C43   C51   1.404678 A    
C76   C92   1.413361 A    
C32   C39   1.549856 S    
C29   H5    1.113555 S    
C96   C104  1.418212 A    
C34   C38   1.550658 S    
C31   H7    1.113548 S    
C44   H40   1.081263 S    
O11   C7    1.271855 A    
C154  H86   1.081553 S    
C45   H41   1.080611 S    
C184  O60   1.398383 S    
O34   C15   1.280949 A    
C136  H72   1.082561 S    
C167  C171  1.411770 A    
C62   C70   1.383693 A    
C41   H37   1.082057 S    
C171  C172  1.402069 A    
C137  C145  1.393617 A    
C158  C182  1.484917 S    
Zn14  O30   1.930592 S    
Zn1   O44   1.948140 S    
C25   H1    1.111443 S    
Zn2   O43   1.948129 S    
C18   C165  1.473981 S    
C108  C116  1.419659 A    
C141  C149  1.393077 A    
C153  C162  1.414752 A    
Zn5   O48   1.948140 S    
H32   C140  1.081664 S    
Zn6   O47   1.948129 S    
C112  C120  1.415609 A    
Zn7   O46   1.945971 S    
C46   C86   1.420120 A    
C60   H48   1.083371 S    
C11   C115  1.452759 S    
O60   H92   1.013928 S    
C42   C50   1.407979 A    
Zn16  O4    1.960028 S    
Zn12  O4    1.935441 S    
Zn1   O13   1.927523 S    
C98   C110  1.412436 A    
C26   C28   1.536773 S    
Zn4   O16   1.932899 S    
O41   C21   1.281773 A    
C104  C128  1.417852 A    
C9    C113  1.449084 S    
C33   C37   1.553838 S    
C50   C186  1.474820 S    
C6    C96   1.484555 S    
C28   H4    1.113505 S    
C191  O73   1.223729 D    
C125  C133  1.393718 A    
O74   H99   1.013209 S    
C168  C172  1.422174 A    
C13   C117  1.449096 S    
C71   C79   1.415571 A    
C72   C80   1.415346 A    
C74   C90   1.412309 A    
C71   H59   1.080836 S    
O70   H97   1.014003 S    
C14   C118  1.458419 S    
C44   C84   1.417371 A    
C135  H71   1.082646 S    
C45   C85   1.419041 A    
C30   H6    1.113093 S    
Zn10  O22   1.934211 S    
C105  C113  1.412640 A    
C189  O70   1.399602 S    
C132  H76   1.082680 S    
C48   C88   1.419789 A    
C133  H69   1.082559 S    
C187  O65   1.223822 D    
O25   C8    1.281773 A    
Zn13  O29   1.941988 S    
C129  C141  1.388609 A    
Zn10  O2    1.935441 S    
C31   C40   1.553865 S    
O29   C12   1.281125 A    
C171  C175  1.415600 A    
Zn15  O33   1.941988 S    
C151  H83   1.081640 S    
C152  H84   1.081141 S    
C67   H55   1.081564 S    
C75   C87   1.409870 A    
C26   H2    1.113349 S    
C169  C170  1.402249 A    
C41   C81   1.417276 A    
O62   H93   1.014046 S    
C135  C139  1.388821 A    
O48   C23   1.281663 A    
C156  H88   1.080727 S    
C130  C142  1.388360 A    
C192  O76   1.397199 S    
C175  C179  1.393640 A    
C183  O57   1.222858 D    
C132  C144  1.388576 A    
C101  C125  1.416860 A    
O58   H91   1.013975 S    
C153  H85   1.082176 S    
Zn16  O35   1.935568 S    
C159  C183  1.484175 S    
C77   C93   1.413408 A    
C70   C78   1.414558 A    
C82   C114  1.422415 A    
Zn7   O10   1.932859 S    
O33   C16   1.276451 A    
C25   C37   1.547237 S    
C86   C118  1.420061 A    
C78   C82   1.412445 A    
O40   C20   1.272841 A    
C52   C188  1.484412 S    
C52   C64   1.396588 A    
C1    C91   1.450482 S    
C51   C187  1.481918 S    
C102  C106  1.412809 A    
H35   C143  1.082649 S    
C80   C96   1.419548 A    
Zn5   O17   1.927523 S    
H33   C141  1.082803 S    
H31   C139  1.082617 S    
C150  H82   1.080819 S    
C57   C65   1.393125 A    
C25   C27   1.542381 S    
C103  C107  1.410858 A    
C67   C75   1.414903 A    
C65   C73   1.416350 A    
C27   H3    1.113054 S    
C181  O54   1.397982 S    
C32   H8    1.113038 S    
Zn8   O3    1.952920 S    
C21   C37   1.491668 S    
O38   C18   1.277421 A    
C146  H78   1.081229 S    
O5    C1    1.281218 A    
C47   C55   1.404149 A    
O32   C9    1.272043 A    
C156  C163  1.413627 A    
H25   C35   1.113039 S    
H26   C36   1.113051 S    
C36   C40   1.551180 S    
Zn15  O51   1.953044 S    
C111  C151  1.417986 A    
Zn11  O28   1.930340 S    
H23   C34   1.112995 S    
C42   H38   1.082117 S    
C182  O56   1.398381 S    
C29   C39   1.554228 S    
C178  Cl1   1.758200 S    
H28   C35   1.112943 S    
O8    C4    1.277774 A    
C63   C71   1.387842 A    
C33   C34   1.550128 S    
C64   C72   1.392996 A    
C49   C61   1.399467 A    
C123  H63   1.081811 S    
O50   C18   1.283587 A    
O37   C17   1.283744 A    
C161  C165  1.416377 A    
C107  C115  1.415458 A    
C100  C112  1.411954 A    
Zn1   O1    1.948619 S    
C122  C130  1.392931 A    
C54   C190  1.481107 S    
C133  C137  1.389983 A    
Zn2   O14   1.941187 S    
C15   C119  1.452446 S    
C48   H44   1.080744 S    
C170  C174  1.417370 A    
H29   C137  1.082581 S    
C153  C157  1.402687 A    
O9    C5    1.282049 A    
C43   H39   1.081619 S    
O36   C13   1.272383 A    
C190  O72   1.395841 S    
C60   C68   1.389907 A    
C55   C191  1.482227 S    
O13   C9    1.271952 A    
Zn1   O8    1.941141 S    
C112  C152  1.418580 A    
Zn2   O7    1.927482 S    
Zn3   O6    1.932859 S    
O18   C14   1.278750 A    
O31   C10   1.283929 A    
C106  C146  1.418714 A    
C156  C160  1.405814 A    
C25   H9    1.112577 S    
C188  O68   1.398474 S    
C110  C150  1.418769 A    
C93   C101  1.412788 A    
C32   H16   1.113159 S    
C159  C160  1.414261 A    
C184  O59   1.223216 D    
C134  H70   1.082621 S    
O72   H98   1.014045 S    
C98   C122  1.418088 A    
Zn15  O3    1.935141 S    
C186  O64   1.391896 S    
Zn11  O3    1.960327 S    
C61   H49   1.083167 S    
C56   C60   1.396484 A    
Zn16  O34   1.930592 S    
C72   H60   1.080191 S    
C31   H15   1.110824 S    
C74   C86   1.411257 A    
C3    C89   1.449722 S    
Zn2   O2    1.948618 S    
O68   H96   1.013989 S    
C90   C98   1.414109 A    
Zn8   O20   1.932899 S    
C109  C117  1.414624 A    
C174  C178  1.396339 A    
O64   H94   1.013900 S    
C121  H61   1.081214 S    
C108  C148  1.418102 A    
C59   C67   1.389577 A    
C47   H43   1.081951 S    
C68   C76   1.415674 A    
C7    C93   1.449663 S    
C69   C77   1.414418 A    
C163  C164  1.396892 A    
C185  O62   1.398941 S    
Zn8   O9    1.934005 S    
C127  H67   1.081547 S    
C24   C40   1.492111 S    
C160  C184  1.489068 S    
C128  H68   1.081025 S    
C180  Cl3   1.759017 S    
C68   H56   1.081336 S    
C69   H57   1.082350 S    
C84   C116  1.417882 A    
C166  C170  1.420339 A    
C138  C146  1.393194 A    
O7    C3    1.272296 A    
C65   H53   1.081525 S    
C88   C120  1.418729 A    
C95   C103  1.412982 A    
C16   C120  1.455869 S    
O56   H90   1.013882 S    
O19   C15   1.282361 A    
C83   C115  1.417299 A    
C142  C150  1.392719 A    
C43   C83   1.419699 A    
C181  O53   1.222760 D    
C26   H10   1.113752 S    
C27   C38   1.542469 S    
C147  H79   1.081415 S    
Zn6   O18   1.941187 S    
Zn10  O23   1.941737 S    
C179  C180  1.396429 A    
C79   C83   1.409788 A    
C58   C66   1.387936 A    
C172  C176  1.418259 A    
Zn15  O36   1.934464 S    
O49   C17   1.278660 A    
O42   C22   1.277587 A    
C97   C109  1.409972 A    
C28   C37   1.554114 S    
C46   H42   1.080595 S    
Zn4   O1    1.952920 S    
C30   C32   1.544728 S    
Zn9   O37   1.940528 S    
C35   C36   1.549118 S    
O12   C8    1.276375 A    
C53   C57   1.398405 A    
Zn11  O39   1.940528 S    
C192  O75   1.223567 D    
C58   H46   1.083398 S    
C46   C54   1.404670 A    
C59   H47   1.083302 S    
C154  C161  1.413514 A    
C53   C189  1.485849 S    
C42   C82   1.420861 A    
H21   C33   1.113063 S    
Zn5   O3    1.948619 S    
Zn13  O1    1.935141 S    
Zn6   O4    1.948618 S    
C163  C167  1.419821 A    
C164  C168  1.410276 A    
C121  C129  1.393158 A    
C139  C147  1.393196 A    
C64   H52   1.081040 S    
C8    C94   1.452875 S    
C10   C114  1.460421 S    
C161  C162  1.398348 A    
H19   C175  1.081811 S    
C129  H73   1.082681 S    
H24   C33   1.112964 S    
C155  C159  1.400829 A    
Zn9   O24   1.930340 S    
O28   C5    1.279988 A    
Zn3   O42   1.945971 S    
C165  C169  1.412336 A    
C23   C39   1.492070 S    
Zn7   O4    1.952922 S    
O21   C4    1.281261 A    
C191  O74   1.396358 S    
C50   C62   1.392647 A    
C157  C181  1.485592 S    
C44   C52   1.400849 A    
C45   C53   1.401374 A    
C105  C145  1.416960 A    
C143  C151  1.393539 A    
C145  H77   1.082266 S    
O54   H89   1.013889 S    
C48   C56   1.403256 A    
C102  C126  1.417121 A    
C177  C178  1.396755 A    
Zn14  O2    1.960028 S    
O66   H95   1.013467 S    
C78   C94   1.408681 A    
C122  H62   1.081200 S    
Zn13  O49   1.953044 S    
C157  C158  1.413712 A    
C28   H12   1.113598 S    
C49   C185  1.484801 S    
C81   C113  1.413682 A    
C63   H51   1.083260 S    
Zn12  O27   1.941737 S    
C35   C39   1.553182 S    
C187  O66   1.395701 S    
C85   C117  1.415170 A    
C179  Cl4   1.759224 S    
O16   C12   1.285087 A    
C61   C69   1.393276 A    
C30   C40   1.549913 S    
Zn3   O2    1.952922 S    
C127  C135  1.393004 A    
H27   C36   1.112981 S    
O10   C6    1.284612 A    
C17   C166  1.475482 S    
O46   C24   1.280344 A    
O47   C24   1.279842 A    
Zn16  O52   1.940567 S    
C100  C124  1.418202 A    
H30   C138  1.082642 S    
C104  C108  1.408938 A    
Zn8   O45   1.945979 S    
C41   C49   1.402222 A    
C124  H64   1.081444 S    
O27   C6    1.281962 A    
C47   C87   1.418817 A    
C125  H65   1.082250 S    
C183  O58   1.398686 S    
O39   C19   1.289220 A    
C62   H50   1.083836 S    
C131  C143  1.389204 A    
C29   C31   1.535187 S    
C131  H75   1.082686 S    
C73   C85   1.408434 A    
O24   C1    1.280920 A    
C76   C88   1.410713 A    
C57   H45   1.083256 S    
C77   C81   1.409263 A    
C79   C95   1.412888 A    
C80   C84   1.406817 A    
O43   C22   1.282917 A    
H18   C174  1.080423 S    
Zn4   O41   1.945979 S    
Zn3   O15   1.934051 S    
Zn5   O12   1.941141 S    
Zn6   O11   1.927482 S    
C101  C105  1.410594 A    
C126  H66   1.081765 S    
Zn9   O21   1.935318 S    
Zn14  O50   1.940567 S    
H17   C173  1.082339 S    
O35   C14   1.282965 A    
C190  O71   1.223576 D    
Zn12  O40   1.953000 S    
Zn9   O1    1.960327 S    
H20   C176  1.079767 S    
H36   C144  1.082685 S    
O52   C20   1.286870 A    
C55   C59   1.396860 A    
C126  C134  1.392974 A    
C29   H13   1.113583 S    
C66   H54   1.081475 S    
C177  Cl2   1.759074 S    
C188  O67   1.223371 D    
O44   C21   1.278203 A    
O22   C3    1.272597 A    
C140  C148  1.393036 A    
Zn7   O19   1.934051 S    
C111  C119  1.415121 A    
C12   C116  1.484542 S    
Zn13  O32   1.934464 S    
C144  C152  1.393020 A    
C2    C92   1.453658 S    
O15   C11   1.281566 A    
Zn14  O31   1.935568 S    
C123  C131  1.393337 A    
C186  O63   1.223652 D    
C134  C138  1.388950 A    
O51   C19   1.270059 A    
C106  C114  1.417737 A    
C27   H11   1.107004 S    
C189  O69   1.223413 D    
Zn4   O5    1.934005 S    
C103  C127  1.417848 A    
O20   C16   1.271540 A    
C169  C173  1.415328 A    
C5    C95   1.450183 S    
C26   C38   1.555414 S    
O23   C2    1.274803 A    
O6    C2    1.271755 A    
Zn11  O25   1.935318 S    
Zn10  O38   1.953000 S    
C155  H87   1.083499 S    
C124  C132  1.392864 A    
C54   C58   1.395350 A    
O14   C10   1.279413 A    
O45   C23   1.278523 A    
C128  C136  1.392534 A    
C155  C164  1.412294 A    
C107  C147  1.418393 A    
C182  O55   1.223419 D    
O17   C13   1.271887 A    
H22   C34   1.112856 S    
O76   H100  1.013630 S    
