data_mof_unit_22703.cif
_audit_creation_date              2013-03-05T16:44:41-0500
_audit_creation_method            fapswitch 2.2
_symmetry_space_group_name_H-M    P1
_symmetry_Int_Tables_number       1
_space_group_crystal_system       triclinic
_cell_length_a                    27.738615
_cell_length_b                    10.654063
_cell_length_c                    9.851949
_cell_angle_alpha                 89.733562
_cell_angle_beta                  90.016491
_cell_angle_gamma                 89.967616
_cell_volume                      2911.50409246

loop_
_atom_site_label
_atom_site_type_symbol
_atom_site_description
_atom_site_fract_x
_atom_site_fract_y
_atom_site_fract_z
_atom_type_partial_charge
O1    O     O_R   0.500010 0.316790 0.614690 -0.615216
O2    O     O_R   0.500000 0.316760 0.385350 -0.576125
C1    C     C_R   0.502064 0.259948 0.500312 0.865268
O3    O     O_R   0.428760 0.500040 0.614660 -0.617385
O4    O     O_R   0.428750 0.500000 0.385310 -0.625098
C2    C     C_R   0.406001 0.500910 0.499929 0.862029
Zn1   Zn    Zn3+2 0.500000 0.500020 0.653130 0.959161
Zn2   Zn    Zn3+2 0.500000 0.499980 0.346870 0.969319
O5    O     O_R   0.500000 0.683240 0.614650 -0.624118
O6    O     O_R   0.499990 0.683210 0.385310 -0.628586
O7    O     O_R   0.571250 0.500000 0.614690 -0.583064
O8    O     O_R   0.571240 0.499960 0.385340 -0.640380
C3    C     C_R   0.501665 0.740064 0.499723 0.875735
C4    C     C_R   0.593914 0.501069 0.499979 0.925086
C5    C     C_R   0.177984 0.397689 0.499597 0.500701
O9    O     O_2   0.203202 0.289253 0.502867 -0.556434
N1    N     N_R   0.201688 0.509593 0.497724 -0.365886
C6    C     C_R   0.177921 0.621680 0.494080 0.531741
C7    C     C_R   0.277697 0.509173 0.621876 -0.104129
C8    C     C_R   0.327772 0.507014 0.622585 -0.220005
C9    C     C_R   0.328049 0.505827 0.376014 -0.232005
C10   C     C_R   0.278003 0.507964 0.375607 -0.112072
C11   C     C_R   0.252952 0.509192 0.498449 0.327161
C12   C     C_R   0.101857 0.509285 0.494081 -0.119365
C13   C     C_R   0.127687 0.395254 0.498121 0.008420
C14   C     C_R   0.103008 0.281223 0.499543 -0.139644
C15   C     C_R   0.127195 0.624498 0.491835 -0.144119
C16   C     C_R   0.353313 0.504178 0.499575 -0.037368
H1    H     H_    0.346818 0.505958 0.279885 0.143903
H2    H     H_    0.258615 0.508542 0.280183 0.128811
H3    H     H_    0.122199 0.192649 0.500305 0.193957
C17   C     C_R   0.646523 0.501881 0.499148 -0.200145
C18   C     C_R   0.974953 0.390330 0.508296 0.043528
C19   C     C_R   0.974060 0.620059 0.474356 0.078135
C20   C     C_R   0.949276 0.504539 0.491070 0.076375
C21   C     C_R   0.948566 0.279104 0.534025 -0.216638
C22   C     C_R   0.898592 0.279407 0.536582 -0.137068
C23   C     C_R   0.873075 0.390377 0.513749 -0.033378
C24   C     C_R   0.898229 0.503267 0.490743 -0.056464
C25   C     C_R   0.872235 0.614941 0.467709 -0.030117
C26   C     C_R   0.821841 0.611548 0.467834 0.541890
N2    N     N_R   0.798341 0.501021 0.491517 -0.323050
C27   C     C_R   0.822668 0.391557 0.514808 0.569905
C28   C     C_R   0.721437 0.445804 0.385710 0.600763
C29   C     C_R   0.670916 0.449222 0.388421 -0.424820
C30   C     C_R   0.672637 0.557221 0.605824 0.454110
C31   C     C_R   0.722841 0.553914 0.603015 -0.296568
C32   C     C_R   0.746964 0.500250 0.493205 0.172172
O10   O     O_2   0.798053 0.284606 0.539602 -0.569964
C33   C     C_R   0.025944 0.391104 0.500706 0.064926
C34   C     C_R   0.050771 0.507600 0.492596 0.071331
C35   C     C_R   0.025002 0.622230 0.483977 -0.024911
C36   C     C_R   0.053125 0.278878 0.500279 -0.218381
H4    H     H_    0.650572 0.411195 0.304379 0.187666
H5    H     H_    0.880022 0.191816 0.556661 0.188267
H6    H     H_    0.965416 0.190258 0.556191 0.141086
H7    H     H_    0.036990 0.186997 0.497558 0.140652
O11   O     O_2   0.203593 0.729219 0.492300 -0.495905
C37   C     C_R   0.101298 0.738227 0.487665 0.566291
H8    H     H_    0.346348 0.508091 0.719052 0.151440
H9    H     H_    0.258064 0.510715 0.716846 0.131816
C38   C     C_R   0.946882 0.729677 0.446779 -0.215999
C39   C     C_R   0.896921 0.726962 0.443974 -0.138988
O12   O     O_2   0.796411 0.717518 0.444236 -0.566932
C40   C     C_R   0.051035 0.735910 0.487502 -0.321209
H10   H     H_    0.963163 0.818964 0.423285 0.139348
H11   H     H_    0.877705 0.813503 0.423086 0.189760
H12   H     H_    0.743260 0.594439 0.685667 0.177256
H13   H     H_    0.033391 0.825735 0.494602 0.156352
C41   C     C_R   0.510458 0.062952 0.623570 0.148065
C42   C     C_R   0.510630 0.128657 0.501189 -0.117053
C43   C     C_R   0.520362 0.065475 0.379524 -0.221241
H14   H     H_    0.524585 0.115209 0.284126 0.200223
C44   C     C_R   0.519885 0.935670 0.378896 -0.244253
H15   H     H_    0.523780 0.887106 0.283152 0.171932
C45   C     C_R   0.509954 0.871243 0.500102 -0.101422
C46   C     C_R   0.510010 0.935127 0.622823 0.135391
C47   C     C_3   0.476150 0.926994 0.740397 -0.478915
C48   C     C_3   0.476619 0.069155 0.741441 -0.498075
H16   H     H_    0.440532 0.886709 0.712500 0.208659
H17   H     H_    0.493437 0.884483 0.831492 0.202666
H18   H     H_    0.441208 0.111462 0.714364 0.201826
H19   H     H_    0.494311 0.108146 0.833292 0.212807
C49   C     C_R   0.458197 0.480526 0.071213 0.140404
N3    N     N_R   0.499670 0.499140 0.142800 -0.085125
C50   C     C_R   0.540418 0.529663 0.071853 -0.122663
H20   H     H_    0.573266 0.551813 0.125706 0.153782
C51   C     C_R   0.540447 0.529235 0.927984 -0.135796
H21   H     H_    0.573352 0.550348 0.874124 0.196012
N4    N     N_R   0.499670 0.499180 0.857150 -0.094806
C52   C     C_R   0.458167 0.481398 0.928592 0.142309
C53   C     C_3   0.426739 0.368369 0.922229 -0.582245
C54   C     C_3   0.426551 0.367083 0.076721 0.315374
H22   H     H_    0.390765 0.389533 0.878572 0.161106
H23   H     H_    0.445349 0.287168 0.875940 0.224733
H24   H     H_    0.390919 0.387949 0.122992 0.055339
O13   O     O_3   0.124795 0.852664 0.494490 -0.558385
C55   C     C_3   0.122101 0.912294 0.366511 -0.234135
H25   H     H_    0.084832 0.945156 0.344719 0.127513
H26   H     H_    0.135181 0.850052 0.283707 0.160929
H27   H     H_    0.145802 0.996084 0.367820 0.206552
O14   O     O_3   0.649120 0.612948 0.713673 -0.639631
C56   C     C_3   0.649947 0.744498 0.694986 0.095082
H28   H     H_    0.635947 0.771207 0.592519 0.128935
H29   H     H_    0.687398 0.780627 0.706861 0.163437
C57   C     C_3   0.617789 0.805789 0.801774 -0.349299
H30   H     H_    0.579859 0.775788 0.785608 0.227676
H31   H     H_    0.629199 0.774645 0.904772 0.228524
C58   C     C_3   0.620548 0.948701 0.793749 -0.932022
H32   H     H_    0.657541 0.981078 0.818880 0.271997
H33   H     H_    0.594879 0.990366 0.867438 0.262555
H34   H     H_    0.611007 0.982023 0.690174 0.267746
O15   O     O_3   0.451209 0.262710 0.132433 -0.598347
C59   C     C_3   0.420062 0.157857 0.141726 0.080298
H35   H     H_    0.442832 0.072237 0.135559 0.163063
H36   H     H_    0.393995 0.152487 0.055659 0.128655
C60   C     C_3   0.393189 0.156746 0.277870 -0.348490
H37   H     H_    0.419143 0.169605 0.362203 0.235022
H38   H     H_    0.366810 0.235118 0.281093 0.211993
C61   C     C_3   0.366443 0.033234 0.299801 -0.909752
H39   H     H_    0.339899 0.018042 0.217056 0.267732
H40   H     H_    0.346904 0.036066 0.398102 0.278722
H41   H     H_    0.392331 0.953621 0.302538 0.260902
O16   O     O_3   0.747079 0.399889 0.275450 -0.598131
C62   C     C_3   0.730887 0.278905 0.239447 -0.242167
H42   H     H_    0.698470 0.285156 0.173591 0.153286
H43   H     H_    0.723699 0.218329 0.329760 0.177481
H44   H     H_    0.759602 0.232426 0.179552 0.200396

loop_
_geom_bond_atom_site_label_1
_geom_bond_atom_site_label_2
_geom_bond_distance
_ccdc_geom_bond_type
C17   C29   1.402966 A    
C1    C42   1.418676 S    
C7    C8    1.389212 A    
C12   C15   1.414897 A    
C59   H35   1.111135 S    
C46   C47   1.493701 S    
C61   H39   1.110801 S    
Zn1   O7    2.012440 S    
C30   O14   1.383052 S    
N1    C11   1.421998 S    
C25   C39   1.395126 A    
C44   C45   1.402043 A    
C21   C22   1.386437 A    
Zn2   N3    2.010567 S    
C58   H33   1.110851 S    
C23   C24   1.408294 A    
O7    C4    1.293376 A    
C47   H16   1.112352 S    
C5    C13   1.395495 A    
C57   H30   1.111422 S    
C5    O9    1.350472 S    
C19   C38   1.414941 A    
C18   C21   1.415104 A    
C5    N1    1.361906 A    
C19   C20   1.419039 A    
C26   N2    1.365440 A    
O5    C3    1.282314 A    
C6    O11   1.349386 S    
C2    C16   1.461895 S    
C62   H44   1.109237 S    
C41   C42   1.391368 A    
C49   C52   1.405078 A    
C8    H8    1.081065 S    
C61   H41   1.111266 S    
C12   C34   1.417243 A    
C14   H3    1.083199 S    
O1    Zn1   1.990268 S    
C9    C10   1.388402 A    
C41   C46   1.361972 A    
O3    Zn1   2.012009 S    
C61   H40   1.110452 S    
O13   C55   1.411153 S    
C45   C46   1.390213 A    
C39   H11   1.083590 S    
C33   C36   1.413199 A    
C44   H15   1.083360 S    
C38   H10   1.077466 S    
C34   C35   1.416931 A    
C12   C13   1.410473 A    
O3    C2    1.294498 A    
C58   H34   1.110718 S    
C4    C17   1.459356 S    
C52   C53   1.488599 S    
C36   H7    1.077038 S    
C47   C48   1.514741 S    
C27   O10   1.350043 S    
C54   O15   1.413810 S    
C8    C16   1.404405 A    
C33   C34   1.421687 A    
C18   C33   1.416443 A    
N3    C50   1.367702 A    
Zn1   N4    2.009996 S    
C9    H1    1.080853 S    
C28   O16   1.389311 S    
C53   H23   1.107333 S    
O1    C1    1.283009 A    
C20   C24   1.416046 A    
C22   C23   1.394943 A    
C21   H6    1.076887 S    
C48   H18   1.112371 S    
C31   C32   1.396700 A    
C3    C45   1.416527 S    
Zn2   O8    2.012009 S    
C38   C39   1.386435 A    
C53   H22   1.109125 S    
N1    C6    1.364080 A    
C56   H29   1.114374 S    
N2    C32   1.425256 S    
C49   N3    1.364289 A    
C43   C44   1.383062 A    
C25   C26   1.398348 A    
C9    C16   1.404485 A    
C51   N4    1.367814 A    
C29   H4    1.082242 S    
C54   H24   1.111356 S    
C55   H26   1.114365 S    
C62   H42   1.110470 S    
C37   O13   1.384731 S    
C60   C61   1.525532 S    
N2    C27   1.365508 A    
C14   C36   1.383940 A    
C31   H12   1.083311 S    
C24   C25   1.408325 A    
C28   C29   1.402106 A    
C7    C11   1.396178 A    
O15   C59   1.415262 S    
Zn1   O5    1.986777 S    
C30   C31   1.393296 A    
C10   H2    1.082929 S    
C41   C48   1.495062 S    
C50   H20   1.080991 S    
C17   C30   1.408068 A    
O2    Zn2   1.986778 S    
C6    C15   1.407523 A    
O8    C4    1.292677 A    
C43   H14   1.083200 S    
O6    C3    1.282956 A    
O4    Zn2   2.012443 S    
C59   H36   1.115898 S    
C55   H27   1.109078 S    
C19   C35   1.416396 A    
C60   H38   1.110486 S    
O2    C1    1.282959 A    
C13   C14   1.394841 A    
C42   C43   1.403641 A    
C15   C37   1.408698 A    
C58   H32   1.110996 S    
C37   C40   1.394445 A    
C48   H19   1.111643 S    
C47   H17   1.111858 S    
N4    C52   1.362394 A    
O4    C2    1.293800 A    
C57   H31   1.111997 S    
C7    H9    1.082905 S    
C40   H13   1.077222 S    
C53   C54   1.522063 S    
C18   C20   1.419050 A    
C56   C57   1.528155 S    
C50   C51   1.417424 A    
C49   C54   1.494959 S    
O14   C56   1.412929 S    
C59   C60   1.534687 S    
C22   H5    1.083620 S    
C23   C27   1.398329 A    
C51   H21   1.079197 S    
Zn2   O6    1.990267 S    
C55   H25   1.111836 S    
C56   H28   1.117081 S    
C62   H43   1.114832 S    
C10   C11   1.395810 A    
C26   O12   1.350131 S    
C60   H37   1.108243 S    
C35   C40   1.411011 A    
C28   C32   1.401832 A    
O16   C62   1.412026 S    
C57   C58   1.526236 S    
