data_mof_unit_20118.cif
_audit_creation_date              2012-12-11T15:32:14-0500
_audit_creation_method            fapswitch 2.2
_symmetry_space_group_name_H-M    P1
_symmetry_Int_Tables_number       1
_space_group_crystal_system       triclinic
_cell_length_a                    13.627616
_cell_length_b                    13.685803
_cell_length_c                    27.618361
_cell_angle_alpha                 90.415616
_cell_angle_beta                  90.021767
_cell_angle_gamma                 120.017308
_cell_volume                      4459.91780018

loop_
_atom_site_label
_atom_site_type_symbol
_atom_type_description
_atom_site_fract_x
_atom_site_fract_y
_atom_site_fract_z
_atom_type_partial_charge
C1    C     C_R   0.619570 0.898692 0.431351 0.543100
C2    C     C_R   0.246878 0.939700 0.260375 -0.086346
C3    C     C_3   0.387679 0.141825 0.201548 -0.445412
C4    C     C_3   0.437272 0.673439 0.292016 -0.280404
C5    C     C_3   0.368651 0.733466 0.296569 -0.422140
C6    C     C_R   0.231869 0.932363 0.209531 0.032424
C7    C     C_R   0.599776 0.218401 0.431397 0.544480
C8    C     C_R   0.084033 0.735409 0.218913 -0.122260
C9    C     C_R   0.099874 0.744336 0.268965 -0.121727
C10   C     C_R   0.181061 0.846328 0.289801 0.011904
C11   C     C_R   0.149383 0.828083 0.189043 0.032471
C12   C     C_1   0.126200 0.813629 0.137617 -0.070902
C13   C     C_1   0.203986 0.853520 0.341016 -0.068586
C14   C     C_1   0.097715 0.794498 0.095668 -0.019837
C15   C     C_R   0.657450 0.415156 0.220991 -0.115081
C16   C     C_1   0.635102 0.865795 0.383891 -0.020578
C17   C     C_R   0.547173 0.745652 0.264779 0.046173
C18   C     C_R   0.553499 0.737267 0.213392 0.047819
C19   C     C_R   0.279880 0.878967 0.430618 0.542806
C20   C     C_R   0.753342 0.882904 0.216745 -0.131726
C21   C     C_R   0.747033 0.891646 0.266625 -0.132841
C22   C     C_R   0.645492 0.824157 0.290862 0.029062
C23   C     C_R   0.658072 0.807080 0.189947 0.029442
C24   C     C_1   0.673140 0.797483 0.138723 -0.065355
C25   C     C_1   0.641964 0.844243 0.342074 -0.065573
C26   C     C_R   0.649473 0.399298 0.271060 -0.111791
C27   C     C_1   0.691751 0.787193 0.096900 -0.020933
C28   C     C_R   0.622784 0.253532 0.618258 0.047615
C29   C     C_R   0.721445 0.349803 0.633459 -0.140669
C30   C     C_R   0.740415 0.372168 0.682739 -0.129128
C31   C     C_R   0.620538 0.900901 0.568602 0.529573
C32   C     C_R   0.662533 0.296380 0.716169 0.030069
C33   C     C_R   0.568573 0.195967 0.700438 -0.148285
C34   C     C_R   0.546882 0.176321 0.651621 -0.126854
C35   C     C_R   0.586736 0.338217 0.789605 0.003464
C36   C     C_R   0.592469 0.356503 0.839352 -0.110678
C37   C     C_R   0.670009 0.317959 0.291541 0.031750
C38   C     C_R   0.765582 0.349171 0.845200 -0.137569
C39   C     C_R   0.762201 0.328195 0.795543 0.011179
C40   C     C_R   0.672391 0.323125 0.767658 0.043497
C41   C     C_R   0.684652 0.369298 0.866421 -0.011495
C42   C     C_R   0.230424 0.867207 0.616423 0.032464
C43   C     C_R   0.600688 0.221787 0.568323 0.531336
C44   C     C_R   0.155480 0.906804 0.628874 0.012410
C45   C     C_R   0.130645 0.910386 0.677889 -0.115148
C46   C     C_R   0.173263 0.870061 0.713777 0.010275
C47   C     C_R   0.245952 0.829918 0.700883 -0.141659
C48   C     C_R   0.685279 0.349329 0.191131 0.028016
C49   C     C_R   0.274295 0.828536 0.652803 -0.154106
C50   C     C_R   0.062600 0.736255 0.777414 0.042466
C51   C     C_R   0.070975 0.707467 0.825312 0.019928
C52   C     C_R   0.146329 0.903579 0.848476 -0.136802
C53   C     C_R   0.170052 0.935417 0.799663 0.000633
C54   C     C_R   0.128886 0.849749 0.763613 0.026223
C55   C     C_R   0.280181 0.881777 0.568252 0.523482
C56   C     C_R   0.096420 0.789919 0.861834 -0.013268
C57   C     C_R   0.627980 0.875946 0.618692 0.045984
C58   C     C_R   0.587227 0.922261 0.653190 -0.122224
C59   C     C_1   0.693230 0.367457 0.139735 -0.067303
C60   C     C_R   0.585069 0.896528 0.701694 -0.148074
C61   C     C_R   0.624172 0.824324 0.715867 0.039964
C62   C     C_R   0.663404 0.776135 0.681299 -0.126039
C63   C     C_R   0.664645 0.801465 0.632432 -0.151963
C64   C     C_R   0.745408 0.880047 0.787829 -0.000944
C65   C     C_R   0.765421 0.862817 0.834964 -0.136192
C66   C     C_R   0.565083 0.726563 0.846931 0.012175
C67   C     C_1   0.632389 0.266219 0.384140 -0.015543
C68   C     C_R   0.545637 0.734003 0.796349 0.029193
C69   C     C_R   0.637889 0.810975 0.767410 0.038003
C70   C     C_1   0.652652 0.294467 0.342455 -0.062667
C71   C     C_R   0.678775 0.785110 0.864646 -0.001050
C72   C     C_R   0.048991 0.760861 0.048164 0.544345
C73   C     C_R   0.714191 0.436008 0.049667 0.545255
C74   C     C_R   0.723467 0.770577 0.049425 0.544454
C75   C     C_R   0.044201 0.755354 0.910234 0.534759
C76   C     C_R   0.707172 0.427813 0.912872 0.542635
C77   C     C_R   0.716546 0.765646 0.912010 0.533614
C78   C     C_R   0.698833 0.252740 0.261738 -0.115809
C79   C     C_R   0.706751 0.268574 0.211596 -0.116574
C80   C     C_3   0.451381 0.654503 0.183365 -0.273768
C81   C     C_1   0.701218 0.391806 0.097538 -0.017734
C82   C     C_3   0.449200 0.542506 0.176935 -0.438930
C83   C     C_3   0.494367 0.341210 0.759188 -0.274323
C84   C     C_3   0.422584 0.382317 0.785323 -0.469735
C85   C     C_3   0.859105 0.319118 0.773471 -0.278690
C86   C     C_3   0.821365 0.202319 0.753403 -0.440321
C87   C     C_3   0.097617 0.941919 0.591499 -0.272160
C88   C     C_3   0.969485 0.861532 0.590777 -0.451591
C89   C     C_3   0.977581 0.648418 0.742416 -0.270679
C90   C     C_3   0.886165 0.676890 0.728456 -0.445605
C91   C     C_3   0.064202 0.595090 0.835755 -0.264789
C92   C     C_1   0.231990 0.862497 0.382967 -0.018406
C93   C     C_3   0.132095 0.567293 0.799666 -0.475098
C94   C     C_3   0.233406 0.059601 0.787414 -0.276261
C95   C     C_3   0.174928 0.121341 0.808438 -0.453960
C96   C     C_3   0.840294 0.977716 0.761347 -0.288170
C97   C     C_3   0.923299 0.947596 0.739775 -0.458214
C98   C     C_3   0.426886 0.669032 0.773904 -0.275500
C99   C     C_3   0.416952 0.599367 0.728513 -0.439855
C100  C     C_3   0.466180 0.667239 0.882062 -0.274139
C101  C     C_3   0.402680 0.732404 0.888451 -0.450320
C102  C     C_3   0.301233 0.032077 0.176418 -0.279221
Cr1   Cr    Cr6+3 0.417720 0.831920 0.499820 1.018647
Cr2   Cr    Cr6+3 0.668190 0.085770 0.500360 1.023932
Cr3   Cr    Cr6+3 0.414060 0.082260 0.499840 1.012884
Cr4   Cr    Cr6+3 0.908000 0.821090 0.979770 1.016604
Cr5   Cr    Cr6+3 0.912420 0.571130 0.979880 1.010317
Cr6   Cr    Cr6+3 0.657970 0.566940 0.980940 1.006952
H1    H     H_    0.821852 0.952415 0.286430 0.119463
H2    H     H_    0.525455 0.555371 0.156974 0.163020
H3    H     H_    0.370628 0.639405 0.199525 0.140684
H4    H     H_    0.453075 0.689994 0.147126 0.147039
H5    H     H_    0.833592 0.935543 0.198897 0.120603
H6    H     H_    0.781949 0.407363 0.607495 0.102479
H7    H     H_    0.476857 0.469779 0.799179 0.165920
H8    H     H_    0.358913 0.380149 0.759719 0.136935
H9    H     H_    0.375468 0.326231 0.815762 0.144538
H10   H     H_    0.534892 0.398231 0.727973 0.155293
H11   H     H_    0.435620 0.255685 0.744711 0.145375
H12   H     H_    0.529421 0.369455 0.857072 0.146199
H13   H     H_    0.815256 0.447710 0.694494 0.102888
H14   H     H_    0.774629 0.138274 0.781629 0.154868
H15   H     H_    0.766976 0.182475 0.720884 0.173936
H16   H     H_    0.898403 0.200043 0.742252 0.127475
H17   H     H_    0.900614 0.381845 0.744500 0.132824
H18   H     H_    0.925835 0.337889 0.801044 0.134266
H19   H     H_    0.835043 0.356316 0.866996 0.114330
H20   H     H_    0.510029 0.135073 0.726059 0.106210
H21   H     H_    0.728553 0.217449 0.188869 0.113323
H22   H     H_    0.471915 0.099541 0.639740 0.122995
H23   H     H_    0.074922 0.941009 0.687592 0.108554
H24   H     H_    0.950268 0.773567 0.583975 0.154219
H25   H     H_    0.930863 0.865228 0.625573 0.141174
H26   H     H_    0.930454 0.886005 0.561444 0.146685
H27   H     H_    0.115624 0.028902 0.599926 0.142418
H28   H     H_    0.128305 0.942649 0.554332 0.164621
H29   H     H_    0.854303 0.700157 0.761052 0.164548
H30   H     H_    0.920361 0.746492 0.702165 0.148467
H31   H     H_    0.812801 0.604084 0.710910 0.129890
H32   H     H_    0.020311 0.641145 0.709488 0.148516
H33   H     H_    0.932684 0.564602 0.759622 0.143717
H34   H     H_    0.278959 0.797440 0.728158 0.106529
H35   H     H_    0.087597 0.536785 0.764539 0.141646
H36   H     H_    0.214768 0.643873 0.793215 0.148094
H37   H     H_    0.146535 0.500222 0.814450 0.128278
H38   H     H_    0.103420 0.597520 0.871151 0.177553
H39   H     H_    0.974903 0.527091 0.836201 0.151558
H40   H     H_    0.081980 0.065367 0.810817 0.159063
H41   H     H_    0.207456 0.153036 0.845499 0.136815
H42   H     H_    0.191438 0.193807 0.785251 0.134652
H43   H     H_    0.320895 0.098315 0.802264 0.145758
H44   H     H_    0.240964 0.072651 0.747723 0.145810
H45   H     H_    0.556491 0.977927 0.642278 0.111501
H46   H     H_    0.167774 0.967433 0.876292 0.126168
H47   H     H_    0.333160 0.799578 0.644168 0.134185
H48   H     H_    0.641165 0.478220 0.205506 0.111363
H49   H     H_    0.949795 0.905725 0.766803 0.168156
H50   H     H_    0.884541 0.891696 0.707986 0.148934
H51   H     H_    0.998553 0.026757 0.727615 0.136365
H52   H     H_    0.807708 0.007456 0.731610 0.166649
H53   H     H_    0.886945 0.049282 0.787094 0.131632
H54   H     H_    0.851704 0.912032 0.848326 0.145661
H55   H     H_    0.556166 0.935072 0.728264 0.107007
H56   H     H_    0.694225 0.763957 0.605698 0.098491
H57   H     H_    0.425224 0.647847 0.695254 0.165108
H58   H     H_    0.482181 0.573508 0.728238 0.159074
H59   H     H_    0.331447 0.522995 0.726754 0.126374
H60   H     H_    0.364433 0.609102 0.799659 0.143998
H61   H     H_    0.399795 0.730705 0.764490 0.127438
H62   H     H_    0.460219 0.816846 0.904567 0.154811
H63   H     H_    0.369530 0.744275 0.853741 0.149922
H64   H     H_    0.329948 0.685615 0.913247 0.139775
H65   H     H_    0.408147 0.578766 0.870458 0.126628
H66   H     H_    0.493328 0.660649 0.918892 0.169164
H67   H     H_    0.713430 0.188527 0.277190 0.115577
H68   H     H_    0.694299 0.720581 0.692417 0.108165
H69   H     H_    0.625828 0.449218 0.293647 0.111414
H70   H     H_    0.310157 0.016977 0.277651 0.118178
H71   H     H_    0.344724 0.171405 0.226991 0.148934
H72   H     H_    0.451840 0.129711 0.221210 0.164971
H73   H     H_    0.432157 0.208133 0.173928 0.152962
H74   H     H_    0.347558 0.008022 0.150209 0.148584
H75   H     H_    0.242171 0.049669 0.155482 0.151224
H76   H     H_    0.020390 0.655592 0.203352 0.122195
H77   H     H_    0.049723 0.671305 0.291347 0.118744
H78   H     H_    0.446737 0.504587 0.212643 0.141494
H79   H     H_    0.416907 0.813271 0.317568 0.166255
H80   H     H_    0.348243 0.753161 0.260288 0.155349
H81   H     H_    0.288123 0.678312 0.315770 0.148706
H82   H     H_    0.385080 0.589801 0.274481 0.137069
H83   H     H_    0.455027 0.653746 0.328826 0.149891
H84   H     H_    0.372750 0.482786 0.155869 0.141214
O1    O     O_R   0.302900 0.805360 0.446400 -0.507611
O2    O     O_R   0.638120 0.455970 0.034270 -0.511478
O3    O     O_R   0.667540 0.672320 0.030160 -0.499566
O4    O     O_R   0.522090 0.841370 0.450730 -0.496128
O5    O     O_R   0.814460 0.840990 0.926980 -0.521874
O6    O     O_R   0.001710 0.811400 0.930110 -0.498011
O7    O     O_R   0.023410 0.659800 0.926210 -0.531445
O8    O     O_R   0.806940 0.473170 0.931090 -0.503212
O9    O     O_R   0.633420 0.451310 0.927930 -0.525475
O10   O     O_R   0.663190 0.668000 0.931580 -0.507053
O11   O     O_3   0.826130 0.653050 0.980200 -0.241258
O12   O     O_R   0.657980 0.180990 0.549630 -0.498785
O13   O     O_R   0.693280 0.995650 0.447220 -0.507229
O14   O     O_R   0.657260 0.178740 0.451050 -0.494781
O15   O     O_R   0.502640 0.195380 0.446850 -0.506798
O16   O     O_R   0.319630 0.976590 0.450330 -0.495657
O17   O     O_R   0.303680 0.807790 0.552740 -0.513969
O18   O     O_R   0.522820 0.843620 0.549310 -0.500892
O19   O     O_R   0.694060 0.998080 0.553560 -0.510413
O20   O     O_R   0.503420 0.197810 0.553190 -0.515746
O21   O     O_R   0.320350 0.978840 0.548910 -0.511319
O22   O     O_3   0.499990 0.999990 0.500010 -0.252026
O23   O     O_R   0.819150 0.845650 0.033320 -0.505962
O24   O     O_R   0.006060 0.815720 0.028680 -0.495371
O25   O     O_R   0.028100 0.664460 0.032550 -0.508065
O26   O     O_R   0.811290 0.477490 0.029660 -0.493210

loop_
_geom_bond_atom_site_label_1
_geom_bond_atom_site_label_2
_ccdc_geom_bond_type
C8    C9    A    
C66   C68   A    
C87   C88   S    
C74   O23   A    
C85   H17   S    
C35   C36   A    
C72   O24   A    
C24   C27   T    
C29   H6    S    
C77   O10   A    
Cr1   O17   S    
C91   H39   S    
C90   H31   S    
C36   C41   A    
C47   C49   A    
C85   C86   S    
C52   C53   A    
C72   O25   A    
C47   H34   S    
C50   C54   A    
Cr3   O20   S    
C48   C79   A    
C82   H78   S    
C102  H75   S    
C97   H51   S    
C83   H10   S    
C28   C29   A    
C88   H25   S    
Cr6   O11   S    
C9    H77   S    
C86   H15   S    
Cr5   O8    S    
C75   O6    A    
C55   O17   A    
C78   H67   S    
C52   H46   S    
C79   H21   S    
C60   H55   S    
C96   H53   S    
C101  H64   S    
C17   C18   A    
C51   C56   A    
C46   C47   A    
C83   H11   S    
C3    H71   S    
Cr6   O10   S    
C19   C92   S    
C51   C91   S    
Cr4   O11   S    
Cr5   O25   S    
C98   H61   S    
C66   C71   A    
C53   C54   A    
C68   C69   A    
C22   C25   S    
C65   H54   S    
C86   H14   S    
C23   C24   S    
C20   C23   A    
C93   H37   S    
C95   H41   S    
Cr2   O14   S    
C30   C32   A    
C44   C87   S    
C1    O13   A    
C9    C10   A    
C61   C62   A    
C93   H35   S    
Cr4   O6    S    
C99   H58   S    
C8    H76   S    
C32   C40   S    
C28   C34   A    
C84   H8    S    
C56   C75   S    
C21   C22   A    
C4    H83   S    
C80   H4    S    
C85   H18   S    
C2    C6    A    
C86   H16   S    
C42   C44   A    
C15   C48   A    
C7    O14   A    
Cr1   O18   S    
C73   C81   S    
C90   H30   S    
C57   C63   A    
C94   H44   S    
C99   H59   S    
C63   H56   S    
Cr3   O21   S    
C18   C23   A    
C102  H74   S    
C4    H82   S    
C1    O4    A    
C38   C39   A    
C64   C96   S    
C38   C41   A    
C7    O15   A    
C76   O8    A    
C39   C40   A    
C95   H42   S    
C35   C83   S    
C78   C79   A    
C84   H9    S    
C15   C26   A    
C94   H43   S    
C65   C71   A    
C66   C100  S    
C33   H20   S    
C73   O2    A    
C60   C61   A    
C88   H24   S    
C97   H49   S    
C3    H72   S    
Cr2   O13   S    
Cr5   O11   S    
C29   C30   A    
Cr4   O23   S    
C58   H45   S    
C87   H27   S    
C42   C55   S    
C91   C93   S    
Cr5   O26   S    
C50   C89   S    
C83   C84   S    
C30   H13   S    
C89   H32   S    
C62   H68   S    
C96   C97   S    
C46   C54   S    
C62   C63   A    
C50   C51   A    
C101  H62   S    
C1    C16   S    
C64   C69   A    
Cr6   O3    S    
C43   O20   A    
C3    H73   S    
Cr1   O22   S    
C15   H48   S    
C93   H36   S    
Cr4   O5    S    
C4    C17   S    
C3    C102  S    
C80   C82   S    
C96   H52   S    
C12   C14   T    
C45   H23   S    
C84   H7    S    
C6    C11   A    
C13   C92   T    
C100  H66   S    
C19   O16   A    
Cr1   O4    S    
C39   C85   S    
Cr6   O2    S    
C27   C74   S    
Cr2   O12   S    
C71   C77   S    
C90   H29   S    
C44   C45   A    
C43   O12   A    
Cr3   O16   S    
C26   H69   S    
C61   C69   S    
C16   C25   T    
C74   O3    A    
Cr3   O22   S    
C82   H84   S    
C53   C94   S    
C76   O9    A    
C14   C72   S    
C87   H28   S    
C49   H47   S    
C95   H40   S    
C59   C81   T    
C4    C5    S    
C10   C13   S    
C55   O21   A    
C21   H1    S    
C11   C12   S    
C48   C59   S    
C26   C37   A    
C19   O1    A    
C75   O7    A    
Cr4   O24   S    
C37   C78   A    
C28   C43   S    
C17   C22   A    
C5    H80   S    
Cr3   O15   S    
C64   C65   A    
C67   C70   T    
C35   C40   A    
C5    H81   S    
C32   C33   A    
C97   H50   S    
Cr5   O7    S    
C31   C57   S    
C57   C58   A    
C20   H5    S    
C31   O18   A    
C77   O5    A    
C8    C11   A    
C89   H33   S    
C80   H3    S    
C100  C101  S    
C88   H26   S    
C33   C34   A    
C73   O26   A    
C101  H63   S    
C6    C102  S    
C94   C95   S    
C36   H12   S    
C68   C98   S    
Cr6   O9    S    
C42   C49   A    
Cr2   O22   S    
C45   C46   A    
C31   O19   A    
C20   C21   A    
C34   H22   S    
C18   C80   S    
C98   C99   S    
C7    C67   S    
C100  H65   S    
C5    H79   S    
C82   H2    S    
C38   H19   S    
C2    H70   S    
Cr2   O19   S    
C99   H57   S    
C89   C90   S    
C37   C70   S    
C58   C60   A    
C91   H38   S    
C98   H60   S    
C52   C56   A    
Cr1   O1    S    
C41   C76   S    
C2    C10   A    
