data_mof_unit_40561.cif
_audit_creation_date              2012-12-11T17:36:09-0500
_audit_creation_method            fapswitch 2.2
_symmetry_space_group_name_H-M    P1
_symmetry_Int_Tables_number       1
_space_group_crystal_system       triclinic
_cell_length_a                    25.822505
_cell_length_b                    6.914027
_cell_length_c                    21.699166
_cell_angle_alpha                 90.000872
_cell_angle_beta                  95.959055
_cell_angle_gamma                 90.00029
_cell_volume                      3853.18038049

loop_
_atom_site_label
_atom_site_type_symbol
_atom_type_description
_atom_site_fract_x
_atom_site_fract_y
_atom_site_fract_z
_atom_type_partial_charge
O1    O     O_R   0.208650 0.594520 0.175450 -0.534688
O2    O     O_R   0.791350 0.405480 0.824550 -0.534924
O3    O     O_R   0.291350 0.094520 0.324550 -0.534688
O4    O     O_R   0.708650 0.905480 0.675450 -0.534924
O5    O     O_R   0.192980 0.260780 0.300160 -0.540239
O6    O     O_R   0.807020 0.739220 0.699840 -0.538522
O7    O     O_R   0.307020 0.760780 0.199840 -0.540239
O8    O     O_R   0.692980 0.239220 0.800160 -0.538522
C1    C     C_R   0.179019 0.432827 0.318684 0.689238
C2    C     C_R   0.820812 0.567269 0.681381 0.687549
C3    C     C_R   0.320981 0.932826 0.181316 0.689236
C4    C     C_R   0.679188 0.067269 0.818618 0.687547
O9    O     O_R   0.202550 0.264660 0.174420 -0.537482
O10   O     O_R   0.797450 0.735340 0.825580 -0.538748
O11   O     O_R   0.297450 0.764660 0.325580 -0.537481
O12   O     O_R   0.702550 0.235340 0.674420 -0.538746
O13   O     O_R   0.300990 0.096480 0.197920 -0.538724
O14   O     O_R   0.699010 0.903520 0.802080 -0.536570
O15   O     O_R   0.199010 0.596480 0.302080 -0.538725
O16   O     O_R   0.800990 0.403520 0.697920 -0.536571
C5    C     C_R   0.191157 0.433323 0.151128 0.696976
C6    C     C_R   0.808828 0.566688 0.848881 0.695535
C7    C     C_R   0.308843 0.933326 0.348872 0.696977
C8    C     C_R   0.691172 0.066685 0.651119 0.695537
O17   O     O_3   0.282290 0.427760 0.257860 -0.364430
O18   O     O_3   0.717710 0.572240 0.742140 -0.364035
O19   O     O_3   0.217710 0.927760 0.242140 -0.364432
O20   O     O_3   0.782290 0.072240 0.757860 -0.364036
V1    V     V_3+5 0.244010 0.152080 0.248540 1.410548
V2    V     V_3+5 0.755990 0.847920 0.751460 1.416887
V3    V     V_3+5 0.255990 0.652080 0.251460 1.410547
V4    V     V_3+5 0.744010 0.347920 0.748540 1.416886
C9    C     C_R   0.657554 0.060914 0.591944 -0.042036
C10   C     C_R   0.342471 0.939147 0.408043 -0.042762
C11   C     C_R   0.842446 0.560931 0.908056 -0.042044
C12   C     C_R   0.157528 0.439130 0.091957 -0.042770
C13   C     C_R   0.646909 0.119878 0.481598 -0.162582
C14   C     C_R   0.353110 0.880496 0.518408 -0.161779
C15   C     C_R   0.853098 0.620018 0.018396 -0.162585
C16   C     C_R   0.146883 0.380357 0.981598 -0.161782
C17   C     C_R   0.678528 0.111974 0.537506 -0.168556
C18   C     C_R   0.321493 0.888317 0.462497 -0.168641
C19   C     C_R   0.821477 0.612077 0.962490 -0.168549
C20   C     C_R   0.178502 0.388214 0.037507 -0.168636
C21   C     C_R   0.604142 0.018368 0.590205 -0.216369
C22   C     C_R   0.395888 0.981643 0.409776 -0.215170
C23   C     C_R   0.895856 0.518336 0.909798 -0.216373
C24   C     C_R   0.104114 0.481675 0.090221 -0.215174
C25   C     C_R   0.570641 0.028611 0.533726 0.086782
C26   C     C_R   0.429385 0.971549 0.466263 0.086646
C27   C     C_R   0.929360 0.528622 0.966275 0.086781
C28   C     C_R   0.070615 0.471538 0.033737 0.086645
C29   C     C_R   0.593427 0.080055 0.479237 0.140528
C30   C     C_R   0.406595 0.920235 0.520761 0.140357
C31   C     C_R   0.906578 0.580151 0.020759 0.140527
C32   C     C_R   0.093400 0.420138 0.979243 0.140356
C33   C     C_R   0.515536 0.992246 0.529374 0.058192
C34   C     C_R   0.484488 0.007945 0.470616 0.058035
C35   C     C_R   0.984462 0.492220 0.970627 0.058192
C36   C     C_R   0.015513 0.507970 0.029382 0.058035
C37   C     C_R   0.509607 0.058950 0.418212 -0.187633
C38   C     C_R   0.490414 0.941336 0.581785 -0.188156
C39   C     C_R   0.990399 0.559059 0.081782 -0.187633
C40   C     C_R   0.009581 0.441227 0.918221 -0.188156
C41   C     C_R   0.562798 0.093744 0.422606 -0.202827
C42   C     C_R   0.437220 0.906611 0.577395 -0.202880
C43   C     C_R   0.937209 0.593887 0.077387 -0.202826
C44   C     C_R   0.062772 0.406468 0.922611 -0.202879
H1    H     H_    0.580174 0.133072 0.380966 0.121817
H2    H     H_    0.419840 0.867389 0.619043 0.121618
H3    H     H_    0.919837 0.633281 0.119024 0.121818
H4    H     H_    0.080149 0.367180 0.880967 0.121619
H5    H     H_    0.409969 0.017487 0.366180 0.093737
H6    H     H_    0.590068 0.982362 0.633791 0.093087
H7    H     H_    0.090037 0.517581 0.133814 0.093743
H8    H     H_    0.909926 0.482269 0.866214 0.093094
H9    H     H_    0.280507 0.853377 0.461602 0.102783
H10   H     H_    0.719509 0.147025 0.538410 0.098679
H11   H     H_    0.219485 0.353233 0.038404 0.102786
H12   H     H_    0.780499 0.647169 0.961584 0.098681
H13   H     H_    0.664267 0.159890 0.440030 0.110570
H14   H     H_    0.335747 0.840628 0.559986 0.111364
H15   H     H_    0.835744 0.660096 0.059961 0.110572
H16   H     H_    0.164242 0.340422 0.940023 0.111365
H17   H     H_    0.489211 0.073981 0.372637 0.123249
H18   H     H_    0.510804 0.926393 0.627366 0.122791
H19   H     H_    0.010797 0.574132 0.127354 0.123249
H20   H     H_    0.989187 0.426242 0.872642 0.122791
C45   C     C_R   0.436183 0.807193 0.091554 -0.173754
C46   C     C_R   0.554437 0.153907 0.893952 -0.175578
C47   C     C_R   0.063817 0.307194 0.408446 -0.173754
C48   C     C_R   0.945563 0.653911 0.606048 -0.175580
H21   H     H_    0.462450 0.686865 0.087511 0.120599
H22   H     H_    0.520412 0.246223 0.887046 0.123402
H23   H     H_    0.037550 0.186864 0.412488 0.120599
H24   H     H_    0.979587 0.746230 0.612954 0.123403
C49   C     C_R   0.396680 0.790726 0.131109 -0.190492
C50   C     C_R   0.593938 0.174196 0.854587 -0.190472
C51   C     C_R   0.103320 0.290726 0.368891 -0.190491
C52   C     C_R   0.906061 0.674199 0.645413 -0.190469
H25   H     H_    0.393144 0.657155 0.156398 0.126610
H26   H     H_    0.589489 0.280546 0.817775 0.122488
H27   H     H_    0.106856 0.157153 0.343602 0.126610
H28   H     H_    0.910510 0.780553 0.682225 0.122489
C53   C     C_R   0.362794 0.946088 0.138680 -0.071829
C54   C     C_R   0.638046 0.054412 0.861624 -0.064628
C55   C     C_R   0.137205 0.446090 0.361320 -0.071829
C56   C     C_R   0.861954 0.554409 0.638376 -0.064629
C57   C     C_R   0.369308 0.117730 0.105272 -0.195176
C58   C     C_R   0.642642 0.918148 0.910027 -0.187120
C59   C     C_R   0.130691 0.617734 0.394728 -0.195177
C60   C     C_R   0.857359 0.418142 0.589972 -0.187123
H29   H     H_    0.343542 0.239128 0.110307 0.119923
H30   H     H_    0.676971 0.827164 0.916421 0.107899
H31   H     H_    0.156457 0.739133 0.389693 0.119923
H32   H     H_    0.823029 0.327154 0.583579 0.107902
C61   C     C_R   0.408358 0.134847 0.064738 0.105643
C62   C     C_R   0.604076 0.900897 0.951188 0.111714
C63   C     C_R   0.091641 0.634852 0.435262 0.105644
C64   C     C_R   0.895924 0.400892 0.548812 0.111714
C65   C     C_R   0.442157 0.977306 0.057770 0.112727
C66   C     C_R   0.558925 0.017694 0.942230 0.110106
C67   C     C_R   0.057842 0.477309 0.442230 0.112729
C68   C     C_R   0.941075 0.517693 0.557769 0.110107
C69   C     C_1   0.483413 0.989283 0.016987 -0.068853
C70   C     C_1   0.517560 0.002243 0.982771 -0.078658
C71   C     C_1   0.016587 0.489285 0.483013 -0.068855
C72   C     C_1   0.982439 0.502243 0.517229 -0.078659
C73   C     C_3   0.414316 0.324335 0.031313 -0.382714
C74   C     C_3   0.393045 0.311627 0.962825 -0.295824
C75   C     C_3   0.401249 0.502082 0.929588 -0.769377
H33   H     H_    0.385101 0.490289 0.880280 0.214095
H34   H     H_    0.381134 0.622126 0.951444 0.234918
H35   H     H_    0.443463 0.535666 0.931464 0.224746
H36   H     H_    0.412884 0.194418 0.939339 0.200640
H37   H     H_    0.350697 0.278556 0.959102 0.191300
H38   H     H_    0.392856 0.440513 0.053245 0.176128
H39   H     H_    0.456063 0.366848 0.035793 0.179378
C76   C     C_3   0.613020 0.764118 0.005697 -0.376445
C77   C     C_3   0.580911 0.578478 0.995026 -0.294095
C78   C     C_3   0.587553 0.449077 0.052256 -0.773419
H40   H     H_    0.563196 0.317893 0.044202 0.224485
H41   H     H_    0.628871 0.404187 0.062276 0.229530
H42   H     H_    0.574997 0.526632 0.093009 0.224790
H43   H     H_    0.538927 0.612954 0.984465 0.195738
H44   H     H_    0.593991 0.498829 0.954967 0.206317
H45   H     H_    0.654930 0.724497 0.013903 0.165787
H46   H     H_    0.603135 0.838841 0.048326 0.180253
C79   C     C_3   0.085683 0.824342 0.468687 -0.382714
C80   C     C_3   0.106953 0.811639 0.537176 -0.295827
C81   C     C_3   0.098751 0.002098 0.570413 -0.769384
H47   H     H_    0.114896 0.990307 0.619721 0.214095
H48   H     H_    0.118870 0.122135 0.548558 0.234918
H49   H     H_    0.056538 0.035692 0.568534 0.224749
H50   H     H_    0.087113 0.694435 0.560662 0.200641
H51   H     H_    0.149301 0.778564 0.540900 0.191302
H52   H     H_    0.107144 0.940519 0.446756 0.176129
H53   H     H_    0.043936 0.866853 0.464207 0.179377
C82   C     C_3   0.886981 0.264108 0.494302 -0.376443
C83   C     C_3   0.919090 0.078472 0.504973 -0.294096
C84   C     C_3   0.912448 0.949066 0.447742 -0.773420
H54   H     H_    0.936806 0.817886 0.455796 0.224485
H55   H     H_    0.871130 0.904170 0.437724 0.229530
H56   H     H_    0.925003 0.026619 0.406989 0.224791
H57   H     H_    0.961074 0.112953 0.515532 0.195737
H58   H     H_    0.906011 0.998825 0.545031 0.206317
H59   H     H_    0.845071 0.224482 0.486097 0.165788
H60   H     H_    0.896865 0.338829 0.451673 0.180253

loop_
_geom_bond_atom_site_label_1
_geom_bond_atom_site_label_2
_ccdc_geom_bond_type
C63   C79   S    
C51   H27   S    
O1    C5    A    
O19   V1    S    
C9    C21   A    
C16   H16   S    
O3    C7    A    
C74   H36   S    
C10   C18   A    
C48   H24   S    
C75   H35   S    
C11   C23   A    
C58   C62   A    
C84   H54   S    
C57   C61   A    
C33   C38   A    
C5    C12   S    
O7    C3    A    
C6    C11   S    
C38   H18   S    
C76   H45   S    
C35   C40   A    
C26   C30   A    
C36   C39   A    
C40   C44   A    
O2    V4    S    
O9    V1    S    
C46   C50   A    
C23   H8    S    
C14   C18   A    
C48   C68   A    
C54   C58   A    
O4    C8    A    
C25   C29   A    
C44   H4    S    
O1    V3    S    
O13   V1    S    
C82   H60   S    
C59   C63   A    
C62   C66   A    
C81   H49   S    
O3    V1    S    
C61   C65   A    
C28   C36   A    
C65   C69   S    
C2    C56   S    
C1    O15   A    
C52   H28   S    
C15   C31   A    
C73   H39   S    
C2    O16   A    
C16   C32   A    
C3    C53   S    
C64   C82   S    
C81   H47   S    
C10   C22   A    
C83   H58   S    
C11   C19   A    
C79   H53   S    
C58   H30   S    
C16   C20   A    
C43   H3    S    
C57   H29   S    
C68   C72   S    
C13   C29   A    
C61   C73   S    
C34   C37   A    
O11   C7    A    
O15   V3    S    
C35   C36   A    
O12   C8    A    
C80   H51   S    
C14   H14   S    
C45   H21   S    
C46   C66   A    
C24   H7    S    
C13   H13   S    
O10   V2    S    
C84   H55   S    
C46   H22   S    
O5    V1    S    
O17   V1    S    
C39   C43   A    
C76   H46   S    
C52   C56   A    
O7    V3    S    
C38   C42   A    
O19   V3    S    
O8    V4    S    
O20   V4    S    
C77   C78   S    
C78   H42   S    
C77   H44   S    
C17   H10   S    
C60   C64   A    
O18   V4    S    
C15   C19   A    
C19   H12   S    
C32   C44   A    
C47   H23   S    
C56   C60   A    
C45   C49   A    
C21   H6    S    
C26   C34   A    
C66   C70   S    
O2    C6    A    
C37   C41   A    
C59   H31   S    
C67   C71   S    
C82   C83   S    
C14   C30   A    
C21   C25   A    
O8    C4    A    
C7    C10   S    
O9    C5    A    
C83   H57   S    
C37   H17   S    
O14   V2    S    
O6    V2    S    
O18   V2    S    
C80   H50   S    
C69   C70   T    
C12   C20   A    
C27   C35   A    
C62   C76   S    
C60   H32   S    
C84   H56   S    
C29   C41   A    
C48   C52   A    
C73   C74   S    
O16   V4    S    
C53   C57   A    
C3    O13   A    
C39   H19   S    
C80   C81   S    
C55   C59   A    
O17   V3    S    
C20   H11   S    
C74   H37   S    
O5    C1    A    
C75   H34   S    
C77   H43   S    
O6    C2    A    
C25   C33   A    
C23   C27   A    
C76   C77   S    
O11   V3    S    
C30   C42   A    
C63   C67   A    
O12   V4    S    
C51   C55   A    
C22   C26   A    
C8    C9    S    
C50   C54   A    
C9    C17   A    
C83   C84   S    
O10   C6    A    
C78   H41   S    
C74   C75   S    
C49   C53   A    
C31   C43   A    
C50   H26   S    
C78   H40   S    
C4    C54   S    
C33   C34   A    
C42   H2    S    
C45   C65   A    
C41   H1    S    
O20   V2    S    
C82   H59   S    
C12   C24   A    
C27   C31   A    
C81   H48   S    
C13   C17   A    
C75   H33   S    
C49   H25   S    
C64   C68   A    
C15   H15   S    
C28   C32   A    
C24   C28   A    
C73   H38   S    
C18   H9    S    
C4    O14   A    
C1    C55   S    
C47   C67   A    
C47   C51   A    
C79   C80   S    
C79   H52   S    
C40   H20   S    
C22   H5    S    
O4    V2    S    
C71   C72   T    
