data_mof_unit_27451.cif
_audit_creation_date              2012-12-10T17:00:50-0500
_audit_creation_method            fapswitch 2.2
_symmetry_space_group_name_H-M    P1
_symmetry_Int_Tables_number       1
_space_group_crystal_system       triclinic
_cell_length_a                    10.474582
_cell_length_b                    10.625584
_cell_length_c                    10.079394
_cell_angle_alpha                 92.105897
_cell_angle_beta                  102.117171
_cell_angle_gamma                 89.704904
_cell_volume                      1096.08362011

loop_
_atom_site_label
_atom_site_type_symbol
_atom_type_description
_atom_site_fract_x
_atom_site_fract_y
_atom_site_fract_z
_atom_type_partial_charge
C1    C     C_R   0.501784 0.262450 0.497816 0.902571
C2    C     C_2   0.441534 0.866915 0.498490 -0.214799
C3    C     C_2   0.412135 0.070052 0.394281 -0.219318
C4    C     C_2   0.501219 0.129466 0.489657 -0.280793
C5    C     C_2   0.585326 0.563631 0.944811 0.397300
C6    C     C_2   0.573745 0.575168 0.093693 -0.053325
C7    C     C_R   0.257550 0.492759 0.444735 0.802397
C8    C     C_R   0.484884 0.737093 0.499084 0.876313
C9    C     C_R   0.742227 0.496596 0.555039 0.905471
C10   C     C_2   0.118774 0.461726 0.418445 0.311675
C11   C     C_2   0.074531 0.401467 0.515180 -0.324403
C12   C     C_2   0.882508 0.481304 0.581426 -0.352234
C13   C     C_2   0.936436 0.392482 0.512803 0.098710
C14   C     C_2   0.413780 0.933563 0.383917 -0.009850
H1    H     H_    0.140610 0.369379 0.605628 0.162499
H2    H     H_    0.942740 0.551428 0.646889 0.154344
H3    H     H_    0.343418 0.121894 0.319850 0.154496
H4    H     H_    0.574104 0.080505 0.562398 0.145577
N1    N     N_2   0.501330 0.501330 0.852460 -0.159749
N2    N     N_2   0.501370 0.501360 0.148130 0.055010
O1    O     O_R   0.499980 0.319060 0.613030 -0.611256
O2    O     O_R   0.500020 0.319100 0.386910 -0.605355
O3    O     O_R   0.317800 0.500000 0.570840 -0.643646
O4    O     O_R   0.317840 0.500040 0.344720 -0.584235
O5    O     O_R   0.499980 0.680900 0.613090 -0.620189
O6    O     O_R   0.500020 0.680940 0.386970 -0.601808
O7    O     O_R   0.682160 0.499960 0.655280 -0.551692
O8    O     O_R   0.682200 0.500000 0.429160 -0.607885
Zn1   Zn    Zn3+2 0.499970 0.499970 0.650990 0.972779
Zn2   Zn    Zn3+2 0.500030 0.500030 0.349010 1.001467
C15   C     C_1   0.864315 0.286175 0.440321 0.165100
N3    N     N_1   0.807883 0.200117 0.383464 -0.243775
C16   C     C_1   0.371180 0.515055 0.862967 0.370227
N4    N     N_1   0.263112 0.526557 0.871243 -0.229955
C17   C     C_1   0.656202 0.664526 0.183045 0.234559
N5    N     N_1   0.722865 0.735886 0.254949 -0.185246
O9    O     O_3   0.464493 0.389661 0.082546 -0.551587
C18   C     C_3   0.572245 0.306536 0.105693 0.180246
H5    H     H_    0.628642 0.314663 0.211735 0.186844
H6    H     H_    0.639186 0.327008 0.037157 0.111044
C19   C     C_3   0.523939 0.171896 0.073889 -0.801492
H7    H     H_    0.607371 0.105611 0.096361 0.212200
H8    H     H_    0.452371 0.149006 0.136203 0.260150
H9    H     H_    0.476137 0.160388 0.964830 0.258106
O10   O     O_3   0.034478 0.502710 0.303376 -0.587616
C20   C     C_3   0.033622 0.412894 0.196397 0.063801
H10   H     H_    0.007500 0.317406 0.224709 0.137899
H11   H     H_    0.130198 0.408573 0.166988 0.180422
C21   C     C_3   0.932281 0.450742 0.073447 -0.700016
H12   H     H_    0.957215 0.544285 0.040018 0.276178
H13   H     H_    0.928826 0.380140 0.988747 0.200366
H14   H     H_    0.835028 0.455751 0.100372 0.244460
C22   C     C_1   0.394254 0.877956 0.247716 0.228210
N6    N     N_1   0.378191 0.834190 0.138592 -0.216100
C23   C     C_1   0.417312 0.919800 0.626631 0.183436
N7    N     N_1   0.397964 0.961561 0.728253 -0.216936
O11   O     O_3   0.696981 0.608785 0.908930 -0.601390
C24   C     C_3   0.687656 0.740794 0.894655 0.128682
H15   H     H_    0.717958 0.790708 0.994648 0.137920
H16   H     H_    0.587187 0.771980 0.847689 0.152878
C25   C     C_3   0.780794 0.782610 0.807311 -0.777962
H17   H     H_    0.752108 0.740765 0.703005 0.251667
H18   H     H_    0.778264 0.886777 0.801254 0.197807
H19   H     H_    0.881983 0.753070 0.852519 0.249802

loop_
_geom_bond_atom_site_label_1
_geom_bond_atom_site_label_2
_ccdc_geom_bond_type
C7    C10   S    
C23   N7    T    
C1    O1    A    
O9    C18   S    
C5    N1    D    
C25   H19   S    
C6    N2    D    
C19   H7    S    
C17   N5    T    
C5    O11   S    
C1    C4    S    
C4    H4    S    
C21   H14   S    
C24   C25   S    
O8    Zn2   S    
C16   N4    T    
C1    O2    A    
N2    Zn2   S    
O10   C20   S    
C12   C13   D    
C18   H6    S    
N2    O9    S    
C19   H8    S    
C20   C21   S    
O11   C24   S    
C5    C6    S    
C3    C14   S    
O1    Zn1   S    
C10   O10   S    
C7    O3    A    
O3    Zn1   S    
C19   H9    S    
O6    Zn2   S    
O4    Zn2   S    
C2    C23   S    
O5    Zn1   S    
C25   H17   S    
C2    C14   D    
C9    C12   S    
C20   H11   S    
O7    Zn1   S    
C10   C11   D    
C24   H16   S    
C7    O4    A    
N1    Zn1   S    
C12   H2    S    
C11   C13   S    
C14   C22   S    
C8    O6    A    
C6    C17   S    
C9    O7    A    
C18   C19   S    
C21   H12   S    
N1    C16   S    
C2    C8    S    
C25   H18   S    
C20   H10   S    
O2    Zn2   S    
C24   H15   S    
C22   N6    T    
C11   H1    S    
C13   C15   S    
C8    O5    A    
C3    H3    S    
C3    C4    D    
C15   N3    T    
C9    O8    A    
C21   H13   S    
C18   H5    S    
