data_mof_unit_52007.cif
_audit_creation_date              2013-03-05T15:41:38-0500
_audit_creation_method            fapswitch 2.2
_symmetry_space_group_name_H-M    P1
_symmetry_Int_Tables_number       1
_space_group_crystal_system       triclinic
_cell_length_a                    8.017721
_cell_length_b                    8.577583
_cell_length_c                    15.673653
_cell_angle_alpha                 90.169022
_cell_angle_beta                  89.427822
_cell_angle_gamma                 92.359086
_cell_volume                      1076.94818331

loop_
_atom_site_label
_atom_site_type_symbol
_atom_site_description
_atom_site_fract_x
_atom_site_fract_y
_atom_site_fract_z
_atom_type_partial_charge
O1    O     O_R   0.389240 0.738570 0.505550 -0.567616
O2    O     O_R   0.678400 0.711630 0.491050 -0.606687
C1    C     C_R   0.542949 0.792883 0.494882 0.956904
O3    O     O_R   0.355360 0.513470 0.630110 -0.571100
O4    O     O_R   0.644510 0.486530 0.615610 -0.611288
C2    C     C_R   0.506971 0.499240 0.660687 0.857182
Zn1   Zn    Zn3+2 0.306930 0.517990 0.509680 1.077058
Zn2   Zn    Zn3+2 0.693070 0.482010 0.490320 1.039311
O5    O     O_R   0.321600 0.288370 0.508950 -0.581403
O6    O     O_R   0.610760 0.261430 0.494450 -0.624550
O7    O     O_R   0.355490 0.513470 0.384390 -0.596510
O8    O     O_R   0.644640 0.486530 0.369890 -0.577124
C3    C     C_R   0.455364 0.207102 0.497852 0.825255
C4    C     C_R   0.492859 0.500880 0.339355 0.864396
C5    C     C_3   0.353602 0.592727 0.940372 0.183484
C6    C     C_3   0.669655 0.573909 0.959855 0.091915
C7    C     C_3   0.650618 0.562257 0.059443 0.147276
H1    H     H_    0.420964 0.744342 0.046190 0.153936
H2    H     H_    0.361705 0.705271 0.907136 0.172200
H3    H     H_    0.774930 0.503478 0.939822 0.231810
H4    H     H_    0.671426 0.682491 0.085268 0.167876
C8    C     C_1   0.473024 0.504521 0.250898 -0.011111
C9    C     C_3   0.510427 0.497976 0.916798 -0.205269
C10   C     C_3   0.356179 0.628019 0.039095 0.014853
C11   C     C_3   0.469463 0.507491 0.083216 -0.123146
C12   C     C_3   0.428302 0.340117 0.047272 -0.346683
C13   C     C_3   0.483954 0.328339 0.951767 0.096249
C14   C     C_1   0.461039 0.507191 0.175559 0.176502
C15   C     C_1   0.528242 0.495816 0.824970 0.145422
C16   C     C_1   0.524465 0.496732 0.749371 -0.005847
H5    H     H_    0.383429 0.265305 0.916143 0.206788
H6    H     H_    0.291133 0.318441 0.052112 0.250864
H7    H     H_    0.477041 0.245756 0.086402 0.265486
C17   C     C_2   0.563207 0.956743 0.493073 -0.438252
H8    H     H_    0.684952 0.004731 0.512161 0.199502
C18   C     C_2   0.431460 0.045318 0.481278 0.133806
N1    N     N_2   0.950340 0.457950 0.477370 -0.148201
H9    H     H_    0.008964 0.382958 0.436591 0.224210
N2    N     N_2   0.049660 0.542050 0.522630 -0.141252
H10   H     H_    0.991053 0.617074 0.563393 0.222262
S1    S     S_3+6 0.162802 0.512578 0.894179 0.050794
O9    O     O_2   0.032665 0.624433 0.915813 -0.191240
O10   O     O_2   0.177870 0.508554 0.798640 -0.304852
O11   O     O_3   0.103328 0.332703 0.927640 -0.524937
H11   H     H_    0.012084 0.298114 0.888966 0.426217
N3    N     N_R   0.193997 0.652128 0.079216 0.295124
O12   O     O_R   0.159434 0.592071 0.153460 -0.297137
O13   O     O_R   0.118914 0.777968 0.059107 -0.254735
N4    N     N_R   0.276742 0.987924 0.443910 0.233316
O14   O     O_R   0.134110 0.026981 0.476084 -0.365097
O15   O     O_R   0.278956 0.910220 0.372458 -0.342801
S2    S     S_3+6 0.716366 0.775370 0.924058 0.082752
O16   O     O_2   0.851526 0.849317 0.977799 -0.101812
O17   O     O_2   0.777626 0.771430 0.833061 -0.258040
O18   O     O_3   0.555873 0.895030 0.930337 -0.560005
H12   H     H_    0.532006 0.924655 0.870776 0.390079
S3    S     S_3+6 0.803598 0.453289 0.116862 0.100194
O19   O     O_2   0.949936 0.419441 0.061393 -0.173374
O20   O     O_2   0.856953 0.554171 0.191037 -0.236010
O21   O     O_3   0.728828 0.283654 0.158431 -0.539490
H13   H     H_    0.819535 0.246822 0.194761 0.402362
N5    N     N_R   0.633779 0.236752 0.938065 0.227047
O22   O     O_R   0.685151 0.210014 0.860571 -0.388719
O23   O     O_R   0.706023 0.167170 0.000368 -0.218141

loop_
_geom_bond_atom_site_label_1
_geom_bond_atom_site_label_2
_geom_bond_distance
_ccdc_geom_bond_type
O4    Zn2   1.998732 S    
C5    H2    1.097557 S    
O18   H12   0.990779 S    
C12   H6    1.109699 S    
N1    H9    1.029409 S    
C13   N5    1.475753 S    
C9    C13   1.561938 S    
C15   C16   1.185659 T    
S1    O9    1.482449 D    
C12   H7    1.103502 S    
S2    O18   1.680653 S    
Zn2   O8    1.931719 S    
C6    H3    1.100720 S    
C10   N3    1.460856 S    
S1    O11   1.679933 S    
C4    C8    1.397705 S    
C5    C9    1.565605 S    
O2    C1    1.315116 A    
S3    O19   1.490967 D    
C7    C11   1.550218 S    
N1    N2    1.272285 D    
C8    C14   1.186057 T    
S2    O16   1.498218 D    
O11   H11   0.990244 S    
C11   C14   1.448269 S    
Zn1   O7    1.998732 S    
S1    O10   1.501512 D    
C12   C13   1.561904 S    
N5    O22   1.301403 A    
O3    Zn1   1.931721 S    
H1    C10   1.111550 S    
C9    C15   1.445063 S    
Zn1   N2    2.089267 S    
Zn2   O6    1.979044 S    
C5    C10   1.575982 S    
C2    C16   1.398776 S    
S2    O17   1.504558 D    
N4    O14   1.301286 A    
C6    C9    1.567049 S    
C17   C18   1.340892 D    
O4    C2    1.311866 A    
O7    C4    1.310252 A    
N3    O13   1.298508 A    
S3    O20   1.502312 D    
Zn2   N1    2.089267 S    
C13   H5    1.106811 S    
C10   C11   1.570379 S    
C5    S1    1.808224 S    
C3    C18   1.416664 S    
O3    C2    1.321516 A    
C17   H8    1.088016 S    
C7    S3    1.819172 S    
N2    H10   1.029369 S    
Zn1   O5    1.977913 S    
O5    C3    1.312823 A    
N3    O12   1.296794 A    
C6    C7    1.569912 S    
S3    O21   1.681382 S    
N5    O23   1.299438 A    
C1    C17   1.408556 S    
O1    C1    1.308768 A    
C11   C12   1.564402 S    
O1    Zn1   1.979044 S    
O2    Zn2   1.977914 S    
C18   N4    1.444556 S    
C6    S2    1.841046 S    
O8    C4    1.322667 A    
O21   H13   0.990570 S    
N4    O15   1.301896 A    
O6    C3    1.312764 A    
C7    H4    1.113559 S    
