data_mof_unit_56652.cif
_audit_creation_date              2012-12-10T16:45:22-0500
_audit_creation_method            fapswitch 2.2
_symmetry_space_group_name_H-M    P1
_symmetry_Int_Tables_number       1
_space_group_crystal_system       triclinic
_cell_length_a                    7.459311
_cell_length_b                    8.686974
_cell_length_c                    15.778054
_cell_angle_alpha                 94.252677
_cell_angle_beta                  75.301902
_cell_angle_gamma                 103.218735
_cell_volume                      962.59857979

loop_
_atom_site_label
_atom_site_type_symbol
_atom_type_description
_atom_site_fract_x
_atom_site_fract_y
_atom_site_fract_z
_atom_type_partial_charge
C1    C     C_R   0.545143 0.800093 0.502541 0.867848
C2    C     C_R   0.454928 0.199891 0.497342 0.891657
C3    C     C_R   0.274088 0.422954 0.083111 -0.233932
C4    C     C_R   0.682497 0.673355 0.932357 -0.237573
C5    C     C_R   0.139410 0.398460 0.033468 -0.204001
C6    C     C_R   0.811995 0.719092 0.983621 -0.209951
C7    C     C_2   0.570513 0.968082 0.503652 -0.379724
C8    C     C_2   0.429695 0.031850 0.495983 -0.379314
C9    C     C_R   0.383818 0.494059 0.666943 0.791219
C10   C     C_R   0.616688 0.518969 0.334082 0.788909
C11   C     C_R   0.309666 0.492715 0.764021 -0.068366
C12   C     C_R   0.688735 0.555959 0.240171 -0.085246
C13   C     C_R   0.057569 0.423274 0.896257 -0.229491
C14   C     C_R   0.902632 0.711881 0.118930 -0.210545
C15   C     C_R   0.113354 0.460726 0.806776 0.146038
C16   C     C_R   0.859163 0.668389 0.206689 0.146259
C17   C     C_R   0.440720 0.526820 0.816047 -0.314120
C18   C     C_R   0.566445 0.493737 0.185568 -0.301109
C19   C     C_R   0.383443 0.512383 0.907592 0.086527
C20   C     C_R   0.599565 0.549882 0.100514 0.072416
C21   C     C_R   0.192779 0.442564 0.945806 0.128337
C22   C     C_R   0.773403 0.657645 0.066947 0.119844
C23   C     C_R   0.512257 0.561556 0.961607 0.065618
C24   C     C_R   0.462676 0.507502 0.049028 0.067576
Cu1   Cu    Cu3+1 0.322120 0.483240 0.490330 0.926402
Cu2   Cu    Cu3+1 0.677880 0.516760 0.509670 0.929817
H1    H     H_    0.993427 0.342840 0.063514 0.149453
H2    H     H_    0.941038 0.806482 0.958759 0.143818
H3    H     H_    0.441797 0.404715 0.212415 0.154294
H4    H     H_    0.588531 0.561625 0.784108 0.167925
H5    H     H_    0.908127 0.386241 0.928359 0.141332
H6    H     H_    0.033173 0.796873 0.092581 0.138932
H7    H     H_    0.222469 0.383506 0.149784 0.142274
H8    H     H_    0.711507 0.734100 0.871588 0.156976
H9    H     H_    0.706147 0.039614 0.510853 0.177533
H10   H     H_    0.294096 0.960293 0.488726 0.175907
H11   H     H_    0.009723 0.625854 0.562699 0.230579
H12   H     H_    0.992388 0.377509 0.434841 0.221435
N1    N     N_2   0.945180 0.542040 0.524240 -0.218656
N2    N     N_2   0.054820 0.457960 0.475760 -0.222722
O1    O     O_R   0.384450 0.714270 0.493720 -0.586842
O2    O     O_R   0.615550 0.285730 0.506280 -0.579495
O3    O     O_R   0.684880 0.742590 0.510050 -0.592196
O4    O     O_R   0.315120 0.257410 0.489950 -0.585472
O5    O     O_R   0.265540 0.477900 0.617090 -0.582982
O6    O     O_R   0.734460 0.522100 0.382910 -0.582905
O7    O     O_R   0.565970 0.506210 0.633420 -0.580269
O8    O     O_R   0.434030 0.493790 0.366580 -0.582327
C25   C     C_3   0.986556 0.758197 0.263454 -0.409150
C26   C     C_3   0.140905 0.672434 0.267903 -0.739644
H13   H     H_    0.217278 0.731502 0.317508 0.245114
H14   H     H_    0.244783 0.677457 0.203365 0.243382
H15   H     H_    0.079543 0.546991 0.286160 0.250885
H16   H     H_    0.056995 0.877689 0.236463 0.183043
H17   H     H_    0.903047 0.781272 0.330154 0.216148
C27   C     C_3   0.963917 0.485483 0.763199 -0.353633
C28   C     C_3   0.001392 0.660397 0.739366 -0.830173
H18   H     H_    0.017055 0.737832 0.797261 0.242255
H19   H     H_    0.134375 0.697037 0.688269 0.249465
H20   H     H_    0.883793 0.683257 0.714619 0.227280
H21   H     H_    0.955879 0.406290 0.705288 0.222956
H22   H     H_    0.821464 0.453351 0.808614 0.190384

loop_
_geom_bond_atom_site_label_1
_geom_bond_atom_site_label_2
_ccdc_geom_bond_type
C10   O6    A    
C19   C23   A    
C23   C24   A    
C9    O5    A    
C6    H2    S    
C1    O3    A    
C26   H14   S    
C27   H22   S    
C25   H17   S    
C15   C27   S    
C14   C22   A    
C26   H13   S    
C3    C24   A    
C13   C21   A    
C7    C8    D    
H11   N1    S    
C18   H3    S    
C5    H1    S    
C2    O4    A    
C16   C25   S    
H12   N2    S    
C17   H4    S    
C9    C11   S    
Cu1   O8    S    
C28   H18   S    
C10   C12   S    
Cu2   O7    S    
C2    O2    A    
Cu1   O4    S    
C1    O1    A    
C19   C21   A    
C20   C22   A    
Cu2   O3    S    
C9    O7    A    
C14   C16   A    
C13   C15   A    
Cu1   N2    S    
C10   O8    A    
C20   C24   A    
C4    H8    S    
Cu2   N1    S    
C28   H19   S    
C26   H15   S    
C3    H7    S    
Cu1   O1    S    
C25   H16   S    
C6    C22   A    
Cu1   O5    S    
C7    H9    S    
C5    C21   A    
C27   C28   S    
Cu2   O2    S    
C18   C20   A    
C4    C6    A    
C25   C26   S    
C8    H10   S    
C12   C18   A    
N1    N2    D    
C4    C23   A    
Cu2   O6    S    
C27   H21   S    
C11   C17   A    
C28   H20   S    
C17   C19   A    
Cu1   Cu2   S    
C1    C7    S    
C11   C15   A    
C13   H5    S    
C2    C8    S    
C12   C16   A    
C14   H6    S    
C3    C5    A    
