data_mof_unit_44942.cif
_audit_creation_date              2012-12-11T15:55:51-0500
_audit_creation_method            fapswitch 2.2
_symmetry_space_group_name_H-M    P1
_symmetry_Int_Tables_number       1
_space_group_crystal_system       triclinic
_cell_length_a                    11.138387
_cell_length_b                    11.108338
_cell_length_c                    18.701232
_cell_angle_alpha                 90.274404
_cell_angle_beta                  89.58807
_cell_angle_gamma                 59.386094
_cell_volume                      1991.22391263

loop_
_atom_site_label
_atom_site_type_symbol
_atom_type_description
_atom_site_fract_x
_atom_site_fract_y
_atom_site_fract_z
_atom_type_partial_charge
C1    C     C_R   0.356451 0.777760 0.400434 0.535534
C2    C     C_R   0.617081 0.150286 0.151246 0.025974
C3    C     C_R   0.359480 0.341879 0.159589 0.037359
C4    C     C_R   0.481428 0.239872 0.268698 -0.191345
C5    C     C_R   0.485611 0.247421 0.194039 -0.060063
C6    C     C_R   0.065121 0.695995 0.308828 -0.066202
C7    C     C_R   0.952157 0.791848 0.351170 -0.115143
C8    C     C_R   0.643663 0.191248 0.083959 -0.055636
C9    C     C_R   0.738311 0.091948 0.035156 -0.055456
C10   C     C_R   0.247157 0.450994 0.198980 0.058835
C11   C     C_R   0.247114 0.448104 0.274452 -0.021780
C12   C     C_R   0.388454 0.354545 0.386693 0.534837
C13   C     C_R   0.897385 0.744435 0.403800 -0.123597
C14   C     C_R   0.954865 0.601220 0.413708 -0.089387
C15   C     C_R   0.062361 0.505341 0.368775 -0.065571
C16   C     C_R   0.119957 0.551524 0.315993 0.049201
C17   C     C_R   0.365903 0.340887 0.309650 -0.034162
C18   C     C_R   0.886192 0.337638 0.188206 0.077366
C19   C     C_R   0.756398 0.442528 0.212425 -0.036184
C20   C     C_R   0.726164 0.451048 0.284106 0.023948
C21   C     C_R   0.964888 0.288536 0.311289 -0.096976
C22   C     C_R   0.997014 0.281925 0.237963 0.106898
C23   C     C_R   0.781176 0.377381 0.405018 0.539468
C24   C     C_3   0.614208 0.474956 0.192562 -0.291600
C25   C     C_3   0.584278 0.476337 0.271697 -0.243390
C26   C     C_R   0.825132 0.359776 0.332238 0.042049
C27   C     C_R   0.293937 0.911478 0.188356 0.014155
C28   C     C_R   0.425890 0.846939 0.217693 -0.026770
C29   C     C_R   0.446479 0.820970 0.290197 0.014891
C30   C     C_R   0.200774 0.923675 0.308811 -0.169671
C31   C     C_R   0.179040 0.939683 0.235465 0.046585
C32   C     C_3   0.530976 0.888323 0.211930 -0.270722
C33   C     C_3   0.553278 0.863777 0.291581 -0.273987
C34   C     C_R   0.342612 0.769721 0.603925 0.535735
C35   C     C_R   0.334062 0.858978 0.336489 -0.025465
C36   C     C_R   0.322753 0.315259 0.814563 0.053510
C37   C     C_R   0.396434 0.195645 0.771467 0.060241
C38   C     C_R   0.398365 0.204000 0.698369 0.020778
C39   C     C_R   0.251497 0.456009 0.709107 -0.125662
C40   C     C_R   0.254146 0.446646 0.783360 -0.092651
C41   C     C_3   0.549594 0.092290 0.774719 -0.277343
C42   C     C_3   0.551018 0.095267 0.694630 -0.272827
C43   C     C_R   0.328167 0.334986 0.666145 0.017931
C44   C     C_R   0.789834 0.349246 0.841845 0.003317
C45   C     C_R   0.370464 0.351502 0.595942 0.539261
C46   C     C_R   0.734193 0.482016 0.809438 -0.003661
C47   C     C_R   0.699102 0.501297 0.737668 -0.003563
C48   C     C_R   0.759982 0.261705 0.727498 -0.166504
C49   C     C_R   0.785564 0.244709 0.801537 -0.176396
C50   C     C_3   0.780054 0.588579 0.805091 -0.096755
C51   C     C_3   0.745876 0.604052 0.726671 -0.277582
C52   C     C_R   0.723248 0.389265 0.694074 0.011308
C53   C     C_R   0.310622 0.832086 0.826907 0.018792
C54   C     C_R   0.223489 0.795719 0.791303 0.001251
C55   C     C_R   0.225339 0.788667 0.717379 0.025821
C56   C     C_R   0.703751 0.410160 0.616494 0.565565
C57   C     C_R   0.400929 0.852635 0.712027 -0.155369
C58   C     C_R   0.406580 0.849985 0.786207 -0.146514
C59   C     C_3   0.068386 0.865620 0.794528 -0.273520
C60   C     C_3   0.069942 0.859925 0.713946 -0.277110
C61   C     C_R   0.312129 0.819852 0.676951 0.026443
C62   C     C_R   0.915294 0.315695 0.112833 0.541129
C63   C     C_R   0.328936 0.297408 0.090865 0.538048
C64   C     C_R   0.273011 0.954825 0.112946 0.577208
C65   C     C_R   0.877399 0.313021 0.906476 0.540453
C66   C     C_R   0.300130 0.290299 0.887556 0.560325
C67   C     C_R   0.809480 0.950602 0.052533 -0.045416
C68   C     C_R   0.276516 0.893231 0.898284 0.553257
C69   C     C_R   0.792303 0.909637 0.120379 -0.050529
C70   C     C_R   0.704261 0.009960 0.170831 -0.099209
Cr1   Cr    Cr6+3 0.601740 0.606840 0.505840 0.989340
Cr2   Cr    Cr6+3 0.291500 0.601560 0.495070 1.015343
Cr3   Cr    Cr6+3 0.606780 0.291630 0.499130 1.001366
Cr4   Cr    Cr6+3 0.062440 0.063060 0.008240 1.041843
Cr5   Cr    Cr6+3 0.062950 0.375000 0.998920 1.073855
Cr6   Cr    Cr6+3 0.374550 0.061770 0.992470 1.009164
H1    H     H_    0.575447 0.164464 0.295612 0.139341
H2    H     H_    0.813112 0.818551 0.438188 0.103300
H3    H     H_    0.919160 0.564531 0.457718 0.144266
H4    H     H_    0.108469 0.394931 0.378822 0.087132
H5    H     H_    0.046073 0.233583 0.350223 0.092728
H6    H     H_    0.615885 0.389041 0.163451 0.137225
H7    H     H_    0.553315 0.578574 0.166864 0.155630
H8    H     H_    0.499092 0.576094 0.292747 0.152335
H9    H     H_    0.580517 0.385624 0.290796 0.154770
H10   H     H_    0.114127 0.947865 0.344633 0.167822
H11   H     H_    0.751286 0.124113 0.982579 0.104939
H12   H     H_    0.480543 0.999939 0.196795 0.172825
H13   H     H_    0.621235 0.811991 0.178661 0.147576
H14   H     H_    0.658565 0.775060 0.304722 0.159588
H15   H     H_    0.518961 0.961123 0.323306 0.137573
H16   H     H_    0.199859 0.558521 0.685636 0.140626
H17   H     H_    0.202096 0.540268 0.815975 0.162296
H18   H     H_    0.577818 0.989203 0.796271 0.133531
H19   H     H_    0.607546 0.138054 0.799688 0.135084
H20   H     H_    0.617979 0.133472 0.674088 0.167114
H21   H     H_    0.909954 0.902849 0.345138 0.152150
H22   H     H_    0.572355 0.996376 0.668812 0.121603
H23   H     H_    0.781768 0.171471 0.695877 0.121089
H24   H     H_    0.814912 0.145706 0.825547 0.111837
H25   H     H_    0.711284 0.684748 0.836986 0.108097
H26   H     H_    0.664058 0.709834 0.713281 0.120652
H27   H     H_    0.837566 0.564249 0.689850 0.157131
H28   H     H_    0.466833 0.877874 0.681208 0.114809
H29   H     H_    0.477852 0.873694 0.811940 0.128732
H30   H     H_    0.021490 0.973078 0.815830 0.164908
H31   H     H_    0.880034 0.873218 0.014075 0.111140
H32   H     H_    0.031916 0.799711 0.820024 0.173829
H33   H     H_    0.032530 0.791742 0.692304 0.137789
H34   H     H_    0.022514 0.964720 0.688881 0.141413
H35   H     H_    0.851595 0.800563 0.135001 0.117405
H36   H     H_    0.700952 0.975823 0.224290 0.099707
H37   H     H_    0.113613 0.733890 0.272682 0.124640
H38   H     H_    0.580793 0.297988 0.065894 0.083450
O1    O     O_R   0.748670 0.497520 0.427970 -0.532502
O2    O     O_R   0.300170 0.471020 0.567120 -0.510342
O3    O     O_R   0.491630 0.259030 0.574940 -0.533524
O4    O     O_R   0.718640 0.304340 0.577850 -0.513521
O5    O     O_3   0.500010 0.500010 0.500020 -0.270862
O6    O     O_R   0.186620 0.923750 0.087000 -0.465279
O7    O     O_R   0.957350 0.194160 0.084660 -0.481318
O8    O     O_R   0.935120 0.407280 0.085350 -0.529717
O9    O     O_R   0.203800 0.365060 0.067090 -0.474482
O10   O     O_R   0.417470 0.174910 0.067830 -0.528583
O11   O     O_R   0.375160 0.946380 0.070880 -0.505567
O12   O     O_R   0.476470 0.723930 0.429450 -0.494963
O13   O     O_R   0.160500 0.919670 0.926690 -0.518615
O14   O     O_R   0.933140 0.190380 0.936050 -0.526856
O15   O     O_R   0.909010 0.403210 0.925030 -0.481362
O16   O     O_R   0.179590 0.361290 0.918480 -0.430840
O17   O     O_R   0.391360 0.170840 0.907510 -0.540810
O18   O     O_R   0.350950 0.942600 0.922260 -0.506660
O19   O     O_3   0.166650 0.166610 0.999880 -0.280680
O20   O     O_R   0.264730 0.744140 0.416740 -0.518769
O21   O     O_R   0.309440 0.472410 0.418220 -0.483419
O22   O     O_R   0.501630 0.260530 0.414310 -0.528343
O23   O     O_R   0.727920 0.305730 0.428950 -0.490281
O24   O     O_R   0.738670 0.496020 0.588600 -0.528135
O25   O     O_R   0.467190 0.722540 0.578350 -0.520149
O26   O     O_R   0.254720 0.742640 0.577370 -0.520529
N1    N     N_3   0.139008 0.214544 0.214021 -0.650174
H39   H     H_    0.205374 0.192767 0.257488 0.216736
H40   H     H_    0.148437 0.286279 0.182967 0.250064
C71   C     C_2   0.033552 0.985673 0.214792 0.579602
O27   O     O_2   0.010053 0.932635 0.164065 -0.514588
O28   O     O_R   0.923673 0.075075 0.260406 -0.750481
H41   H     H_    0.828494 0.110638 0.239504 0.330224
C72   C     C_2   0.931943 0.534216 0.814553 0.617047
O29   O     O_2   0.967462 0.602285 0.850606 -0.528782
O30   O     O_R   0.032661 0.405257 0.785092 -0.679022
H42   H     H_    0.994224 0.356517 0.755324 0.300866
N2    N     N_3   0.127682 0.555808 0.161248 -0.603730
H43   H     H_    0.036413 0.564205 0.182227 0.234688
H44   H     H_    0.123864 0.651338 0.164832 0.252914

loop_
_geom_bond_atom_site_label_1
_geom_bond_atom_site_label_2
_ccdc_geom_bond_type
C44   C49   A    
C7    C13   A    
C21   C26   A    
Cr3   O5    S    
C63   O9    A    
Cr5   O8    S    
C69   H35   S    
C41   C42   S    
C54   C55   A    
C19   C20   A    
C40   H17   S    
C63   O10   A    
C41   H18   S    
C53   C54   A    
C51   H26   S    
C20   C26   A    
C30   C35   A    
C42   H20   S    
C45   O3    A    
C28   C29   A    
C24   H7    S    
C72   O30   S    
C38   C42   S    
C33   H15   S    
C30   C31   A    
Cr6   O17   S    
C36   C66   S    
C20   C25   S    
C51   H27   S    
C15   C16   A    
C32   H12   S    
Cr4   O19   S    
C29   C33   S    
C34   O25   A    
Cr2   O5    S    
C18   C19   A    
C23   C26   S    
C31   C71   S    
C68   O18   A    
C53   C68   S    
C24   H6    S    
C60   H33   S    
C10   N2    S    
C21   C22   A    
C13   H2    S    
Cr4   O14   S    
C15   H4    S    
C8    C9    A    
C12   O21   A    
C12   C17   S    
C25   H8    S    
Cr1   O12   S    
C30   H10   S    
Cr5   O16   S    
C8    H38   S    
C59   C60   S    
C13   C14   A    
Cr6   O11   S    
C44   C65   S    
C44   C46   A    
C46   C50   S    
Cr1   O24   S    
C54   C59   S    
C59   H30   S    
Cr3   O3    S    
O28   H41   S    
C27   C31   A    
Cr6   O10   S    
C65   O14   A    
C36   C40   A    
C24   C25   S    
C71   O28   S    
C10   C11   A    
C39   C40   A    
C18   C62   S    
Cr2   O21   S    
C39   C43   A    
C6    C16   A    
C34   C61   S    
C67   C69   A    
N1    H40   S    
C9    C67   A    
C6    H37   S    
C37   C38   A    
C47   C51   S    
C65   O15   A    
C56   O24   A    
C11   C16   S    
Cr2   O20   S    
Cr4   O13   S    
Cr3   O22   S    
C28   C32   S    
Cr6   O19   S    
C33   H14   S    
C25   H9    S    
C50   C51   S    
Cr1   O1    S    
C14   H3    S    
C1    O12   A    
C43   C45   S    
C68   O13   A    
C47   C52   A    
C70   H36   S    
C4    C17   A    
C48   C49   A    
C21   H5    S    
C32   H13   S    
Cr5   O9    S    
C2    C5    S    
Cr2   O26   S    
C1    O20   A    
C39   H16   S    
C62   O8    A    
C1    C35   S    
C66   O17   A    
C50   C72   S    
C48   H23   S    
C57   H28   S    
C29   C35   A    
C46   C47   A    
C36   C37   A    
Cr3   O4    S    
C7    H21   S    
C18   C22   A    
C56   O4    A    
C23   O23   A    
C2    C8    A    
N2    H44   S    
C71   O27   D    
C3    C5    A    
C11   C17   A    
Cr1   O25   S    
C53   C58   A    
Cr5   O19   S    
C57   C61   A    
C6    C7    A    
C3    C63   S    
Cr4   O6    S    
Cr2   O2    S    
C59   H32   S    
C64   O6    A    
Cr1   O5    S    
C58   H29   S    
C32   C33   S    
C42   H22   S    
C19   C24   S    
C38   C43   A    
C3    C10   A    
C2    C70   A    
N1    H39   S    
C9    H11   S    
C49   H24   S    
Cr6   O18   S    
C45   O2    A    
C67   H31   S    
C57   C58   A    
C41   H19   S    
Cr3   O23   S    
C4    C5    A    
C55   C61   A    
C22   N1    S    
C34   O26   A    
C72   O29   D    
C37   C41   S    
C69   C70   A    
C60   H34   S    
C27   C64   S    
C23   O1    A    
C52   C56   S    
C4    H1    S    
C48   C52   A    
Cr4   O7    S    
N2    H43   S    
C50   H25   S    
C64   O11   A    
C12   O22   A    
C27   C28   A    
C14   C15   A    
C55   C60   S    
C62   O7    A    
Cr5   O15   S    
O30   H42   S    
C66   O16   A    
