data_mof_unit_33288.cif
_audit_creation_date              2012-12-10T17:50:10-0500
_audit_creation_method            fapswitch 2.2
_symmetry_space_group_name_H-M    P1
_symmetry_Int_Tables_number       1
_space_group_crystal_system       triclinic
_cell_length_a                    10.629527
_cell_length_b                    14.738778
_cell_length_c                    14.639142
_cell_angle_alpha                 65.196029
_cell_angle_beta                  103.619491
_cell_angle_gamma                 103.004088
_cell_volume                      2002.52296146

loop_
_atom_site_label
_atom_site_type_symbol
_atom_type_description
_atom_site_fract_x
_atom_site_fract_y
_atom_site_fract_z
_atom_type_partial_charge
C1    C     C_R   0.480341 0.119457 0.311819 0.826387
C2    C     C_R   0.521997 0.880454 0.688300 0.824517
C3    C     C_R   0.493337 0.290628 0.177622 -0.327062
C4    C     C_R   0.529117 0.709363 0.822558 -0.336148
C5    C     C_R   0.512410 0.360822 0.079508 0.088678
C6    C     C_R   0.543698 0.639980 0.924291 0.095065
C7    C     C_R   0.506746 0.323385 0.003763 0.080447
C8    C     C_R   0.563155 0.677502 0.001950 0.093079
C9    C     C_R   0.534366 0.466962 0.054374 0.088513
C10   C     C_R   0.535917 0.534268 0.950781 0.078052
C11   C     C_R   0.531552 0.493651 0.877669 -0.202076
C12   C     C_R   0.558091 0.507980 0.129696 -0.229689
C13   C     C_R   0.518318 0.390276 0.904171 -0.161784
C14   C     C_R   0.573184 0.611281 0.103685 -0.211652
C15   C     C_R   0.721504 0.288374 0.666111 -0.311758
C16   C     C_R   0.278778 0.711915 0.333567 -0.314165
C17   C     C_R   0.687112 0.206123 0.637775 0.560640
C18   C     C_R   0.313020 0.794029 0.362097 0.560662
C19   C     C_R   0.517220 0.284452 0.510119 -0.013683
C20   C     C_R   0.482738 0.715537 0.489866 -0.016676
C21   C     C_R   0.548872 0.371580 0.535444 -0.060474
C22   C     C_R   0.450883 0.628387 0.464600 -0.061110
C23   C     C_R   0.259512 0.000636 0.499518 0.833758
C24   C     C_R   0.740459 0.999429 0.500340 0.831521
C25   C     C_R   0.653378 0.371332 0.616026 -0.015784
C26   C     C_R   0.347086 0.629055 0.383477 -0.017554
C27   C     C_R   0.481228 0.458086 0.484301 0.014863
C28   C     C_R   0.518335 0.541796 0.515803 0.019133
C29   C     C_R   0.620675 0.535856 0.598189 -0.301526
C30   C     C_R   0.377514 0.463396 0.402907 -0.296556
C31   C     C_R   0.689781 0.453715 0.645972 0.499189
C32   C     C_R   0.312873 0.547789 0.351853 0.502318
C33   C     C_3   0.013255 0.003159 0.408519 -0.282474
C34   C     C_3   0.986670 0.996939 0.591117 -0.280802
C35   C     C_3   0.958436 0.084391 0.423367 -0.329388
C36   C     C_3   0.041433 0.915695 0.576254 -0.328069
C37   C     C_3   0.877005 0.999014 0.500264 -0.103957
C38   C     C_3   0.122896 0.001072 0.499402 -0.098786
C39   C     C_3   0.931376 0.919246 0.485701 0.600777
C40   C     C_3   0.068516 0.080850 0.513928 0.597422
C41   C     C_R   0.481199 0.186557 0.203657 -0.143203
C42   C     C_R   0.537052 0.813087 0.797289 -0.151039
C43   C     C_R   0.489745 0.219100 0.028310 -0.271608
C44   C     C_R   0.572083 0.781198 0.977344 -0.282599
C45   C     C_R   0.480816 0.150298 0.128418 0.507767
C46   C     C_R   0.557292 0.849271 0.875600 0.516540
Cu1   Cu    Cu3+1 0.465750 0.918270 0.475680 1.004705
Cu2   Cu    Cu3+1 0.534250 0.081730 0.524320 1.007608
H1    H     H_    0.921700 0.153068 0.362116 0.158134
H2    H     H_    0.077939 0.846858 0.637383 0.150110
H3    H     H_    0.562307 0.722594 0.548449 0.156913
H4    H     H_    0.438227 0.277630 0.451095 0.156132
H5    H     H_    0.802207 0.286833 0.727583 0.218317
H6    H     H_    0.198701 0.713806 0.271589 0.217654
H7    H     H_    0.649699 0.593703 0.628660 0.151153
H8    H     H_    0.343053 0.402953 0.376265 0.157895
H9    H     H_    0.027069 0.005054 0.334882 0.193801
H10   H     H_    0.972937 0.995156 0.664729 0.194723
H11   H     H_    0.516139 0.362510 0.845852 0.158649
H12   H     H_    0.590514 0.639374 0.163844 0.146761
H13   H     H_    0.508118 0.684021 0.760888 0.172493
H14   H     H_    0.485504 0.315215 0.235424 0.168379
H15   H     H_    0.484896 0.190691 0.970005 0.152485
H16   H     H_    0.589438 0.809698 0.037197 0.150884
H17   H     H_    0.542090 0.539681 0.799416 0.144246
H18   H     H_    0.569151 0.462423 0.210229 0.144588
N1    N     N_R   0.585750 0.204560 0.560800 -0.212723
N2    N     N_R   0.414250 0.795440 0.439200 -0.212555
O1    O     O_R   0.454850 0.022100 0.338110 -0.490715
O2    O     O_R   0.545150 0.977900 0.661890 -0.491723
O3    O     O_R   0.512700 0.160150 0.379180 -0.616924
O4    O     O_R   0.487300 0.839850 0.620820 -0.617534
O5    O     O_R   0.287930 0.931000 0.479440 -0.556478
O6    O     O_R   0.712070 0.069000 0.520560 -0.555502
O7    O     O_R   0.345780 0.069050 0.520520 -0.558423
O8    O     O_R   0.654220 0.930950 0.479480 -0.560448
Cl1   Cl    Cl    0.221780 0.894599 0.294063 -0.612965
Cl2   Cl    Cl    0.779273 0.106058 0.705159 -0.606555
O9    O     O_3   0.849686 0.834424 0.472334 -0.579463
C47   C     C_3   0.924310 0.777166 0.454956 -0.316868
H19   H     H_    0.960662 0.819531 0.380917 0.207068
H20   H     H_    0.860477 0.707700 0.450954 0.183975
H21   H     H_    0.007103 0.753189 0.518173 0.158563
O10   O     O_3   0.150471 0.165389 0.527715 -0.577577
C48   C     C_3   0.075183 0.224783 0.541276 -0.276962
H22   H     H_    0.032433 0.183117 0.612647 0.196659
H23   H     H_    0.997107 0.251353 0.474695 0.167886
H24   H     H_    0.140229 0.292679 0.548248 0.189725
O11   O     O_3   0.569375 0.951383 0.853590 -0.527633
C49   C     C_3   0.450621 0.972769 0.861708 -0.257856
H25   H     H_    0.367122 0.950102 0.809672 0.144049
H26   H     H_    0.458268 0.055525 0.838639 0.196890
H27   H     H_    0.431169 0.935863 0.941674 0.153016
O12   O     O_3   0.464019 0.047805 0.150817 -0.536835
C50   C     C_3   0.586264 0.019633 0.160392 -0.257632
H28   H     H_    0.573835 0.936465 0.184404 0.192897
H29   H     H_    0.659552 0.039238 0.219996 0.149203
H30   H     H_    0.623205 0.054494 0.086265 0.156625
O13   O     O_3   0.787730 0.450510 0.728189 -0.578937
C51   C     C_3   0.899175 0.517566 0.691964 -0.332755
H31   H     H_    0.882384 0.597494 0.661904 0.174236
H32   H     H_    0.929813 0.501933 0.632853 0.155359
H33   H     H_    0.981311 0.506862 0.756609 0.199565
O14   O     O_3   0.209311 0.547825 0.274094 -0.581198
C52   C     C_3   0.259765 0.570207 0.184913 -0.313070
H34   H     H_    0.310186 0.508167 0.193048 0.167238
H35   H     H_    0.326840 0.643236 0.164151 0.158834
H36   H     H_    0.177128 0.577696 0.120946 0.202207

loop_
_geom_bond_atom_site_label_1
_geom_bond_atom_site_label_2
_ccdc_geom_bond_type
C25   C31   A    
C38   C40   S    
C26   C32   A    
C34   C37   S    
C40   O10   S    
C50   H28   S    
C50   H30   S    
C43   H15   S    
C46   O11   S    
C48   H22   S    
C44   H16   S    
C52   H35   S    
C33   C39   S    
C4    C42   A    
C34   C40   S    
C15   H5    S    
C28   C29   A    
C35   C37   S    
Cu1   O8    S    
C20   H3    S    
C15   C25   A    
C18   N2    A    
C42   C46   A    
Cu1   O1    S    
C19   H4    S    
Cu1   Cu2   S    
C35   H1    S    
C8    C14   A    
C32   O14   S    
C19   N1    A    
C31   O13   S    
C9    C10   A    
C21   C27   A    
C22   C28   A    
C27   C30   A    
Cu2   O7    S    
C23   O5    A    
C47   H21   S    
C2    O4    A    
C45   O12   S    
O14   C52   S    
C44   C46   A    
C48   H23   S    
C16   C26   A    
C52   H36   S    
C17   N1    A    
Cu2   O6    S    
O10   C48   S    
Cu1   O5    S    
C4    C6    A    
Cu2   O2    S    
C5    C7    A    
C24   O8    A    
C6    C8    A    
C29   H7    S    
C12   H18   S    
C4    H13   S    
C51   H33   S    
C1    O1    A    
C39   O9    S    
C5    C9    A    
C49   H26   S    
O13   C51   S    
C29   C31   A    
C51   H32   S    
C24   C37   S    
C1    O3    A    
C43   C45   A    
C47   H20   S    
C12   C14   A    
C7    C43   A    
C20   C22   A    
Cu2   O3    S    
Cu1   N2    S    
C36   H2    S    
C48   H24   S    
C49   H27   S    
C3    H14   S    
C1    C41   S    
C15   C17   A    
C21   C25   A    
C3    C41   A    
C33   H9    S    
C19   C21   A    
C20   N2    A    
C36   C39   S    
C8    C44   A    
C23   O7    A    
C47   H19   S    
C3    C5    A    
C6    C10   A    
C50   H29   S    
C13   H11   S    
C23   C38   S    
C14   H12   S    
C52   H34   S    
C33   C38   S    
C36   C38   S    
C35   C40   S    
C37   C39   S    
C30   C32   A    
C11   C13   A    
C24   O6    A    
C49   H25   S    
C30   H8    S    
C2    C42   S    
C18   Cl1   S    
C17   Cl2   S    
C33   C35   S    
C34   C36   S    
Cu2   N1    S    
O12   C50   S    
C9    C12   A    
C16   H6    S    
Cu1   O4    S    
C10   C11   A    
O9    C47   S    
C7    C13   A    
C16   C18   A    
C22   C26   A    
C27   C28   A    
C34   H10   S    
C41   C45   A    
C51   H31   S    
O11   C49   S    
C2    O2    A    
C11   H17   S    
