data_mof_unit_40172.cif
_audit_creation_date              2012-12-11T15:27:35-0500
_audit_creation_method            fapswitch 2.2
_symmetry_space_group_name_H-M    P1
_symmetry_Int_Tables_number       1
_space_group_crystal_system       triclinic
_cell_length_a                    23.222947
_cell_length_b                    7.298211
_cell_length_c                    15.100161
_cell_angle_alpha                 90.161503
_cell_angle_beta                  107.998283
_cell_angle_gamma                 89.830145
_cell_volume                      2434.01416048

loop_
_atom_site_label
_atom_site_type_symbol
_atom_type_description
_atom_site_fract_x
_atom_site_fract_y
_atom_site_fract_z
_atom_type_partial_charge
O1    O     O_R   0.711000 0.648610 0.341170 -0.553281
O2    O     O_R   0.289000 0.351390 0.658830 -0.519616
O3    O     O_R   0.789000 0.148610 0.158830 -0.551493
O4    O     O_R   0.211000 0.851390 0.841170 -0.527928
O5    O     O_R   0.829650 0.322030 0.336650 -0.541300
O6    O     O_R   0.170350 0.677970 0.663350 -0.531507
O7    O     O_R   0.670350 0.822030 0.163350 -0.540524
O8    O     O_R   0.329650 0.177970 0.836650 -0.528781
C1    C     C_R   0.854379 0.485704 0.356505 0.785550
C2    C     C_R   0.145661 0.514302 0.643351 0.755619
C3    C     C_R   0.645609 0.985849 0.143535 0.781876
C4    C     C_R   0.354396 0.014156 0.856448 0.769123
O9    O     O_R   0.713950 0.319280 0.352070 -0.521829
O10   O     O_R   0.286050 0.680720 0.647930 -0.552354
O11   O     O_R   0.786050 0.819280 0.147930 -0.520625
O12   O     O_R   0.213950 0.180720 0.852070 -0.550294
O13   O     O_R   0.672470 0.142870 0.174360 -0.517177
O14   O     O_R   0.327530 0.857130 0.825640 -0.530343
O15   O     O_R   0.827530 0.642870 0.325640 -0.519196
O16   O     O_R   0.172470 0.357130 0.674360 -0.524020
C5    C     C_R   0.701128 0.488033 0.375508 0.837092
C6    C     C_R   0.298829 0.512525 0.624394 0.833884
C7    C     C_R   0.798991 0.987145 0.124605 0.830245
C8    C     C_R   0.201531 0.012876 0.875954 0.844614
O17   O     O_3   0.736530 0.478650 0.191680 -0.385631
O18   O     O_3   0.263470 0.521350 0.808320 -0.384783
O19   O     O_3   0.763470 0.978650 0.308320 -0.389652
O20   O     O_3   0.236530 0.021350 0.691680 -0.379067
V1    V     V_3+5 0.752500 0.206170 0.260820 1.570423
V2    V     V_3+5 0.247500 0.793830 0.739180 1.583152
V3    V     V_3+5 0.747500 0.706170 0.239180 1.570574
V4    V     V_3+5 0.252500 0.293830 0.760820 1.593060
C9    C     C_R   0.826998 0.997744 0.049620 -0.080942
C10   C     C_R   0.172359 0.007268 0.949704 -0.090078
C11   C     C_R   0.672532 0.501733 0.449829 -0.078778
C12   C     C_R   0.328187 0.506758 0.550641 -0.097618
C13   C     C_R   0.823918 0.096092 0.894131 -0.071644
C14   C     C_R   0.177735 0.048123 0.113044 -0.013798
C15   C     C_R   0.677548 0.591784 0.607985 -0.063721
C16   C     C_R   0.321395 0.545075 0.386720 -0.072805
C17   C     C_R   0.794628 0.075322 0.962707 -0.128698
C18   C     C_R   0.206784 0.043425 0.043229 -0.121630
C19   C     C_R   0.706502 0.565814 0.539123 -0.125540
C20   C     C_R   0.292667 0.522871 0.456397 -0.093792
C21   C     C_R   0.887342 0.939221 0.065950 -0.089053
C22   C     C_R   0.108918 0.985473 0.925084 -0.094576
C23   C     C_R   0.610159 0.464957 0.429729 -0.091756
C24   C     C_R   0.391866 0.497335 0.575118 -0.094196
C25   C     C_R   0.920571 0.007519 0.008285 -0.023480
C26   C     C_R   0.079389 0.011848 0.993740 -0.029930
C27   C     C_R   0.579144 0.531070 0.491298 -0.029222
C28   C     C_R   0.421033 0.537135 0.507146 0.005907
C29   C     C_R   0.888096 0.086215 0.920711 0.075391
C30   C     C_R   0.114406 0.015662 0.089329 0.075798
C31   C     C_R   0.613231 0.592762 0.581934 0.074643
C32   C     C_R   0.385730 0.556076 0.411503 0.016948
C33   C     C_R   0.985360 0.005134 0.036138 0.023579
C34   C     C_R   0.015491 0.037212 0.969688 0.019408
C35   C     C_R   0.514640 0.542793 0.464168 0.019031
C36   C     C_R   0.485128 0.561062 0.532169 0.021137
C37   C     C_R   0.983001 0.124503 0.886459 -0.216550
C38   C     C_R   0.020975 0.989526 0.129775 -0.228237
C39   C     C_R   0.518951 0.633343 0.618828 -0.224852
C40   C     C_R   0.479765 0.569141 0.371245 -0.192020
C41   C     C_R   0.921307 0.159136 0.864515 0.210970
C42   C     C_R   0.083860 0.991079 0.156840 0.222095
C43   C     C_R   0.581146 0.660962 0.641464 0.209886
C44   C     C_R   0.417099 0.587580 0.345021 0.123232
H1    H     H_    0.006770 0.185220 0.842519 0.167755
H2    H     H_    0.000752 0.988325 0.185078 0.175144
H3    H     H_    0.496122 0.688699 0.665546 0.168346
H4    H     H_    0.501754 0.595824 0.319095 0.170889
C45   C     C_1   0.416862 0.006803 0.918498 -0.085956
C46   C     C_1   0.583141 0.993222 0.081493 -0.084958
C47   C     C_1   0.083191 0.507205 0.581308 -0.093999
C48   C     C_1   0.916860 0.492891 0.418518 -0.087244
C49   C     C_1   0.469173 0.002325 0.969857 0.061155
C50   C     C_1   0.530828 0.997713 0.030141 0.060363
C51   C     C_1   0.030865 0.502577 0.530008 0.059314
C52   C     C_1   0.969187 0.497599 0.469809 0.057409
I1    I     I_    0.888478 0.363748 0.760243 -0.351198
I2    I     I_    0.123669 0.915632 0.299627 -0.302240
I3    I     I_    0.616280 0.848741 0.753804 -0.345486
I4    I     I_    0.381287 0.689110 0.205667 -0.372829
C53   C     C_2   0.073669 0.914555 0.830917 0.327891
H5    H     H_    0.034633 0.827644 0.823823 0.096286
O21   O     O_2   0.086044 0.956483 0.760718 -0.530285
C54   C     C_2   0.913071 0.790267 0.134208 0.331668
H6    H     H_    0.941156 0.685572 0.116915 0.083964
O22   O     O_2   0.906483 0.788439 0.211311 -0.533840
C55   C     C_2   0.427530 0.421460 0.667817 0.321907
H7    H     H_    0.466940 0.336611 0.673239 0.094992
O23   O     O_2   0.414842 0.456360 0.738711 -0.530200
C56   C     C_2   0.578372 0.342740 0.350185 0.326117
H8    H     H_    0.542889 0.252413 0.356848 0.085458
O24   O     O_2   0.589305 0.346133 0.276172 -0.532980
C57   C     C_2   0.273222 0.080221 0.068728 0.394934
H9    H     H_    0.294943 0.173141 0.125254 0.048473
O25   O     O_2   0.304798 0.003840 0.028477 -0.527986
C58   C     C_2   0.729473 0.125561 0.940779 0.375408
H10   H     H_    0.710943 0.238285 0.894043 0.117207
O26   O     O_2   0.695604 0.040155 0.973196 -0.527420
C59   C     C_2   0.225353 0.501915 0.429477 0.421125
H11   H     H_    0.196106 0.565921 0.367421 0.157056
O27   O     O_2   0.201654 0.406294 0.474567 -0.531527
C60   C     C_2   0.772912 0.598018 0.562644 0.372098
H12   H     H_    0.794316 0.706388 0.610672 0.109351
O28   O     O_2   0.804562 0.502172 0.530081 -0.526404
C61   C     C_2   0.786565 0.095788 0.794238 0.425766
H13   H     H_    0.742176 0.158732 0.771552 0.094365
O29   O     O_2   0.803933 0.014588 0.736353 -0.521509
C62   C     C_2   0.212867 0.112125 0.207350 0.397386
H14   H     H_    0.257197 0.054822 0.242587 0.081608
O30   O     O_2   0.193372 0.236031 0.244535 -0.515622
C63   C     C_2   0.715209 0.589311 0.707523 0.418387
H15   H     H_    0.758363 0.659184 0.730897 0.090436
O31   O     O_2   0.699232 0.500808 0.764261 -0.528574
C64   C     C_2   0.284094 0.536597 0.287854 0.465194
H16   H     H_    0.292856 0.430255 0.243358 0.064156
O32   O     O_2   0.245397 0.652143 0.254513 -0.522277

loop_
_geom_bond_atom_site_label_1
_geom_bond_atom_site_label_2
_ccdc_geom_bond_type
O17   V3    S    
C16   C64   S    
O1    C5    A    
O19   V1    S    
C9    C21   A    
O3    C7    A    
C10   C18   A    
O15   V3    S    
C62   O30   D    
C57   H9    S    
C33   C38   A    
C53   H5    S    
O18   V4    S    
C35   C40   A    
C26   C30   A    
C36   C39   A    
C40   C44   A    
O9    V1    S    
C14   C18   A    
C61   O29   D    
O4    C8    A    
C55   O23   D    
C60   H12   S    
C63   H15   S    
O1    V3    S    
C25   C33   A    
C31   C43   A    
C38   H2    S    
O2    V4    S    
O3    V1    S    
C64   H16   S    
C28   C36   A    
C1    O15   A    
C15   C31   A    
C2    O16   A    
C63   O31   D    
C24   C55   S    
O2    C6    A    
C10   C22   A    
C1    C48   S    
C11   C19   A    
C16   C20   A    
C13   C61   S    
C49   C50   S    
C22   C53   S    
C13   C29   A    
C34   C37   A    
O11   C7    A    
C11   C23   A    
C35   C36   A    
O12   C8    A    
C16   C32   A    
C4    C45   S    
O10   V2    S    
C62   H14   S    
C57   O25   D    
C20   C59   S    
O5    V1    S    
C53   O21   D    
C39   C43   A    
O7    V3    S    
C38   C42   A    
O8    V4    S    
C21   C54   S    
C18   C57   S    
C55   H7    S    
C23   C27   A    
C7    C9    S    
C32   C44   A    
C8    C10   S    
C19   C60   S    
C44   I4    S    
O7    C3    A    
O5    C1    A    
C42   I2    S    
C2    C47   S    
C41   I1    S    
C14   C30   A    
C21   C25   A    
O8    C4    A    
C58   O26   D    
C17   C58   S    
O9    C5    A    
C59   O27   D    
C43   I3    S    
C56   O24   D    
O14   V2    S    
C26   C34   A    
O6    V2    S    
C39   H3    S    
C15   C63   S    
C12   C20   A    
C27   C35   A    
C14   C62   S    
C29   C41   A    
O16   V4    S    
C37   H1    S    
C3    O13   A    
C48   C52   T    
C54   O22   D    
C3    C46   S    
O6    C2    A    
C15   C19   A    
O11   V3    S    
C30   C42   A    
O12   V4    S    
C6    C12   S    
C22   C26   A    
C9    C17   A    
O10   C6    A    
O20   V2    S    
C5    C11   S    
O13   V1    S    
C33   C34   A    
C60   O28   D    
C25   C29   A    
C58   H10   S    
C23   C56   S    
C12   C24   A    
C27   C31   A    
C40   H4    S    
C13   C17   A    
C56   H8    S    
C64   O32   D    
C51   C52   S    
C37   C41   A    
C24   C28   A    
C54   H6    S    
C46   C50   T    
C4    O14   A    
C59   H11   S    
C45   C49   T    
C61   H13   S    
C47   C51   T    
O4    V2    S    
C28   C32   A    
