data_mof_unit_44908.cif
_audit_creation_date              2012-12-10T16:58:30-0500
_audit_creation_method            fapswitch 2.2
_symmetry_space_group_name_H-M    P1
_symmetry_Int_Tables_number       1
_space_group_crystal_system       triclinic
_cell_length_a                    7.80062
_cell_length_b                    8.559848
_cell_length_c                    23.403204
_cell_angle_alpha                 91.839763
_cell_angle_beta                  85.496493
_cell_angle_gamma                 93.413207
_cell_volume                      1554.50256577

loop_
_atom_site_label
_atom_site_type_symbol
_atom_type_description
_atom_site_fract_x
_atom_site_fract_y
_atom_site_fract_z
_atom_type_partial_charge
C1    C     C_R   0.545524 0.794555 0.498341 0.953747
C2    C     C_R   0.641085 0.473407 0.291368 -0.212270
C3    C     C_R   0.357825 0.529585 0.766877 -0.108220
C4    C     C_R   0.636214 0.477677 0.232354 -0.107275
C5    C     C_R   0.513407 0.514335 0.791351 0.318912
C6    C     C_R   0.483763 0.511041 0.208914 0.311923
C7    C     C_2   0.570037 0.957997 0.497628 -0.389276
C8    C     C_2   0.431286 0.042239 0.499903 -0.375011
C9    C     C_R   0.501875 0.501603 0.610565 0.853625
C10   C     C_R   0.498162 0.499977 0.389410 0.847844
C11   C     C_R   0.405392 0.392142 0.119963 0.517424
C12   C     C_R   0.454712 0.205535 0.500859 0.961386
C13   C     C_R   0.582011 0.640064 0.880455 0.525222
C14   C     C_R   0.559884 0.641900 0.120665 0.539013
C15   C     C_R   0.444753 0.382861 0.879838 0.526409
C16   C     C_R   0.568780 0.645697 0.060522 -0.100037
C17   C     C_R   0.434953 0.380428 0.939924 -0.095989
C18   C     C_R   0.491610 0.517263 0.030365 -0.090085
C19   C     C_R   0.499751 0.514211 0.970177 -0.092411
C20   C     C_R   0.410538 0.389376 0.060275 -0.036583
C21   C     C_R   0.577620 0.643073 0.940205 -0.045726
C22   C     C_R   0.653163 0.772324 0.030074 0.495537
C23   C     C_R   0.666016 0.497192 0.756904 -0.106710
C24   C     C_R   0.362811 0.249069 0.970254 0.468089
C25   C     C_R   0.653045 0.770312 0.970040 -0.275560
C26   C     C_R   0.346062 0.257388 0.030202 -0.322930
C27   C     C_3   0.722528 0.038438 0.042640 0.113535
C28   C     C_3   0.778458 0.155071 0.088957 -0.735582
C29   C     C_3   0.164914 0.051812 0.947213 0.115674
C30   C     C_3   0.143207 0.905523 0.909173 -0.708516
C31   C     C_3   0.952120 0.310324 0.404091 0.175508
C32   C     C_3   0.054806 0.192962 0.367587 -0.870874
C33   C     C_3   0.053952 0.761182 0.569546 0.178573
C34   C     C_R   0.335432 0.539113 0.244182 -0.093517
C35   C     C_3   0.946574 0.858159 0.612860 -0.861972
C36   C     C_R   0.662744 0.493381 0.697652 -0.210920
C37   C     C_R   0.339966 0.535131 0.303274 -0.227370
C38   C     C_R   0.506328 0.506536 0.672739 -0.035877
C39   C     C_R   0.493123 0.502464 0.327263 -0.035948
C40   C     C_R   0.354002 0.525697 0.707734 -0.213855
H1    H     H_    0.717642 0.865670 0.946283 0.183924
H2    H     H_    0.750578 0.455179 0.204706 0.137982
H3    H     H_    0.701615 0.008546 0.495996 0.186061
H4    H     H_    0.300361 0.992152 0.500781 0.166816
H5    H     H_    0.584083 0.051727 0.037193 0.165335
H6    H     H_    0.800332 0.067623 0.002208 0.114260
H7    H     H_    0.916544 0.143839 0.095704 0.258036
H8    H     H_    0.761081 0.276184 0.075714 0.188297
H9    H     H_    0.699674 0.133134 0.129842 0.285237
H10   H     H_    0.123576 0.019743 0.992054 0.137934
H11   H     H_    0.080808 0.141663 0.933051 0.143247
H12   H     H_    0.294464 0.155318 0.053302 0.194969
H13   H     H_    0.224117 0.813161 0.922901 0.241836
H14   H     H_    0.006855 0.860413 0.912251 0.200270
H15   H     H_    0.182646 0.933147 0.863823 0.281615
H16   H     H_    0.947369 0.417494 0.378839 0.132050
H17   H     H_    0.821741 0.255336 0.414277 0.180220
H18   H     H_    0.060220 0.083081 0.391225 0.254024
H19   H     H_    0.992383 0.165805 0.327111 0.227250
H20   H     H_    0.188102 0.241964 0.357011 0.268190
H21   H     H_    0.078392 0.829204 0.529841 0.135828
H22   H     H_    0.175556 0.739325 0.588587 0.177244
H23   H     H_    0.786252 0.485256 0.776124 0.137005
H24   H     H_    0.919238 0.793833 0.653347 0.260136
H25   H     H_    0.017958 0.971070 0.622194 0.222817
H26   H     H_    0.822777 0.882547 0.595428 0.260625
H27   H     H_    0.217522 0.564755 0.225739 0.141752
H28   H     H_    0.782012 0.479375 0.671517 0.184533
H29   H     H_    0.224183 0.558442 0.330035 0.162061
H30   H     H_    0.232009 0.537107 0.689552 0.165149
H31   H     H_    0.760239 0.447349 0.308626 0.142207
H32   H     H_    0.239998 0.543240 0.793833 0.133008
N1    N     N_R   0.480447 0.516278 0.148410 -0.368277
N2    N     N_R   0.514822 0.512049 0.852004 -0.368312
N3    N     N_2   0.950330 0.457950 0.484560 0.162237
N4    N     N_2   0.049670 0.542050 0.515440 0.162001
O1    O     O_R   0.389250 0.738570 0.503790 -0.663775
O2    O     O_2   0.651445 0.764224 0.850832 -0.546573
O3    O     O_2   0.628256 0.762437 0.151631 -0.489343
O4    O     O_2   0.382809 0.258871 0.849107 -0.501702
O5    O     O_3   0.751963 0.885449 0.058991 -0.570018
O6    O     O_3   0.339696 0.105566 0.941917 -0.568140
O7    O     O_3   0.035386 0.346501 0.454069 -0.521240
O8    O     O_3   0.961067 0.620495 0.557759 -0.526224
O9    O     O_R   0.610750 0.261430 0.496210 -0.639795
O10   O     O_R   0.678390 0.711620 0.493890 -0.598311
O11   O     O_R   0.321610 0.288380 0.506110 -0.566808
O12   O     O_R   0.355400 0.513520 0.588790 -0.646725
O13   O     O_R   0.644600 0.486480 0.411210 -0.675524
O14   O     O_R   0.644550 0.486570 0.578900 -0.566573
O15   O     O_R   0.355450 0.513430 0.421100 -0.595151
O16   O     O_2   0.329151 0.270572 0.149542 -0.559865
Zn1   Zn    Zn3+2 0.306930 0.518000 0.506610 1.015110
Zn2   Zn    Zn3+2 0.693070 0.482000 0.493390 1.013182

loop_
_geom_bond_atom_site_label_1
_geom_bond_atom_site_label_2
_ccdc_geom_bond_type
C28   H7    S    
C37   H29   S    
C34   C37   A    
C1    O1    A    
C32   H18   S    
N4    O8    S    
C7    C8    D    
C30   H14   S    
C40   H30   S    
C12   O9    A    
C19   C21   A    
C24   C26   A    
C9    O12   A    
C35   H25   S    
O13   Zn2   S    
C31   O7    S    
C18   C19   A    
C28   H9    S    
C5    N2    S    
C24   O6    S    
O10   Zn2   S    
C33   C35   S    
C13   O2    S    
C11   O16   S    
C15   O4    S    
C10   O13   A    
C33   H22   S    
C22   C25   A    
C35   H24   S    
C7    H3    S    
C31   H16   S    
C27   H5    S    
C23   H23   S    
C2    C39   A    
O14   Zn2   S    
C29   H10   S    
C30   H13   S    
C11   C20   A    
C17   C24   A    
C22   O5    S    
C27   O5    S    
C4    C6    A    
C11   N1    A    
C25   H1    S    
C35   H26   S    
C6    C34   A    
C10   C39   S    
C34   H27   S    
C2    C4    A    
N3    N4    D    
C14   N1    A    
C29   C30   S    
C26   H12   S    
N4    Zn1   S    
O15   Zn1   S    
O9    Zn2   S    
C31   C32   S    
C5    C23   A    
C8    C12   S    
C13   C21   A    
C14   O3    S    
C27   H6    S    
C16   C18   A    
C3    C40   A    
C4    H2    S    
C14   C16   A    
C32   H20   S    
C2    H31   S    
C6    N1    S    
C29   H11   S    
C1    O10   A    
C15   C17   A    
C21   C25   A    
O12   Zn1   S    
C28   H8    S    
C16   C22   A    
C12   O11   A    
C1    C7    S    
C8    H4    S    
C3    C5    A    
C9    O14   A    
C10   O15   A    
C36   H28   S    
C30   H15   S    
C31   H17   S    
C36   C38   A    
C3    H32   S    
C29   O6    S    
C37   C39   A    
C38   C40   A    
N3    O7    S    
C20   C26   A    
O11   Zn1   S    
O1    Zn1   S    
C9    C38   S    
C17   C19   A    
C18   C20   A    
C33   O8    S    
C15   N2    A    
C13   N2    A    
C33   H21   S    
C23   C36   A    
C27   C28   S    
C32   H19   S    
N3    Zn2   S    
