data_mof_unit_44010.cif
_audit_creation_date              2012-12-10T19:21:24-0500
_audit_creation_method            fapswitch 2.2
_symmetry_space_group_name_H-M    P1
_symmetry_Int_Tables_number       1
_space_group_crystal_system       triclinic
_cell_length_a                    10.850099
_cell_length_b                    15.992352
_cell_length_c                    14.752172
_cell_angle_alpha                 90.363271
_cell_angle_beta                  90.712086
_cell_angle_gamma                 90.314399
_cell_volume                      2559.48747513

loop_
_atom_site_label
_atom_site_type_symbol
_atom_type_description
_atom_site_fract_x
_atom_site_fract_y
_atom_site_fract_z
_atom_type_partial_charge
C1    C     C_R   0.498861 0.340898 0.499734 0.824776
C2    C     C_R   0.499358 0.659137 0.500251 0.823534
C3    C     C_R   0.872004 0.498231 0.501760 -0.093742
C4    C     C_R   0.128200 0.501753 0.498031 -0.090744
C5    C     C_R   0.940222 0.466913 0.576220 0.027207
C6    C     C_R   0.060025 0.532271 0.423097 0.025324
C7    C     C_R   0.403716 0.954928 0.548635 -0.259885
C8    C     C_R   0.572642 0.045178 0.445791 -0.259603
C9    C     C_R   0.491181 0.912701 0.496852 0.099097
C10   C     C_R   0.486750 0.087459 0.498727 0.097635
C11   C     C_R   0.575369 0.957737 0.443595 0.172424
C12   C     C_R   0.399889 0.042538 0.549928 0.169931
C13   C     C_1   0.493220 0.823100 0.499290 -0.049442
C14   C     C_1   0.490046 0.177031 0.498977 -0.057700
C15   C     C_1   0.494181 0.251969 0.499186 -0.212297
C16   C     C_1   0.496230 0.748140 0.500491 -0.213494
C17   C     C_R   0.586885 0.546082 0.952013 -0.188992
C18   C     C_R   0.414702 0.452639 0.047963 -0.185400
C19   C     C_R   0.498750 0.498719 0.902982 -0.061554
C20   C     C_R   0.502568 0.500248 0.097009 -0.059730
C21   C     C_R   0.411357 0.450920 0.951470 0.164435
C22   C     C_R   0.591073 0.547106 0.048499 0.164860
C23   C     C_R   0.261746 0.500915 0.499286 0.782945
C24   C     C_R   0.738313 0.498983 0.500660 0.785535
C25   C     C_1   0.499693 0.499649 0.802673 0.123213
C26   C     C_1   0.500841 0.499955 0.197324 0.124458
C27   C     C_R   0.217819 0.673302 0.249152 0.199442
C28   C     C_R   0.764481 0.322129 0.736874 0.190592
C29   C     C_R   0.170511 0.645996 0.333873 0.175273
C30   C     C_R   0.824608 0.350571 0.657076 0.146439
C31   C     C_R   0.117279 0.564647 0.339240 0.075227
C32   C     C_R   0.882031 0.430791 0.657800 0.088177
C33   C     C_R   0.113168 0.512742 0.262310 -0.170812
C34   C     C_R   0.884347 0.479071 0.737271 -0.170943
C35   C     C_R   0.161379 0.539567 0.180607 -0.192242
C36   C     C_R   0.828652 0.450231 0.815341 -0.206855
C37   C     C_R   0.213563 0.618842 0.174039 -0.168575
C38   C     C_R   0.768083 0.373371 0.815216 -0.130869
C39   C     C_R   0.932400 0.529828 0.425999 -0.240017
C40   C     C_R   0.067780 0.470365 0.573920 -0.241312
Cu1   Cu    Cu3+1 0.500040 0.500000 0.589220 0.970565
Cu2   Cu    Cu3+1 0.499960 0.500000 0.410780 0.969106
H1    H     H_    0.249796 0.638395 0.109374 0.145256
H2    H     H_    0.724619 0.354908 0.877501 0.153655
H3    H     H_    0.652390 0.582079 0.913557 0.154171
H4    H     H_    0.349107 0.416707 0.086400 0.153891
H5    H     H_    0.072046 0.450963 0.265780 0.140960
H6    H     H_    0.929041 0.539835 0.738468 0.140598
H7    H     H_    0.157184 0.498972 0.121733 0.142172
H8    H     H_    0.831545 0.488083 0.876363 0.143350
H9    H     H_    0.879984 0.553845 0.368804 0.159905
H10   H     H_    0.120091 0.446176 0.631075 0.158967
H11   H     H_    0.338634 0.919358 0.588389 0.147501
H12   H     H_    0.638137 0.080637 0.406253 0.147601
N1    N     N_1   0.500040 0.499980 0.276710 -0.149105
N2    N     N_1   0.499960 0.500020 0.723290 -0.150044
O1    O     O_R   0.500060 0.380310 0.575320 -0.576805
O2    O     O_R   0.499940 0.619690 0.424680 -0.579808
O3    O     O_R   0.500000 0.380310 0.424640 -0.565931
O4    O     O_R   0.500000 0.619690 0.575360 -0.564222
O5    O     O_R   0.319670 0.500010 0.575340 -0.583748
O6    O     O_R   0.680330 0.499990 0.424660 -0.583913
O7    O     O_R   0.319610 0.500010 0.424650 -0.567671
O8    O     O_R   0.680390 0.499990 0.575350 -0.567925
C41   C     C_3   0.270783 0.759988 0.234331 -0.439053
C42   C     C_3   0.411291 0.758691 0.237141 -0.832274
H13   H     H_    0.444753 0.737344 0.304344 0.268207
H14   H     H_    0.446793 0.716269 0.183740 0.248576
H15   H     H_    0.447719 0.822643 0.225215 0.235493
H16   H     H_    0.239721 0.783427 0.167064 0.197812
H17   H     H_    0.237200 0.806345 0.284164 0.212266
C43   C     C_3   0.697537 0.237984 0.736730 -0.412873
C44   C     C_3   0.638198 0.212301 0.825977 -0.873665
H18   H     H_    0.709050 0.207587 0.880668 0.252534
H19   H     H_    0.565872 0.257680 0.845454 0.252803
H20   H     H_    0.593885 0.149958 0.817379 0.251114
H21   H     H_    0.623050 0.239649 0.684549 0.209241
H22   H     H_    0.763548 0.188166 0.717830 0.213646
C45   C     C_3   0.174525 0.702612 0.416939 -0.411892
C46   C     C_3   0.057994 0.755006 0.422916 -0.872627
H23   H     H_    0.046110 0.793317 0.360993 0.243171
H24   H     H_    0.975905 0.714007 0.430598 0.262013
H25   H     H_    0.064678 0.797462 0.482644 0.250339
H26   H     H_    0.184642 0.666081 0.480084 0.194813
H27   H     H_    0.256659 0.744040 0.416525 0.208824
C47   C     C_3   0.833453 0.294854 0.573247 -0.431630
C48   C     C_3   0.954680 0.246860 0.573414 -0.842508
H28   H     H_    0.962345 0.207308 0.634806 0.245967
H29   H     H_    0.958274 0.205809 0.512531 0.242245
H30   H     H_    0.034276 0.290695 0.571972 0.257438
H31   H     H_    0.756269 0.249465 0.568048 0.195437
H32   H     H_    0.826352 0.331991 0.510282 0.199946
C49   C     C_3   0.301923 0.086102 0.604820 -0.404692
C50   C     C_3   0.354483 0.120296 0.694114 -0.821885
H33   H     H_    0.396948 0.069135 0.734152 0.250345
H34   H     H_    0.424685 0.169321 0.681539 0.260497
H35   H     H_    0.279302 0.148509 0.734297 0.239537
H36   H     H_    0.260403 0.137746 0.564906 0.205333
H37   H     H_    0.225700 0.041934 0.620467 0.194465
C51   C     C_3   0.667995 0.914382 0.383962 -0.407500
C52   C     C_3   0.780113 0.886439 0.438924 -0.827982
H38   H     H_    0.824922 0.941032 0.472948 0.251342
H39   H     H_    0.753515 0.839874 0.490735 0.258523
H40   H     H_    0.847198 0.857233 0.392576 0.242076
H41   H     H_    0.624740 0.859609 0.349178 0.205358
H42   H     H_    0.699696 0.957161 0.329769 0.194273
C53   C     C_3   0.688492 0.596539 0.101844 -0.389214
C54   C     C_3   0.783471 0.643710 0.045663 -0.867815
H43   H     H_    0.836068 0.599551 0.002737 0.244964
H44   H     H_    0.737601 0.691484 0.002809 0.251115
H45   H     H_    0.849770 0.676302 0.091905 0.249670
H46   H     H_    0.641504 0.642670 0.145964 0.200804
H47   H     H_    0.739522 0.552667 0.146625 0.204909
C55   C     C_3   0.316572 0.399301 0.898008 -0.389405
C56   C     C_3   0.225189 0.348841 0.954057 -0.868621
H48   H     H_    0.274602 0.302911 0.997191 0.251610
H49   H     H_    0.168915 0.391063 0.996667 0.244450
H50   H     H_    0.161791 0.313807 0.907720 0.250306
H51   H     H_    0.262665 0.441996 0.853697 0.204764
H52   H     H_    0.366259 0.354812 0.853446 0.202570

loop_
_geom_bond_atom_site_label_1
_geom_bond_atom_site_label_2
_ccdc_geom_bond_type
C21   C55   S    
C42   H14   S    
C48   H28   S    
C49   C50   S    
C27   C29   A    
C18   C21   A    
Cu1   Cu2   S    
C39   H9    S    
C25   N2    T    
Cu1   O5    S    
C26   N1    T    
Cu2   O2    S    
C55   C56   S    
C51   H41   S    
C52   H38   S    
C35   C37   A    
C17   H3    S    
C47   H31   S    
C1    O3    A    
C45   H26   S    
C2    O4    A    
C42   H15   S    
C56   H48   S    
C54   H43   S    
C44   H18   S    
C9    C13   S    
C53   H47   S    
C43   H22   S    
C17   C19   A    
C4    C40   A    
C56   H49   S    
C35   H7    S    
C53   C54   S    
C31   C33   A    
C1    C15   S    
C30   C47   S    
C2    C16   S    
C49   H37   S    
C18   C20   A    
C55   H51   S    
C5    C32   S    
C23   O7    A    
C6    C31   S    
C3    C39   A    
C24   O8    A    
C44   H19   S    
C3    C24   S    
C28   C43   S    
C46   H25   S    
C18   H4    S    
C7    C12   A    
C4    C6    A    
C10   C14   S    
C8    H12   S    
C4    C23   S    
C47   C48   S    
C43   C44   S    
C50   H35   S    
C40   H10   S    
C11   C51   S    
C32   C34   A    
C37   H1    S    
Cu1   N2    S    
C38   H2    S    
C43   H21   S    
C27   C41   S    
C1    O1    A    
Cu2   N1    S    
C29   C45   S    
C28   C38   A    
C56   H50   S    
C53   H46   S    
C50   H34   S    
C9    C11   A    
C10   C12   A    
C46   H24   S    
C20   C22   A    
C52   H40   S    
C48   H29   S    
C33   H5    S    
C44   H20   S    
C12   C49   S    
C13   C16   T    
C34   H6    S    
C7    H11   S    
C45   H27   S    
C36   H8    S    
C7    C9    A    
Cu2   O6    S    
C24   O6    A    
C19   C21   A    
C14   C15   T    
C8    C10   A    
Cu1   O4    S    
C46   H23   S    
C3    C5    A    
Cu2   O3    S    
C2    O2    A    
C51   H42   S    
C17   C22   A    
C54   H45   S    
C28   C30   A    
Cu1   O1    S    
C29   C31   A    
C41   H17   S    
C30   C32   A    
C20   C26   S    
C27   C37   A    
C8    C11   A    
C49   H36   S    
C36   C38   A    
C51   C52   S    
C33   C35   A    
C54   H44   S    
C42   H13   S    
C34   C36   A    
C50   H33   S    
C19   C25   S    
C45   C46   S    
C23   O5    A    
C52   H39   S    
C41   C42   S    
C48   H30   S    
C6    C39   A    
C47   H32   S    
Cu1   O8    S    
C41   H16   S    
C5    C40   A    
Cu2   O7    S    
C55   H52   S    
C22   C53   S    
