data_mof_unit_31501.cif
_audit_creation_date              2012-12-10T18:09:45-0500
_audit_creation_method            fapswitch 2.2
_symmetry_space_group_name_H-M    P1
_symmetry_Int_Tables_number       1
_space_group_crystal_system       triclinic
_cell_length_a                    10.682056
_cell_length_b                    12.694719
_cell_length_c                    13.203828
_cell_angle_alpha                 83.567794
_cell_angle_beta                  90.668406
_cell_angle_gamma                 101.642246
_cell_volume                      1742.52823874

loop_
_atom_site_label
_atom_site_type_symbol
_atom_type_description
_atom_site_fract_x
_atom_site_fract_y
_atom_site_fract_z
_atom_type_partial_charge
C1    C     C_R   0.475596 0.440563 0.690291 0.849343
C2    C     C_3   0.120728 0.495017 0.506048 0.017831
C3    C     C_3   0.088957 0.563779 0.407589 0.033208
C4    C     C_3   0.081299 0.545677 0.601260 0.008692
C5    C     C_R   0.505822 0.728027 0.058439 0.212049
C6    C     C_R   0.518710 0.593784 0.200815 -0.076800
C7    C     C_R   0.434582 0.295853 0.834984 -0.206651
C8    C     C_R   0.424250 0.263274 0.938849 -0.154245
C9    C     C_R   0.431641 0.340185 0.006932 -0.176841
C10   C     C_R   0.443190 0.451486 0.971127 0.093487
C11   C     C_R   0.431994 0.480777 0.866295 0.035902
C12   C     C_R   0.741408 0.499123 0.500009 0.856692
C13   C     C_R   0.467416 0.535106 0.035227 0.000774
C14   C     C_R   0.462061 0.643539 0.996892 0.050111
C15   C     C_R   0.413369 0.663284 0.898637 0.184122
C16   C     C_R   0.403487 0.582912 0.833460 -0.232536
C17   C     C_R   0.501791 0.513840 0.135816 -0.251129
C18   C     C_R   0.528499 0.701785 0.161715 -0.295167
C19   C     C_R   0.444142 0.405193 0.798025 -0.089048
C20   C     C_R   0.305968 0.081380 0.365178 -0.311072
C21   C     C_R   0.660653 0.798602 0.622898 -0.019738
C22   C     C_R   0.700679 0.902412 0.648760 -0.345906
C23   C     C_R   0.517048 0.559688 0.309367 0.889957
C24   C     C_R   0.641721 0.985843 0.606523 0.243880
C25   C     C_R   0.543655 0.964686 0.531682 -0.012742
C26   C     C_R   0.508977 0.855711 0.507236 0.142960
C27   C     C_R   0.477735 0.043307 0.479901 -0.054651
C28   C     C_R   0.378460 0.009136 0.410624 0.091587
C29   C     C_R   0.352203 0.903392 0.385083 0.165800
C30   C     C_R   0.416966 0.828223 0.433354 -0.281579
C31   C     C_R   0.504574 0.154816 0.491697 -0.083652
C32   C     C_R   0.335133 0.189278 0.381534 0.339287
C33   C     C_R   0.258246 0.497723 0.505216 0.902269
C34   C     C_3   0.901214 0.374894 0.515746 0.086813
C35   C     C_3   0.043857 0.376794 0.505879 -0.451189
C36   C     C_3   0.944046 0.561875 0.403852 -0.466390
C37   C     C_3   0.937824 0.550162 0.594325 -0.505216
C38   C     C_3   0.877181 0.495153 0.501108 0.086706
H1    H     H_    0.136689 0.630481 0.597945 0.158185
H2    H     H_    0.929292 0.646649 0.399578 0.163450
H3    H     H_    0.555367 0.765433 0.210736 0.164121
H4    H     H_    0.424242 0.309666 0.086666 0.123068
H5    H     H_    0.874535 0.343852 0.596620 0.106275
H6    H     H_    0.228272 0.053842 0.315511 0.201188
H7    H     H_    0.581717 0.193055 0.535201 0.212326
H8    H     H_    0.705147 0.734212 0.657397 0.154109
H9    H     H_    0.775162 0.917512 0.704796 0.153895
H10   H     H_    0.064004 0.343427 0.435200 0.228409
H11   H     H_    0.901451 0.531246 0.333468 0.175461
H12   H     H_    0.928582 0.636509 0.587854 0.185992
H13   H     H_    0.884475 0.509629 0.664568 0.176232
N1    N     N_R   0.433240 0.222190 0.444680 -0.142608
N2    N     N_R   0.566070 0.776970 0.554790 -0.124875
O1    O     O_R   0.468120 0.366740 0.627160 -0.621138
O2    O     O_R   0.510770 0.544830 0.662520 -0.625044
O3    O     O_R   0.663880 0.410950 0.482330 -0.596942
O4    O     O_R   0.706530 0.589040 0.517700 -0.629363
O5    O     O_R   0.489230 0.455170 0.337480 -0.637706
O6    O     O_R   0.531880 0.633260 0.372840 -0.631272
O7    O     O_R   0.293470 0.410960 0.482300 -0.591595
O8    O     O_R   0.336120 0.589050 0.517670 -0.663777
Zn1   Zn    Zn3+2 0.471520 0.381090 0.476390 0.944659
Zn2   Zn    Zn3+2 0.528480 0.618910 0.523610 0.915153
N3    N     N_2   0.825446 0.294329 0.456023 -0.277404
H14   H     H_    0.834440 0.216269 0.481023 0.216741
C39   C     C_3   0.815579 0.312338 0.346199 -0.731563
H15   H     H_    0.755132 0.239445 0.318693 0.222978
H16   H     H_    0.910007 0.324794 0.309078 0.208489
H17   H     H_    0.767192 0.380202 0.322704 0.246978
H18   H     H_    0.139113 0.647861 0.414206 0.126989
N4    N     N_2   0.354654 0.753911 0.871057 -0.313568
H19   H     H_    0.329748 0.792935 0.929812 0.238505
C40   C     C_3   0.402911 0.824545 0.780536 -0.755304
H20   H     H_    0.348255 0.890433 0.767421 0.226276
H21   H     H_    0.391498 0.779673 0.712591 0.244003
H22   H     H_    0.504785 0.861138 0.790428 0.270730
N5    N     N_2   0.540854 0.837854 0.015240 -0.311976
H23   H     H_    0.528748 0.892968 0.064115 0.220727
C41   C     C_3   0.667361 0.864264 0.969543 -0.797106
H24   H     H_    0.689527 0.950724 0.938203 0.227969
H25   H     H_    0.673022 0.814058 0.906668 0.250017
H26   H     H_    0.740167 0.850561 0.027727 0.241108
H27   H     H_    0.514652 0.434442 0.165933 0.152956
H28   H     H_    0.435381 0.235476 0.783646 0.162491
H29   H     H_    0.414970 0.178535 0.966890 0.141650
H30   H     H_    0.363378 0.597769 0.759129 0.208303
N6    N     N_2   0.270087 0.266655 0.328728 -0.260069
H31   H     H_    0.329488 0.323918 0.280768 0.254433
C42   C     C_3   0.148868 0.229421 0.280886 -0.895698
H32   H     H_    0.162571 0.185565 0.214946 0.240318
H33   H     H_    0.108361 0.299951 0.250427 0.240286
H34   H     H_    0.080230 0.177288 0.337155 0.256746
N7    N     N_2   0.258900 0.872899 0.310150 -0.318013
H35   H     H_    0.202217 0.797781 0.325693 0.224895
C43   C     C_3   0.304551 0.896137 0.205857 -0.846554
H36   H     H_    0.222562 0.880142 0.153465 0.244224
H37   H     H_    0.371445 0.843336 0.191979 0.240134
H38   H     H_    0.353559 0.982205 0.189204 0.250441
N8    N     N_2   0.681771 0.088028 0.643230 -0.336526
H39   H     H_    0.778835 0.108333 0.655566 0.216347
C44   C     C_3   0.608037 0.104110 0.729213 -0.845482
H40   H     H_    0.638621 0.188838 0.747052 0.244676
H41   H     H_    0.624195 0.048895 0.796991 0.247146
H42   H     H_    0.504461 0.089054 0.711384 0.251129
H43   H     H_    0.394901 0.748411 0.410703 0.217957
H44   H     H_    0.073750 0.321736 0.568918 0.147507
N9    N     N_2   0.133359 0.526446 0.316198 -0.288956
H45   H     H_    0.073373 0.461987 0.289516 0.237271
C45   C     C_3   0.189401 0.608108 0.235610 -0.827163
H46   H     H_    0.216438 0.568720 0.170458 0.249613
H47   H     H_    0.277635 0.658001 0.263268 0.252972
H48   H     H_    0.120042 0.659386 0.208957 0.244900
N10   N     N_2   0.109359 0.486768 0.697569 -0.308723
H49   H     H_    0.067393 0.405785 0.707398 0.233583
C46   C     C_3   0.098086 0.538666 0.788535 -0.810548
H50   H     H_    0.142476 0.496902 0.853477 0.250218
H51   H     H_    0.996288 0.533124 0.808755 0.236073
H52   H     H_    0.146703 0.625159 0.777557 0.261754

loop_
_geom_bond_atom_site_label_1
_geom_bond_atom_site_label_2
_ccdc_geom_bond_type
C2    C35   S    
O5    Zn1   S    
C23   O5    A    
C39   H16   S    
N6    H31   S    
N7    H35   S    
C24   N8    S    
N9    C45   S    
C40   H20   S    
C43   H36   S    
C31   N1    A    
C43   H38   S    
C7    C8    A    
N5    H23   S    
C23   O6    A    
C11   C19   A    
C9    H4    S    
C44   H40   S    
C28   C29   A    
C8    H29   S    
C45   H47   S    
C37   H13   S    
C39   H17   S    
C15   C16   A    
O7    Zn1   S    
C34   C35   S    
O8    Zn2   S    
C32   N1    A    
N10   H49   S    
C8    C9    A    
C46   H51   S    
O2    Zn2   S    
N9    H45   S    
C42   H33   S    
C29   C30   A    
C9    C10   A    
C7    H28   S    
C44   H41   S    
C21   C22   A    
C16   H30   S    
C40   H21   S    
C35   H10   S    
C20   H6    S    
O4    Zn2   S    
N5    C41   S    
C6    C18   A    
C1    C19   S    
C27   C31   A    
C4    N10   S    
C36   H2    S    
C3    H18   S    
C24   C25   A    
C45   H48   S    
C41   H25   S    
C29   N7    S    
C5    C18   A    
C20   C28   A    
C3    N9    S    
C25   C26   A    
C32   N6    S    
C17   H27   S    
N3    C39   S    
C2    C4    S    
C1    O1    A    
C37   C38   S    
C11   C16   A    
N8    H39   S    
C4    H1    S    
C46   H52   S    
C34   N3    S    
C42   H34   S    
C5    C14   A    
C12   O3    A    
C12   O4    A    
C2    C33   S    
N8    C44   S    
C26   C30   A    
C33   O7    A    
C7    C19   A    
N6    C42   S    
C30   H43   S    
C40   H22   S    
C22   C24   A    
C18   H3    S    
C5    N5    S    
C26   N2    A    
C15   N4    S    
N4    C40   S    
C21   H8    S    
C20   C32   A    
C6    C17   A    
C34   C38   S    
C34   H5    S    
C10   C13   A    
C41   H26   S    
C43   H37   S    
C25   C27   A    
O1    Zn1   S    
O6    Zn2   S    
C13   C17   A    
N3    H14   S    
C36   C38   S    
C2    C3    S    
C1    O2    A    
N4    H19   S    
C35   H44   S    
N1    Zn1   S    
C45   H46   S    
C21   N2    A    
C37   H12   S    
N2    Zn2   S    
N7    C43   S    
C3    C36   S    
C6    C23   S    
C39   H15   S    
O3    Zn1   S    
C12   C38   S    
C22   H9    S    
C10   C11   A    
C41   H24   S    
C4    C37   S    
C33   O8    A    
C31   H7    S    
C27   C28   A    
C14   C15   A    
C44   H42   S    
C42   H32   S    
C13   C14   A    
C36   H11   S    
C46   H50   S    
N10   C46   S    
