data_mof_unit_26450.cif
_audit_creation_date              2012-12-11T17:17:05-0500
_audit_creation_method            fapswitch 2.2
_symmetry_space_group_name_H-M    P1
_symmetry_Int_Tables_number       1
_space_group_crystal_system       triclinic
_cell_length_a                    6.940923
_cell_length_b                    13.377803
_cell_length_c                    14.675118
_cell_angle_alpha                 98.893707
_cell_angle_beta                  89.852256
_cell_angle_gamma                 90.230801
_cell_volume                      1346.25094029

loop_
_atom_site_label
_atom_site_type_symbol
_atom_type_description
_atom_site_fract_x
_atom_site_fract_y
_atom_site_fract_z
_atom_type_partial_charge
O1    O     O_R   0.354890 0.151580 0.148210 -0.530295
O2    O     O_R   0.645110 0.848420 0.851790 -0.530295
O3    O     O_R   0.682370 0.152980 0.336770 -0.533016
O4    O     O_R   0.317630 0.847020 0.663230 -0.533016
O5    O     O_R   0.854980 0.348430 0.351800 -0.543179
O6    O     O_R   0.145020 0.651570 0.648200 -0.543178
C1    C     C_R   0.513390 0.131345 0.366354 0.753679
C2    C     C_R   0.486610 0.868655 0.633646 0.753678
O7    O     O_R   0.684450 0.139580 0.148000 -0.532042
O8    O     O_R   0.315550 0.860420 0.852000 -0.532042
O9    O     O_R   0.857080 0.334940 0.161680 -0.543660
O10   O     O_R   0.142920 0.665060 0.838320 -0.543660
C3    C     C_R   0.515521 0.112684 0.114016 0.781211
C4    C     C_R   0.484479 0.887316 0.885984 0.781212
O11   O     O_R   0.352790 0.165070 0.338330 -0.544519
O12   O     O_R   0.647210 0.834930 0.661670 -0.544519
O13   O     O_3   0.522170 0.314120 0.254710 -0.378986
O14   O     O_3   0.477830 0.685880 0.745290 -0.378986
V1    V     V_3+5 0.796120 0.238110 0.249130 1.524460
V2    V     V_3+5 0.203880 0.761890 0.750870 1.524460
O15   O     O_R   0.186930 0.347040 0.163240 -0.532216
O16   O     O_R   0.813070 0.652960 0.836760 -0.532215
C5    C     C_R   0.018258 0.368657 0.133622 0.762777
C6    C     C_R   0.981742 0.631343 0.866378 0.762777
O17   O     O_R   0.184850 0.360440 0.352010 -0.544184
O18   O     O_R   0.815150 0.639560 0.647990 -0.544184
C7    C     C_R   0.015836 0.387326 0.385987 0.719296
C8    C     C_R   0.984164 0.612673 0.614013 0.719296
V3    V     V_3+5 0.296410 0.261900 0.250880 1.509991
V4    V     V_3+5 0.703590 0.738100 0.749120 1.509991
O19   O     O_3   0.020490 0.185890 0.245290 -0.363881
O20   O     O_3   0.979510 0.814110 0.754710 -0.363881
C9    C     C_1   0.005152 0.466907 0.466342 -0.159831
C10   C     C_1   0.994848 0.533093 0.533658 -0.159832
C11   C     C_3   0.179345 0.530738 0.982037 -0.192780
C12   C     C_3   0.820655 0.469262 0.017963 -0.192780
C13   C     C_3   0.079355 0.549455 0.078058 -0.202320
C14   C     C_3   0.920645 0.450545 0.921941 -0.202320
H1    H     H_    0.143255 0.590312 0.142582 0.173952
H2    H     H_    0.856745 0.409688 0.857418 0.173952
H3    H     H_    0.327537 0.555144 0.966802 0.176117
H4    H     H_    0.672463 0.444856 0.033198 0.176117
C15   C     C_3   0.008263 0.438685 0.062974 -0.155336
C16   C     C_3   0.991737 0.561315 0.937026 -0.155336
C17   C     C_3   0.106794 0.420188 0.968143 0.440716
C18   C     C_3   0.893206 0.579812 0.031857 0.440715
C19   C     C_3   0.318511 0.025686 0.480748 -0.197926
C20   C     C_3   0.681489 0.974314 0.519252 -0.197926
C21   C     C_3   0.398746 0.916038 0.467242 -0.217768
C22   C     C_3   0.601254 0.083962 0.532758 -0.217768
H5    H     H_    0.316804 0.846388 0.440107 0.162270
H6    H     H_    0.683196 0.153612 0.559893 0.162270
H7    H     H_    0.169053 0.047307 0.465553 0.161328
H8    H     H_    0.830947 0.952692 0.534447 0.161328
C23   C     C_3   0.495774 0.938460 0.562846 -0.142546
C24   C     C_3   0.504226 0.061540 0.437154 -0.142545
C25   C     C_3   0.416590 0.046690 0.576164 0.443283
C26   C     C_3   0.583410 0.953310 0.423836 0.443283
C27   C     C_1   0.504925 0.033103 0.033660 -0.098796
C28   C     C_1   0.495075 0.966897 0.966340 -0.098795
Cl1   Cl    Cl    0.251237 0.313394 0.925317 -0.604336
Cl2   Cl    Cl    0.748763 0.686606 0.074683 -0.604336
Cl3   Cl    Cl    0.304808 0.109615 0.678416 -0.591463
Cl4   Cl    Cl    0.695192 0.890385 0.321584 -0.591463

loop_
_geom_bond_atom_site_label_1
_geom_bond_atom_site_label_2
_ccdc_geom_bond_type
C20   C23   S    
V4    O20   S    
O13   V3    S    
C12   H4    S    
O4    C2    A    
V1    O19   S    
C19   C21   S    
C7    C9    S    
C20   H8    S    
O9    V1    S    
C18   Cl2   S    
C11   C13   S    
O3    C1    A    
O12   V4    S    
C5    C15   S    
C17   Cl1   S    
O7    C3    A    
C14   C17   S    
O5    C7    A    
O7    V1    S    
O6    C8    A    
O8    V2    S    
C21   H5    S    
C22   H6    S    
O3    V1    S    
O14   V4    S    
C19   H7    S    
C20   C22   S    
C8    C10   S    
C27   C28   T    
C2    O12   A    
O17   V3    S    
C1    C24   S    
C11   H3    S    
C2    C23   S    
C16   C18   S    
O11   V3    S    
C26   Cl4   S    
O8    C4    A    
C1    O11   A    
C21   C23   S    
O15   V3    S    
C22   C24   S    
C21   C26   S    
C13   C15   S    
C14   C16   S    
C19   C25   S    
O10   V2    S    
O1    V3    S    
C9    C10   T    
C12   C18   S    
C11   C16   S    
C15   C17   S    
O5    V1    S    
O18   V4    S    
C23   C25   S    
C6    C16   S    
O16   C6    A    
O1    C3    A    
C12   C14   S    
C11   C17   S    
O6    V2    S    
V2    O20   S    
O16   V4    S    
C22   C25   S    
C25   Cl3   S    
C20   C26   S    
C3    C27   S    
O17   C7    A    
C4    C28   S    
O10   C6    A    
O18   C8    A    
O2    V4    S    
O15   C5    A    
V3    O19   S    
C14   H2    S    
O9    C5    A    
O13   V1    S    
C24   C26   S    
O14   V2    S    
O2    C4    A    
O4    V2    S    
C13   H1    S    
C12   C15   S    
C13   C18   S    
C19   C24   S    
