data_mof_unit_23679.cif
_audit_creation_date              2012-12-11T15:22:25-0500
_audit_creation_method            fapswitch 2.2
_symmetry_space_group_name_H-M    P1
_symmetry_Int_Tables_number       1
_space_group_crystal_system       triclinic
_cell_length_a                    22.467918
_cell_length_b                    12.995664
_cell_length_c                    27.004838
_cell_angle_alpha                 90.032934
_cell_angle_beta                  90.565618
_cell_angle_gamma                 89.992179
_cell_volume                      7884.63589812

loop_
_atom_site_label
_atom_site_type_symbol
_atom_type_description
_atom_site_fract_x
_atom_site_fract_y
_atom_site_fract_z
_atom_type_partial_charge
C1    C     C_R   0.720516 0.344456 0.178165 0.536351
C2    C     C_R   0.279480 0.344500 0.821827 0.541532
C3    C     C_R   0.220516 0.844457 0.178165 0.536347
C4    C     C_R   0.779480 0.844500 0.821827 0.541531
C5    C     C_R   0.473968 0.162799 0.871986 -0.000268
C6    C     C_R   0.526072 0.162732 0.127999 -0.003726
C7    C     C_R   0.973968 0.662799 0.871986 -0.000275
C8    C     C_R   0.026072 0.662732 0.127999 -0.003724
C9    C     C_R   0.520518 0.257125 0.102886 -0.130218
C10   C     C_R   0.479471 0.257181 0.897163 -0.129069
C11   C     C_R   0.020518 0.757125 0.102886 -0.130216
C12   C     C_R   0.979471 0.757181 0.897163 -0.129066
C13   C     C_R   0.508879 0.258588 0.051770 0.013329
C14   C     C_R   0.491111 0.258618 0.948282 0.013232
C15   C     C_R   0.008879 0.758588 0.051770 0.013329
C16   C     C_R   0.991111 0.758618 0.948282 0.013231
C17   C     C_R   0.503685 0.164634 0.025844 0.059552
C18   C     C_R   0.496345 0.164650 0.974144 0.059205
C19   C     C_R   0.003685 0.664634 0.025844 0.059551
C20   C     C_R   0.996345 0.664650 0.974144 0.059206
C21   C     C_R   0.504704 0.351816 0.025720 -0.134223
C22   C     C_R   0.495243 0.351831 0.974399 -0.134019
C23   C     C_R   0.004704 0.851816 0.025720 -0.134223
C24   C     C_R   0.995243 0.851831 0.974399 -0.134020
C25   C     C_R   0.738097 0.960518 0.129106 -0.025773
C26   C     C_R   0.261898 0.960565 0.870886 -0.025077
C27   C     C_R   0.238097 0.460518 0.129106 -0.025773
C28   C     C_R   0.761898 0.460564 0.870886 -0.025074
C29   C     C_R   0.792483 0.969355 0.104565 -0.147784
C30   C     C_R   0.207511 0.969411 0.895434 -0.146123
C31   C     C_R   0.292483 0.469355 0.104565 -0.147786
C32   C     C_R   0.707511 0.469411 0.895434 -0.146121
C33   C     C_R   0.795119 0.953102 0.053689 -0.156595
C34   C     C_R   0.204862 0.953063 0.946298 -0.156072
C35   C     C_R   0.295119 0.453101 0.053689 -0.156595
C36   C     C_R   0.704862 0.453063 0.946298 -0.156072
C37   C     C_R   0.743249 0.930150 0.026392 0.023486
C38   C     C_R   0.256721 0.930007 0.973587 0.023357
C39   C     C_R   0.243249 0.430150 0.026392 0.023486
C40   C     C_R   0.756721 0.430007 0.973587 0.023357
C41   C     C_R   0.688360 0.919170 0.051223 0.240346
C42   C     C_R   0.311613 0.919038 0.948749 0.240159
C43   C     C_R   0.188360 0.419170 0.051223 0.240346
C44   C     C_R   0.811613 0.419037 0.948749 0.240159
C45   C     C_R   0.553820 0.157208 0.177448 0.553338
C46   C     C_R   0.446200 0.157237 0.822543 0.568871
C47   C     C_R   0.053820 0.657208 0.177448 0.553344
C48   C     C_R   0.946200 0.657237 0.822543 0.568857
C49   C     C_R   0.686963 0.930794 0.102374 -0.062774
C50   C     C_R   0.313022 0.930764 0.897604 -0.062969
C51   C     C_R   0.186963 0.430794 0.102374 -0.062774
C52   C     C_R   0.813022 0.430764 0.897604 -0.062968
C53   C     C_R   0.723759 0.825286 0.951175 -0.122904
C54   C     C_R   0.276197 0.825107 0.048769 -0.122698
C55   C     C_R   0.223759 0.325285 0.951175 -0.122904
C56   C     C_R   0.776197 0.325107 0.048769 -0.122697
C57   C     C_R   0.729832 0.807624 0.900829 -0.128479
C58   C     C_R   0.270132 0.807469 0.099116 -0.128902
C59   C     C_R   0.229832 0.307624 0.900829 -0.128481
C60   C     C_R   0.770131 0.307469 0.099116 -0.128902
C61   C     C_R   0.785513 0.966701 0.892780 -0.119933
C62   C     C_R   0.214462 0.966577 0.107238 -0.121539
C63   C     C_R   0.285513 0.466701 0.892781 -0.119937
C64   C     C_R   0.714462 0.466577 0.107238 -0.121537
C65   C     C_R   0.778009 0.985747 0.943143 -0.120759
C66   C     C_R   0.221951 0.985591 0.056879 -0.121264
C67   C     C_R   0.278009 0.485746 0.943143 -0.120760
C68   C     C_R   0.721951 0.485591 0.056879 -0.121264
C69   C     C_R   0.747877 0.914218 0.972700 0.018959
C70   C     C_R   0.252080 0.914047 0.027280 0.019108
C71   C     C_R   0.247877 0.414218 0.972700 0.018959
C72   C     C_R   0.752080 0.414047 0.027280 0.019108
C73   C     C_R   0.762033 0.876836 0.871478 0.028454
C74   C     C_R   0.237949 0.876720 0.128507 0.026960
C75   C     C_R   0.262033 0.376836 0.871478 0.028450
C76   C     C_R   0.737949 0.376720 0.128507 0.026960
C77   C     C_R   0.526686 0.168275 0.371262 -0.035595
C78   C     C_R   0.466527 0.166225 0.627787 -0.024782
C79   C     C_R   0.026695 0.668273 0.371265 -0.035582
C80   C     C_R   0.966538 0.666219 0.627790 -0.024808
C81   C     C_R   0.506062 0.263045 0.391488 0.301861
C82   C     C_R   0.518988 0.217588 0.613258 0.299940
C83   C     C_R   0.006054 0.763035 0.391487 0.301857
C84   C     C_R   0.018954 0.717720 0.613259 0.299956
C85   C     C_R   0.495408 0.270277 0.442962 0.259183
C86   C     C_R   0.531929 0.225969 0.562229 0.267814
C87   C     C_R   0.995396 0.770268 0.442961 0.259173
C88   C     C_R   0.031896 0.726101 0.562230 0.267836
C89   C     C_R   0.731054 0.002381 0.179184 0.545297
C90   C     C_R   0.268949 0.002413 0.820819 0.544594
C91   C     C_R   0.231054 0.502381 0.179184 0.545290
C92   C     C_R   0.768949 0.502413 0.820819 0.544598
C93   C     C_R   0.503273 0.181978 0.473205 -0.040216
C94   C     C_R   0.491995 0.182160 0.526783 -0.042713
C95   C     C_R   0.003290 0.681983 0.473208 -0.040202
C96   C     C_R   0.992009 0.682160 0.526786 -0.042693
C97   C     C_R   0.518887 0.088134 0.452014 -0.168068
C98   C     C_R   0.440741 0.131645 0.542318 -0.170079
C99   C     C_R   0.018930 0.588146 0.452021 -0.168076
C100  C     C_R   0.940802 0.631505 0.542324 -0.170095
C101  C     C_R   0.530357 0.081256 0.401970 -0.187084
C102  C     C_R   0.428177 0.123980 0.592073 -0.187532
C103  C     C_R   0.030395 0.581264 0.401977 -0.187074
C104  C     C_R   0.928238 0.623835 0.592078 -0.187536
C105  C     C_R   0.739574 0.958501 0.372416 0.020906
C106  C     C_R   0.258227 0.952596 0.629262 0.007662
C107  C     C_R   0.239585 0.458470 0.372408 0.020904
C108  C     C_R   0.758212 0.452550 0.629276 0.007685
C109  C     C_R   0.689626 0.920704 0.397371 -0.125541
C110  C     C_R   0.306957 0.910211 0.604398 -0.134034
C111  C     C_R   0.189643 0.420643 0.397361 -0.125550
C112  C     C_R   0.806934 0.410137 0.604412 -0.134067
C113  C     C_R   0.691745 0.907158 0.448182 -0.119282
C114  C     C_R   0.303514 0.892744 0.553894 -0.125544
C115  C     C_R   0.191769 0.407075 0.448171 -0.119297
C116  C     C_R   0.803479 0.392633 0.553910 -0.125527
C117  C     C_R   0.744450 0.927626 0.474572 0.026780
C118  C     C_R   0.250600 0.913813 0.527884 0.031365
C119  C     C_R   0.244473 0.427554 0.474560 0.026773
C120  C     C_R   0.750560 0.413696 0.527905 0.031413
C121  C     C_R   0.795908 0.956574 0.449001 -0.106018
C122  C     C_R   0.199907 0.945473 0.553768 -0.067947
C123  C     C_R   0.295927 0.456523 0.448989 -0.106005
C124  C     C_R   0.699874 0.445370 0.553792 -0.067901
C125  C     C_R   0.793253 0.973049 0.398240 -0.099249
C126  C     C_R   0.203817 0.965607 0.604191 -0.082105
C127  C     C_R   0.293265 0.473018 0.398230 -0.099251
C128  C     C_R   0.703795 0.465536 0.604212 -0.082059
C129  C     C_R   0.780003 0.986595 0.557573 -0.100527
C130  C     C_R   0.215720 0.976088 0.445263 -0.111214
C131  C     C_R   0.280015 0.486547 0.557559 -0.100571
C132  C     C_R   0.715684 0.475996 0.445287 -0.111204
C133  C     C_R   0.720984 0.346515 0.321987 0.537765
C134  C     C_R   0.278714 0.347270 0.678373 0.541558
C135  C     C_R   0.220987 0.846522 0.321984 0.537767
C136  C     C_R   0.778712 0.847274 0.678375 0.541560
C137  C     C_R   0.787308 0.968926 0.608035 -0.103946
C138  C     C_R   0.210107 0.962434 0.394363 -0.100734
C139  C     C_R   0.287313 0.468898 0.608025 -0.103976
C140  C     C_R   0.710085 0.462376 0.394383 -0.100714
C141  C     C_R   0.720364 0.822773 0.601842 -0.118983
C142  C     C_R   0.276168 0.814923 0.399500 -0.124462
C143  C     C_R   0.220387 0.322720 0.601833 -0.119008
C144  C     C_R   0.776139 0.314856 0.399512 -0.124468
C145  C     C_R   0.714341 0.838725 0.551441 -0.117352
C146  C     C_R   0.280394 0.826770 0.450292 -0.116561
C147  C     C_R   0.214372 0.338652 0.551430 -0.117378
C148  C     C_R   0.780351 0.326669 0.450306 -0.116562
C149  C     C_R   0.745692 0.918538 0.528625 0.037454
C150  C     C_R   0.248985 0.905719 0.473766 0.030338
C151  C     C_R   0.245717 0.418470 0.528613 0.037431
C152  C     C_R   0.748941 0.405610 0.473786 0.030339
C153  C     C_R   0.759322 0.884393 0.629958 0.030754
C154  C     C_R   0.238803 0.879674 0.371504 0.022637
C155  C     C_R   0.259330 0.384366 0.629950 0.030742
C156  C     C_R   0.738787 0.379632 0.371517 0.022631
C157  C     C_R   0.553904 0.159110 0.321629 0.576787
C158  C     C_R   0.446129 0.158711 0.678847 0.611824
C159  C     C_R   0.053906 0.659110 0.321629 0.576808
C160  C     C_R   0.946128 0.658710 0.678846 0.611779
C161  C     C_R   0.731520 0.002601 0.323169 0.549364
C162  C     C_R   0.268069 0.001442 0.677282 0.537016
C163  C     C_R   0.231522 0.502595 0.323167 0.549356
C164  C     C_R   0.768066 0.501435 0.677285 0.537067
C165  C     C_R   0.515766 0.070214 0.102401 -0.123412
C166  C     C_R   0.484331 0.070277 0.897522 -0.121843
C167  C     C_R   0.015766 0.570214 0.102401 -0.123411
C168  C     C_R   0.984331 0.570277 0.897522 -0.121851
C169  C     C_R   0.506471 0.070301 0.051488 0.012091
C170  C     C_R   0.493601 0.070334 0.948435 0.011653
C171  C     C_R   0.006471 0.570301 0.051488 0.012091
C172  C     C_R   0.993601 0.570334 0.948435 0.011654
C173  C     C_R   0.497353 0.977121 0.974259 -0.087141
C174  C     C_R   0.502730 0.977105 0.025600 -0.087430
C175  C     C_R   0.997353 0.477121 0.974259 -0.087142
C176  C     C_R   0.002731 0.477105 0.025600 -0.087430
Cr1   Cr    Cr6+3 0.756570 0.170940 0.251190 1.025882
Cr2   Cr    Cr6+3 0.243430 0.170940 0.748810 1.035058
Cr3   Cr    Cr6+3 0.256570 0.670940 0.251190 1.025862
Cr4   Cr    Cr6+3 0.743430 0.670940 0.748810 1.035060
Cr5   Cr    Cr6+3 0.623740 0.299110 0.249580 1.111656
Cr6   Cr    Cr6+3 0.376260 0.299110 0.750420 1.071843
Cr7   Cr    Cr6+3 0.123740 0.799110 0.249580 1.111649
Cr8   Cr    Cr6+3 0.876260 0.799110 0.750420 1.071926
Cr9   Cr    Cr6+3 0.625990 0.036240 0.250480 1.020781
Cr10  Cr    Cr6+3 0.374010 0.036240 0.749520 1.028759
Cr11  Cr    Cr6+3 0.125990 0.536240 0.250480 1.020777
Cr12  Cr    Cr6+3 0.874010 0.536240 0.749520 1.028738
H1    H     H_    0.480581 0.997005 0.878508 0.137068
H2    H     H_    0.519568 0.996938 0.121365 0.136158
H3    H     H_    0.980580 0.497005 0.878508 0.137066
H4    H     H_    0.019568 0.496938 0.121365 0.136159
H5    H     H_    0.811091 0.020296 0.870855 0.129008
H6    H     H_    0.188890 0.020202 0.129189 0.128761
H7    H     H_    0.311092 0.520296 0.870855 0.129005
H8    H     H_    0.688890 0.520202 0.129189 0.128763
H9    H     H_    0.644208 0.925384 0.120422 0.156154
H10   H     H_    0.355780 0.925350 0.879556 0.155707
H11   H     H_    0.144208 0.425384 0.120422 0.156154
H12   H     H_    0.855780 0.425350 0.879556 0.155708
H13   H     H_    0.410150 0.097903 0.515584 0.144477
H14   H     H_    0.523706 0.019893 0.474785 0.139133
H15   H     H_    0.910248 0.597657 0.515593 0.144454
H16   H     H_    0.023772 0.519914 0.474796 0.139129
H17   H     H_    0.387346 0.086103 0.602848 0.138755
H18   H     H_    0.545243 0.007654 0.387914 0.150429
H19   H     H_    0.887441 0.585850 0.602852 0.138790
H20   H     H_    0.045298 0.507670 0.387925 0.150425
H21   H     H_    0.647441 0.909225 0.378414 0.131843
H22   H     H_    0.349428 0.898862 0.622931 0.137002
H23   H     H_    0.147458 0.409158 0.378404 0.131827
H24   H     H_    0.849408 0.398795 0.622940 0.136965
H25   H     H_    0.802938 0.050979 0.540925 0.109395
H26   H     H_    0.192715 0.039825 0.462438 0.108730
H27   H     H_    0.302944 0.550935 0.540910 0.109403
H28   H     H_    0.692678 0.539727 0.462466 0.108743
H29   H     H_    0.817099 0.017836 0.629285 0.135489
H30   H     H_    0.181237 0.013320 0.373336 0.154117
H31   H     H_    0.317093 0.517825 0.629275 0.135479
H32   H     H_    0.681222 0.513278 0.373359 0.154144
H33   H     H_    0.494957 0.904216 0.954835 0.140733
H34   H     H_    0.505143 0.904188 0.044974 0.140472
H35   H     H_    0.994957 0.404216 0.954835 0.140733
H36   H     H_    0.005143 0.404188 0.044974 0.140472
H37   H     H_    0.651295 0.885349 0.466941 0.108383
H38   H     H_    0.343387 0.868591 0.534940 0.106474
H39   H     H_    0.151322 0.385246 0.466930 0.108371
H40   H     H_    0.843347 0.368467 0.534955 0.106459
H41   H     H_    0.687947 0.784614 0.530066 0.105195
H42   H     H_    0.305893 0.770817 0.471289 0.109632
H43   H     H_    0.187988 0.284525 0.530055 0.105197
H44   H     H_    0.805845 0.270704 0.471300 0.109630
H45   H     H_    0.698381 0.756583 0.617784 0.139140
H46   H     H_    0.298401 0.749623 0.382923 0.139534
H47   H     H_    0.198409 0.256528 0.617778 0.139156
H48   H     H_    0.798375 0.249565 0.382929 0.139537
H49   H     H_    0.837687 0.969403 0.468371 0.144816
H50   H     H_    0.157922 0.958438 0.534753 0.147678
H51   H     H_    0.337705 0.469360 0.468359 0.144836
H52   H     H_    0.657885 0.458329 0.534781 0.147649
H53   H     H_    0.832026 0.002820 0.379704 0.168940
H54   H     H_    0.165347 0.996755 0.622852 0.172371
H55   H     H_    0.332035 0.502807 0.379693 0.168879
H56   H     H_    0.665330 0.496699 0.622874 0.172343
H57   H     H_    0.471658 0.328867 0.877646 0.131564
H58   H     H_    0.528287 0.328811 0.122453 0.132075
H59   H     H_    0.971658 0.828867 0.877646 0.131571
H60   H     H_    0.028287 0.828811 0.122453 0.132076
H61   H     H_    0.491277 0.424660 0.955136 0.110650
H62   H     H_    0.508637 0.424635 0.045035 0.110659
H63   H     H_    0.991277 0.924660 0.955136 0.110652
H64   H     H_    0.008637 0.924635 0.045035 0.110659
H65   H     H_    0.832459 0.992510 0.124352 0.142677
H66   H     H_    0.167542 0.992627 0.875662 0.143784
H67   H     H_    0.332459 0.492509 0.124352 0.142674
H68   H     H_    0.667542 0.492627 0.875662 0.143782
H69   H     H_    0.701418 0.768287 0.973605 0.140065
H70   H     H_    0.298537 0.768092 0.026312 0.140153
H71   H     H_    0.201418 0.268287 0.973605 0.140065
H72   H     H_    0.798537 0.268091 0.026312 0.140154
H73   H     H_    0.712570 0.736346 0.885602 0.139040
H74   H     H_    0.287392 0.736193 0.114315 0.139234
H75   H     H_    0.212570 0.236346 0.885602 0.139041
H76   H     H_    0.787392 0.236193 0.114315 0.139234
H77   H     H_    0.837640 0.960143 0.035406 0.122577
H78   H     H_    0.162338 0.960117 0.964580 0.122905
H79   H     H_    0.337640 0.460143 0.035406 0.122577
H80   H     H_    0.662338 0.460117 0.964580 0.122905
H81   H     H_    0.796736 0.055037 0.959275 0.113833
H82   H     H_    0.203223 0.054887 0.040784 0.113662
H83   H     H_    0.296736 0.555037 0.959275 0.113833
H84   H     H_    0.703223 0.554887 0.040784 0.113662
O1    O     O_R   0.769900 0.064540 0.196060 -0.511899
O2    O     O_R   0.230100 0.064540 0.803940 -0.510794
O3    O     O_R   0.269900 0.564540 0.196060 -0.511906
O4    O     O_R   0.730100 0.564540 0.803940 -0.510797
O5    O     O_R   0.574760 0.239320 0.300850 -0.421202
O6    O     O_R   0.425240 0.239320 0.699150 -0.462242
O7    O     O_R   0.074760 0.739320 0.300850 -0.421206
O8    O     O_R   0.925240 0.739320 0.699150 -0.462153
O9    O     O_R   0.566290 0.069580 0.305400 -0.532243
O10   O     O_R   0.433710 0.069580 0.694600 -0.513138
O11   O     O_R   0.066290 0.569580 0.305400 -0.532239
O12   O     O_R   0.933710 0.569580 0.694600 -0.513192
O13   O     O_R   0.680760 0.993330 0.302620 -0.507257
O14   O     O_R   0.319240 0.993330 0.697380 -0.510752
O15   O     O_R   0.180760 0.493330 0.302620 -0.507259
O16   O     O_R   0.819240 0.493330 0.697380 -0.510759
O17   O     O_3   0.668770 0.168760 0.250420 -0.261615
O18   O     O_3   0.331230 0.168760 0.749580 -0.261103
O19   O     O_3   0.168770 0.668760 0.250420 -0.261608
O20   O     O_3   0.831230 0.668760 0.749580 -0.261108
O21   O     O_R   0.750800 0.274080 0.199250 -0.507585
O22   O     O_R   0.249200 0.274080 0.800750 -0.504431
O23   O     O_R   0.250800 0.774080 0.199250 -0.507587
O24   O     O_R   0.749200 0.774080 0.800750 -0.504434
O25   O     O_R   0.669990 0.371670 0.194150 -0.517040
O26   O     O_R   0.330010 0.371670 0.805850 -0.518671
O27   O     O_R   0.169990 0.871670 0.194150 -0.517043
O28   O     O_R   0.830010 0.871670 0.805850 -0.518671
O29   O     O_R   0.574600 0.238480 0.197800 -0.489457
O30   O     O_R   0.425400 0.238480 0.802200 -0.489915
O31   O     O_R   0.074600 0.738480 0.197800 -0.489457
O32   O     O_R   0.925400 0.738480 0.802200 -0.489891
O33   O     O_R   0.566130 0.068680 0.194240 -0.526504
O34   O     O_R   0.433870 0.068680 0.805760 -0.521693
O35   O     O_R   0.066130 0.568680 0.194240 -0.526504
O36   O     O_R   0.933870 0.568680 0.805760 -0.521710
O37   O     O_R   0.680610 0.992490 0.199570 -0.508954
O38   O     O_R   0.319390 0.992490 0.800430 -0.510456
O39   O     O_R   0.180610 0.492490 0.199570 -0.508957
O40   O     O_R   0.819390 0.492490 0.800430 -0.510456
O41   O     O_R   0.770060 0.065440 0.307230 -0.517861
O42   O     O_R   0.229940 0.065440 0.692770 -0.512474
O43   O     O_R   0.270060 0.565440 0.307230 -0.517876
O44   O     O_R   0.729940 0.565440 0.692770 -0.512464
O45   O     O_R   0.750960 0.274920 0.302300 -0.513187
O46   O     O_R   0.249040 0.274920 0.697700 -0.505917
O47   O     O_R   0.250960 0.774920 0.302300 -0.513184
O48   O     O_R   0.749040 0.774920 0.697700 -0.505915
O49   O     O_R   0.670160 0.372580 0.305320 -0.477905
O50   O     O_R   0.329840 0.372580 0.694680 -0.512647
O51   O     O_R   0.170160 0.872580 0.305320 -0.477921
O52   O     O_R   0.829840 0.872580 0.694680 -0.512637
O53   O     O_3   0.634834 0.902205 0.027084 -0.733619
H85   H     H_    0.637545 0.927922 0.992698 0.332748
O54   O     O_3   0.365137 0.901998 0.972875 -0.733846
H86   H     H_    0.362420 0.927643 0.007288 0.332107
O55   O     O_3   0.134834 0.402205 0.027084 -0.733620
H87   H     H_    0.137545 0.427922 0.992698 0.332747
O56   O     O_3   0.865136 0.401998 0.972875 -0.733846
H88   H     H_    0.862420 0.427642 0.007288 0.332108
S1    S     S_3+6 0.492237 0.372648 0.353463 0.053587
O57   O     O_2   0.549792 0.429258 0.346064 -0.275748
O58   O     O_2   0.467529 0.339385 0.304045 -0.297391
O59   O     O_3   0.443248 0.453110 0.379783 -0.488939
H89   H     H_    0.443181 0.515184 0.358508 0.350152
S2    S     S_3+6 0.569428 0.270202 0.657603 0.045798
O60   O     O_2   0.558507 0.384013 0.661300 -0.284514
O61   O     O_2   0.561512 0.221978 0.707692 -0.300174
O62   O     O_3   0.639804 0.250111 0.639218 -0.470961
H90   H     H_    0.665077 0.280388 0.665723 0.355256
S3    S     S_3+6 0.992211 0.872621 0.353457 0.053590
O63   O     O_2   0.049761 0.929247 0.346048 -0.275830
O64   O     O_2   0.967499 0.839337 0.304044 -0.297303
O65   O     O_3   0.943218 0.953077 0.379775 -0.488951
H91   H     H_    0.943220 0.015221 0.358549 0.350171
S4    S     S_3+6 0.069347 0.770487 0.657599 0.045820
O66   O     O_2   0.058380 0.884294 0.661234 -0.284428
O67   O     O_2   0.061425 0.722362 0.707710 -0.300176
O68   O     O_3   0.139737 0.750432 0.639247 -0.471052
H92   H     H_    0.164988 0.780788 0.665746 0.355244
O69   O     O_3   0.478337 0.364272 0.462277 -0.630873
H93   H     H_    0.468575 0.357577 0.497733 0.327359
O70   O     O_3   0.583469 0.276485 0.548718 -0.634834
H94   H     H_    0.588557 0.273452 0.512435 0.328073
O71   O     O_3   0.978295 0.864250 0.462270 -0.630878
H95   H     H_    0.968508 0.857542 0.497722 0.327378
O72   O     O_3   0.083395 0.776745 0.548719 -0.634839
H96   H     H_    0.088506 0.773666 0.512438 0.328093

loop_
_geom_bond_atom_site_label_1
_geom_bond_atom_site_label_2
_ccdc_geom_bond_type
C99   C103  A    
C7    C168  A    
O71   H95   S    
C37   C69   S    
C99   H16   S    
C142  C146  A    
C77   C101  A    
C19   C20   A    
C174  H34   S    
C45   O33   A    
C97   H14   S    
C53   C69   A    
C38   C70   S    
C50   H10   S    
S1    O57   D    
C108  C164  S    
C116  H40   S    
C68   H84   S    
C55   C59   A    
C26   C50   A    
C95   C99   A    
C78   C102  A    
C29   C33   A    
C100  C104  A    
C3    C74   S    
C9    C13   A    
C146  C150  A    
C147  H43   S    
C140  H32   S    
C12   C16   A    
C56   C72   A    
C169  C174  A    
C132  H28   S    
C29   H65   S    
C92   O4    A    
Cr8   O20   S    
C172  C175  A    
C141  C145  A    
C138  C154  A    
C6    C165  A    
C48   O32   A    
C21   C22   A    
C89   O1    A    
C36   H80   S    
C56   H72   S    
C109  H21   S    
C41   C49   A    
C42   O54   S    
Cr12  O20   S    
C18   C170  A    
C165  C169  A    
C27   C31   A    
C28   C32   A    
Cr9   O17   S    
Cr10  O14   S    
C62   C66   A    
C167  C171  A    
Cr4   O44   S    
C98   C102  A    
C60   C76   A    
C83   S3    S    
C115  H39   S    
C23   H64   S    
C66   H82   S    
Cr5   O49   S    
C78   C82   A    
C113  H37   S    
C134  C155  S    
C54   C70   A    
Cr3   O3    S    
C16   C20   A    
C165  H2    S    
C13   C21   A    
C9    H58   S    
C3    O27   A    
Cr8   O32   S    
C162  O14   A    
C20   C172  A    
C54   H70   S    
C62   H6    S    
C130  C138  A    
S1    O59   S    
C160  O12   A    
C24   H63   S    
C84   C88   A    
O59   H89   S    
Cr7   O7    S    
C119  C123  A    
C26   C90   S    
C12   H59   S    
C5    C46   S    
Cr1   O17   S    
C105  C125  A    
Cr7   O19   S    
C7    C48   S    
Cr6   O30   S    
C132  C152  A    
C8    C47   S    
C133  O45   A    
C79   C159  S    
C136  C153  S    
C66   C70   A    
S4    O66   D    
C130  H26   S    
C80   C160  S    
C157  O5    A    
C61   C65   A    
C158  O10   A    
C129  C137  A    
C141  H45   S    
C137  H29   S    
O72   H96   S    
C175  H35   S    
C47   O35   A    
C4    O28   A    
C35   H79   S    
C55   C71   A    
C2    C75   S    
C90   O38   A    
C44   O56   S    
Cr12  O12   S    
Cr6   O50   S    
C159  O7    A    
O68   H92   S    
C160  O8    A    
C134  O50   A    
C6    C9    A    
Cr6   O6    S    
C49   H9    S    
C121  C125  A    
Cr4   O20   S    
C64   C68   A    
C59   H75   S    
C100  H15   S    
C118  C122  A    
C104  H19   S    
C57   C73   A    
C162  O42   A    
C143  C155  A    
C78   C158  S    
C25   C49   A    
C87   C95   A    
C126  H54   S    
C23   C24   A    
C27   C91   S    
C52   H12   S    
C45   O29   A    
Cr12  O36   S    
C110  C114  A    
C44   C52   A    
Cr9   O33   S    
C79   C103  A    
C11   C15   A    
C27   C51   A    
C123  H51   S    
C7    C12   A    
C30   C34   A    
C127  H55   S    
C163  O43   A    
C10   C14   A    
C21   H62   S    
S4    O68   S    
C108  C128  A    
C116  C120  A    
C144  C156  A    
C147  C151  A    
C129  C149  A    
C123  C127  A    
C139  C155  A    
C54   C58   A    
C17   C18   A    
C90   O2    A    
C5    C166  A    
C142  C154  A    
C4    C73   S    
C42   C50   A    
C113  C117  A    
C107  C163  S    
C166  C170  A    
S2    O61   D    
S3    O64   D    
C105  C161  S    
Cr10  O18   S    
C61   H5    S    
C112  C116  A    
C58   C74   A    
Cr4   O48   S    
O70   H94   S    
C145  H41   S    
C39   C71   S    
C40   C72   S    
Cr8   O52   S    
C1    C76   S    
C107  C111  A    
C148  C152  A    
C53   C57   A    
C117  C149  S    
C26   C30   A    
Cr8   O8    S    
S2    O62   S    
C171  C176  A    
C115  C119  A    
C1    O21   A    
C166  H1    S    
C14   C22   A    
C3    O23   A    
Cr8   O28   S    
C135  O47   A    
C122  H50   S    
C63   C75   A    
C136  O48   A    
C64   H8    S    
C55   H71   S    
Cr1   O41   S    
C129  H25   S    
C131  C139  A    
C101  H18   S    
C139  H31   S    
C40   C44   A    
Cr9   O9    S    
C81   C85   A    
C83   C87   A    
C88   C96   A    
Cr1   O21   S    
C6    C45   S    
C93   C97   A    
Cr2   O18   S    
C133  C156  S    
C60   H76   S    
C98   H13   S    
Cr3   O23   S    
C80   C84   A    
C173  H33   S    
O69   H93   S    
Cr1   O1    S    
C15   C19   A    
C86   O70   S    
C57   H73   S    
C135  C154  S    
C80   C104  A    
C11   H60   S    
C1    O25   A    
C92   O40   A    
C124  H52   S    
C158  O6    A    
C94   C98   A    
C135  O51   A    
C88   O72   S    
C118  C150  S    
C14   C18   A    
C105  C109  A    
Cr12  O16   S    
C159  O11   A    
C30   H66   S    
C148  H44   S    
C176  H36   S    
C46   O34   A    
C124  C128  A    
C67   H83   S    
C34   C38   A    
C58   H74   S    
C25   C29   A    
Cr5   O17   S    
C110  H22   S    
Cr7   O27   S    
S1    O58   D    
C163  O15   A    
C85   O69   S    
C144  H48   S    
C53   H69   S    
Cr6   O26   S    
C164  O16   A    
C61   C73   A    
C173  C174  A    
C131  H27   S    
C33   C37   A    
C108  C112  A    
C33   H77   S    
Cr12  O40   S    
C35   C39   A    
O56   H88   S    
C8    C167  A    
C114  H38   S    
C77   C81   A    
C32   H68   S    
Cr9   O37   S    
Cr10  O34   S    
C10   H57   S    
Cr11  O39   S    
Cr5   O25   S    
C63   H7    S    
Cr1   O45   S    
Cr2   O42   S    
C32   C36   A    
Cr3   O47   S    
C133  O49   A    
Cr11  O11   S    
C31   H67   S    
C132  C140  A    
C106  C126  A    
C25   C89   S    
C91   O3    A    
O54   H86   S    
C82   C86   A    
C79   C83   A    
C43   C51   A    
C65   C69   A    
C67   C71   A    
C106  C162  S    
O53   H85   S    
C111  H23   S    
Cr11  O19   S    
C13   C17   A    
C56   C60   A    
C168  C172  A    
C81   S1    S    
C62   C74   A    
C145  C149  A    
C164  O44   A    
C170  C173  A    
Cr7   O51   S    
S3    O63   D    
C43   O55   S    
C93   C94   S    
O55   H87   S    
C2    O22   A    
C95   C96   S    
C144  C148  A    
C141  C153  A    
C134  O46   A    
O62   H90   S    
C143  C147  A    
C167  H4    S    
C168  H3    S    
C112  H24   S    
C19   C171  A    
C38   C42   A    
C17   C169  A    
C96   C100  A    
Cr4   O24   S    
C41   O53   S    
C143  H47   S    
Cr9   O13   S    
C117  C121  A    
Cr10  O10   S    
Cr11  O15   S    
C175  C176  A    
Cr2   O22   S    
C125  H53   S    
C86   C94   A    
C68   C72   A    
Cr2   O2    S    
C15   C23   A    
C16   C24   A    
C37   C41   A    
C85   C93   A    
C2    O26   A    
S4    O67   D    
C161  O13   A    
C119  C151  S    
C63   C67   A    
C120  C152  S    
C137  C153  A    
C36   C40   A    
C103  H20   S    
C22   H61   S    
C39   C43   A    
C84   S4    S    
C122  C126  A    
C46   O30   A    
C130  C150  A    
C64   C76   A    
Cr5   O29   S    
C28   C92   S    
Cr6   O18   S    
C48   O36   A    
Cr3   O19   S    
C109  C113  A    
Cr7   O31   S    
C114  C118  A    
C51   H11   S    
C140  C156  A    
C59   C75   A    
C65   H81   S    
C157  O9    A    
C146  H42   S    
C87   O71   S    
C34   H78   S    
C121  H49   S    
C47   O31   A    
C4    O24   A    
C82   S2    S    
C89   O37   A    
C161  O41   A    
C91   O39   A    
Cr10  O38   S    
Cr11  O35   S    
C5    C10   A    
Cr4   O4    S    
Cr5   O5    S    
C28   C52   A    
O65   H91   S    
C8    C11   A    
C128  H56   S    
C131  C151  A    
C136  O52   A    
C31   C35   A    
Cr2   O46   S    
C102  H17   S    
Cr3   O43   S    
C142  H46   S    
C138  H30   S    
C106  C110  A    
S2    O60   D    
S3    O65   S    
C111  C115  A    
C107  C127  A    
C97   C101  A    
C120  C124  A    
C77   C157  S    
