data_mof_unit_33237.cif
_audit_creation_date              2012-10-26T18:33:56-0400
_audit_creation_method            fapswitch 2.2
_symmetry_space_group_name_H-M    P1
_symmetry_Int_Tables_number       1
_space_group_crystal_system       triclinic
_cell_length_a                    11.053202
_cell_length_b                    10.819431
_cell_length_c                    9.522351
_cell_angle_alpha                 90.181858
_cell_angle_beta                  102.916476
_cell_angle_gamma                 90.353364
_cell_volume                      1109.92421637

loop_
_atom_site_label
_atom_site_type_symbol
_atom_type_description
_atom_site_fract_x
_atom_site_fract_y
_atom_site_fract_z
_atom_type_partial_charge
C1    C     C_R   0.500392 0.262093 0.499974 0.545119
C2    C     C_2   0.872485 0.500168 0.591433 -0.131038
C3    C     C_2   0.067325 0.500722 0.515323 -0.166745
C4    C     C_2   0.932596 0.501485 0.484258 -0.162323
C5    C     C_R   0.527880 0.063674 0.383371 -0.151077
C6    C     C_R   0.476721 0.936290 0.618915 -0.133817
C7    C     C_R   0.527266 0.935816 0.383174 -0.144283
C8    C     C_R   0.476402 0.064157 0.618590 -0.142507
C9    C     C_R   0.501477 0.871732 0.500844 0.022589
C10   C     C_R   0.501436 0.128246 0.500487 0.019543
C11   C     C_3   0.328704 0.229833 0.059331 -0.003970
C12   C     C_R   0.500519 0.737897 0.500344 0.547374
C13   C     C_3   0.200817 0.201358 0.963316 -0.274273
C14   C     C_3   0.191452 0.067117 0.912002 -0.480389
C15   C     C_3   0.784262 0.647499 0.969921 0.000642
C16   C     C_3   0.824058 0.773527 0.038999 -0.275577
C17   C     C_3   0.958148 0.771757 0.125394 -0.479777
C18   C     C_R   0.262635 0.499838 0.441503 0.559142
C19   C     C_R   0.737376 0.500197 0.558454 0.554507
C20   C     C_R   0.420440 0.423924 0.054012 0.372413
C21   C     C_R   0.582441 0.572913 0.946704 0.371290
C22   C     C_R   0.419348 0.426780 0.903839 -0.036300
C23   C     C_R   0.579459 0.574510 0.095832 -0.037046
C24   C     C_2   0.127544 0.499908 0.408274 -0.131628
Cu1   Cu    Cu3+1 0.500000 0.500020 0.640660 0.983753
Cu2   Cu    Cu3+1 0.500000 0.499980 0.359340 0.984160
H1    H     H_    0.882310 0.502989 0.372142 0.148691
H2    H     H_    0.455666 0.112588 0.710094 0.119361
H3    H     H_    0.340396 0.170698 0.156377 0.161998
H4    H     H_    0.403914 0.202948 0.004313 0.091210
H5    H     H_    0.128245 0.218662 0.025045 0.171569
H6    H     H_    0.182682 0.262976 0.868019 0.151846
H7    H     H_    0.261386 0.048471 0.847116 0.144926
H8    H     H_    0.097525 0.049045 0.843819 0.151300
H9    H     H_    0.206828 0.003497 0.005590 0.148915
H10   H     H_    0.842624 0.627050 0.891825 0.155880
H11   H     H_    0.804062 0.572862 0.052444 0.091814
H12   H     H_    0.117585 0.500804 0.627464 0.155085
H13   H     H_    0.815007 0.844506 0.953174 0.173807
H14   H     H_    0.762588 0.800027 0.111627 0.151738
H15   H     H_    0.967963 0.705081 0.215603 0.149861
H16   H     H_    0.985022 0.865138 0.170934 0.150337
H17   H     H_    0.021702 0.745429 0.055094 0.149766
H18   H     H_    0.923069 0.498652 0.703314 0.086443
H19   H     H_    0.077157 0.499331 0.296271 0.099811
H20   H     H_    0.353753 0.370959 0.828373 0.115206
H21   H     H_    0.640126 0.635825 0.169899 0.114797
H22   H     H_    0.549692 0.111753 0.292436 0.119268
H23   H     H_    0.456399 0.888216 0.710684 0.139801
H24   H     H_    0.547915 0.887365 0.291648 0.123817
N1    N     N_R   0.500030 0.500030 0.852080 -0.243704
N2    N     N_R   0.499970 0.499970 0.147920 -0.243614
O1    O     O_R   0.499990 0.319660 0.618740 -0.520654
O2    O     O_3   0.659067 0.652713 0.891956 -0.534062
O3    O     O_R   0.500010 0.680340 0.381260 -0.521721
O4    O     O_R   0.499990 0.319630 0.381170 -0.478349
O5    O     O_R   0.500010 0.680370 0.618830 -0.458638
O6    O     O_R   0.320690 0.500020 0.575130 -0.517883
O7    O     O_R   0.679310 0.499980 0.424870 -0.516121
O8    O     O_R   0.320680 0.499990 0.337560 -0.443029
O9    O     O_R   0.679320 0.500010 0.662440 -0.465123
O10   O     O_3   0.334066 0.354626 0.106225 -0.534132

loop_
_geom_bond_atom_site_label_1
_geom_bond_atom_site_label_2
_ccdc_geom_bond_type
C14   H8    S    
C2    C4    D    
Cu1   N1    S    
Cu2   N2    S    
Cu2   O7    S    
C13   H6    S    
C11   O10   S    
C19   O7    A    
Cu2   O3    S    
C6    C9    A    
C17   H17   S    
C3    C24   D    
C5    C10   A    
C20   N2    A    
Cu1   O9    S    
C13   C14   S    
C11   H4    S    
C13   H5    S    
C11   C13   S    
C23   N2    A    
C16   C17   S    
Cu1   O5    S    
C14   H7    S    
C18   C24   S    
C12   O5    A    
C18   O8    A    
C5    H22   S    
C1    O4    A    
C16   H14   S    
C21   C23   A    
C6    H23   S    
C20   O10   S    
C21   O2    S    
C19   O9    A    
C9    C12   S    
C17   H15   S    
C12   O3    A    
C23   H21   S    
Cu1   O6    S    
C24   H19   S    
C16   H13   S    
C3    C4    S    
C15   O2    S    
C15   H10   S    
C21   N1    A    
C4    H1    S    
C11   H3    S    
C8    H2    S    
C5    C7    A    
C1    C10   S    
C2    H18   S    
C7    H24   S    
C7    C9    A    
C1    O1    A    
C17   H16   S    
C15   H11   S    
C6    C8    A    
Cu1   O1    S    
C22   H20   S    
Cu1   Cu2   S    
C2    C19   S    
Cu2   O8    S    
C14   H9    S    
C8    C10   A    
C18   O6    A    
C15   C16   S    
C3    H12   S    
C20   C22   A    
C22   N1    A    
Cu2   O4    S    
