data_mof_unit_41344.cif
_audit_creation_date              2012-12-10T17:38:12-0500
_audit_creation_method            fapswitch 2.2
_symmetry_space_group_name_H-M    P1
_symmetry_Int_Tables_number       1
_space_group_crystal_system       triclinic
_cell_length_a                    12.001687
_cell_length_b                    12.842515
_cell_length_c                    19.222811
_cell_angle_alpha                 89.902676
_cell_angle_beta                  85.831412
_cell_angle_gamma                 94.406386
_cell_volume                      2946.19559675

loop_
_atom_site_label
_atom_site_type_symbol
_atom_type_description
_atom_site_fract_x
_atom_site_fract_y
_atom_site_fract_z
_atom_type_partial_charge
C1    C     C_R   0.523149 0.700548 0.499021 1.041086
C2    C     C_R   0.476855 0.299455 0.501198 1.034381
C3    C     C_R   0.460799 0.187535 0.502505 -0.364515
C4    C     C_R   0.539102 0.812478 0.498878 -0.421668
C5    C     C_R   0.640757 0.971630 0.531878 0.391334
C6    C     C_R   0.358208 0.027859 0.471860 0.328175
C7    C     C_R   0.631625 0.863309 0.527625 0.510385
C8    C     C_R   0.367616 0.136168 0.474861 0.492262
C9    C     C_R   0.456476 0.867833 0.472478 0.689115
C10   C     C_R   0.543312 0.132583 0.529555 0.685161
C11   C     C_R   0.452616 0.973399 0.486698 -0.305498
C12   C     C_R   0.546785 0.026529 0.516426 -0.326461
C13   C     C_R   0.952077 0.403992 0.431891 0.254283
C14   C     C_R   0.047147 0.591292 0.570647 0.297003
C15   C     C_R   0.835989 0.414256 0.439901 0.625307
C16   C     C_R   0.163565 0.584063 0.561069 0.635222
C17   C     C_R   0.857473 0.539751 0.529011 0.787001
C18   C     C_R   0.142600 0.459657 0.471232 0.753844
C19   C     C_R   0.975604 0.532776 0.525911 -0.400596
C20   C     C_R   0.024047 0.464381 0.475515 -0.384613
C21   C     C_R   0.499106 0.496742 0.634270 1.066571
C22   C     C_R   0.500761 0.502246 0.365694 1.076059
C23   C     C_R   0.415909 0.423478 0.749148 0.283895
C24   C     C_R   0.585345 0.560704 0.247869 0.274943
C25   C     C_R   0.418006 0.421876 0.821766 0.563439
C26   C     C_R   0.587245 0.549654 0.175482 0.563619
C27   C     C_R   0.501206 0.482231 0.854438 -0.390058
C28   C     C_R   0.505658 0.483414 0.145546 -0.390038
C29   C     C_R   0.582297 0.545802 0.814851 0.563145
C30   C     C_R   0.422362 0.426642 0.187841 0.568365
C31   C     C_R   0.579920 0.549875 0.743032 0.560159
C32   C     C_R   0.421034 0.434953 0.259672 0.557808
C33   C     C_R   0.497354 0.489651 0.709783 -0.499795
C34   C     C_R   0.502035 0.501086 0.290108 -0.497767
C35   C     C_R   0.504896 0.477396 0.070011 0.446275
C36   C     C_R   0.502692 0.479148 0.930010 0.446636
N1    N     N_R   0.601244 0.487192 0.960434 -0.052267
N2    N     N_R   0.406392 0.468380 0.039561 -0.053971
N3    N     N_R   0.602299 0.486409 0.029381 -0.044114
N4    N     N_R   0.405332 0.469137 0.970628 -0.047833
N5    N     N_R   0.207800 0.519350 0.512860 -0.251713
N6    N     N_R   0.792200 0.480650 0.487140 -0.235829
O1    O     O_R   0.421690 0.658830 0.503430 -0.551951
O2    O     O_R   0.578310 0.341170 0.496570 -0.564692
O3    O     O_R   0.609320 0.646410 0.495180 -0.547863
O4    O     O_R   0.390680 0.353590 0.504820 -0.547016
O5    O     O_R   0.406160 0.506220 0.605990 -0.560095
O6    O     O_R   0.593840 0.493780 0.394010 -0.562568
O7    O     O_R   0.593780 0.493810 0.597740 -0.551709
O8    O     O_R   0.406220 0.506190 0.402260 -0.543309
Zn1   Zn    Zn3+2 0.374720 0.508290 0.505510 1.173222
Zn2   Zn    Zn3+2 0.625280 0.491710 0.494490 1.176737
S1    S     S_3+6 0.315351 0.338583 0.709068 0.142564
O9    O     O_2   0.373128 0.282334 0.650085 -0.336519
O10   O     O_2   0.258325 0.258851 0.759772 -0.129168
O11   O     O_3   0.217634 0.409642 0.678019 -0.488091
H1    H     H_    0.178399 0.362954 0.645157 0.367886
S2    S     S_3+6 0.683782 0.652537 0.283791 0.154563
O12   O     O_2   0.773599 0.595136 0.314200 -0.232867
O13   O     O_2   0.737346 0.728170 0.229217 -0.129464
O14   O     O_3   0.618136 0.720365 0.346871 -0.568036
H2    H     H_    0.677513 0.769202 0.364379 0.387515
S3    S     S_3+6 0.001784 0.316389 0.366790 0.237206
O15   O     O_2   0.081474 0.376114 0.314477 -0.093537
O16   O     O_2   0.062541 0.233728 0.400324 -0.120041
O17   O     O_3   0.897983 0.256978 0.323504 -0.418253
H3    H     H_    0.870012 0.195050 0.352291 0.398351
S4    S     S_3+6 0.996205 0.669918 0.640631 0.212501
O18   O     O_2   0.943623 0.761302 0.611240 -0.138597
O19   O     O_2   0.910018 0.605712 0.686478 -0.146776
O20   O     O_3   0.098780 0.715758 0.690183 -0.436973
H4    H     H_    0.061484 0.759426 0.725892 0.400753
F1    F     F_    0.341096 0.359493 0.860980 -0.536354
F2    F     F_    0.666322 0.605725 0.133739 -0.535025
F3    F     F_    0.661639 0.606859 0.845817 -0.529026
F4    F     F_    0.344184 0.360569 0.159732 -0.521755
F5    F     F_    0.656797 0.615078 0.705874 -0.498090
F6    F     F_    0.342660 0.375368 0.299739 -0.492171
F7    F     F_    0.616332 0.183734 0.570867 -0.563446
F8    F     F_    0.383857 0.817856 0.430333 -0.558650
F9    F     F_    0.286934 0.191782 0.450176 -0.517015
F10   F     F_    0.711784 0.807008 0.552271 -0.501703
S5    S     S_3+6 0.772575 0.033650 0.551844 0.176796
O21   O     O_2   0.801728 0.128552 0.506274 -0.239758
O22   O     O_2   0.765612 0.065650 0.627150 -0.181944
O23   O     O_3   0.875188 0.952205 0.538338 -0.408700
H5    H     H_    0.934510 0.978524 0.568484 0.395559
S6    S     S_3+6 0.225090 0.965189 0.455236 0.206047
O24   O     O_2   0.225950 0.935376 0.379652 -0.107437
O25   O     O_2   0.200054 0.868633 0.499767 -0.221307
O26   O     O_3   0.122199 0.045123 0.472708 -0.405739
H6    H     H_    0.124709 0.060989 0.523012 0.355737
F11   F     F_    0.195989 0.396353 0.426239 -0.498995
F12   F     F_    0.805014 0.606655 0.571861 -0.497267
F13   F     F_    0.234626 0.640873 0.600473 -0.547403
F14   F     F_    0.764746 0.358804 0.399926 -0.584863

loop_
_geom_bond_atom_site_label_1
_geom_bond_atom_site_label_2
_ccdc_geom_bond_type
C22   O6    A    
S3    O16   D    
C27   C29   A    
C19   C20   A    
O1    Zn1   S    
C21   O7    A    
S1    O9    D    
C2    O4    A    
C36   N1    A    
N2    N4    A    
C24   C26   A    
C5    S5    S    
C21   C33   S    
S2    O13   D    
C6    S6    S    
O11   H1    S    
C17   N6    A    
C26   F2    S    
C1    O1    A    
C28   C35   S    
C2    O2    A    
S4    O18   D    
C23   C33   A    
C31   C33   A    
C23   S1    S    
C25   F1    S    
O26   H6    S    
C22   O8    A    
O2    Zn2   S    
S2    O14   S    
O17   H3    S    
S3    O17   S    
C4    C7    A    
C31   F5    S    
S1    O10   D    
C22   C34   S    
C8    F9    S    
C24   S2    S    
C36   N4    A    
C35   N2    A    
C5    C12   A    
C3    C8    A    
C18   N5    A    
C6    C11   A    
C5    C7    A    
O23   H5    S    
O5    Zn1   S    
O3    Zn2   S    
S2    O12   D    
O4    Zn1   S    
C24   C34   A    
C9    F8    S    
C32   C34   A    
C35   N3    A    
C30   F4    S    
S5    O21   D    
C13   S3    S    
S6    O26   S    
C10   F7    S    
O7    Zn2   S    
C7    F10   S    
O8    Zn1   S    
C9    C11   A    
C10   C12   A    
S4    O19   D    
S5    O22   D    
S6    O25   D    
C13   C15   A    
C14   C16   A    
C15   F14   S    
S1    O11   S    
C16   F13   S    
C13   C20   A    
C14   C19   A    
C15   N6    A    
C6    C8    A    
C11   C12   A    
C29   F3    S    
C27   C36   S    
C25   C27   A    
C26   C28   A    
C1    C4    S    
C28   C30   A    
C2    C3    S    
O20   H4    S    
C29   C31   A    
C3    C10   A    
C30   C32   A    
C1    O3    A    
S4    O20   S    
C17   C19   A    
C18   C20   A    
C23   C25   A    
O14   H2    S    
C32   F6    S    
S3    O15   D    
O6    Zn2   S    
S5    O23   S    
S6    O24   D    
N1    N3    A    
C18   F11   S    
C14   S4    S    
C17   F12   S    
C4    C9    A    
C16   N5    A    
N5    Zn1   S    
N6    Zn2   S    
C21   O5    A    
