data_mof_unit_49397.cif
_audit_creation_date              2012-10-26T21:33:00-0400
_audit_creation_method            fapswitch 2.2
_symmetry_space_group_name_H-M    P1
_symmetry_Int_Tables_number       1
_space_group_crystal_system       triclinic
_cell_length_a                    28.161728
_cell_length_b                    18.607196
_cell_length_c                    17.07847
_cell_angle_alpha                 89.935003
_cell_angle_beta                  60.635416
_cell_angle_gamma                 89.889721
_cell_volume                      7799.45548168

loop_
_atom_site_label
_atom_site_type_symbol
_atom_type_description
_atom_site_fract_x
_atom_site_fract_y
_atom_site_fract_z
_atom_type_partial_charge
C1    C     C_R   0.701739 0.268716 0.675867 0.917439
C2    C     C_R   0.979832 0.628187 0.399180 -0.216110
C3    C     C_R   0.074002 0.900435 0.934003 0.911284
C4    C     C_R   0.574082 0.599440 0.933892 0.910603
C5    C     C_R   0.425885 0.400603 0.066138 0.909453
C6    C     C_R   0.425905 0.599449 0.066077 0.909669
C7    C     C_R   0.574002 0.400435 0.934003 0.911284
C8    C     C_R   0.562634 0.003257 0.459704 0.022288
C9    C     C_R   0.471769 0.001172 0.432460 0.026658
C10   C     C_R   0.062634 0.503257 0.459704 0.022288
C11   C     C_R   0.971769 0.501172 0.432460 0.026658
C12   C     C_R   0.548576 0.066145 0.428124 0.048371
C13   C     C_R   0.971219 0.371640 0.436882 -0.232115
C14   C     C_R   0.491870 0.936753 0.448574 0.048007
C15   C     C_R   0.500550 0.066174 0.419767 0.046289
C16   C     C_R   0.532819 0.939320 0.473099 0.045377
C17   C     C_R   0.048576 0.566145 0.428124 0.048371
C18   C     C_R   0.991870 0.436753 0.448574 0.048007
C19   C     C_R   0.000550 0.566174 0.419767 0.046289
C20   C     C_R   0.032819 0.439320 0.473099 0.045377
C21   C     C_R   0.620115 0.941906 0.511457 0.051032
C22   C     C_R   0.396628 0.064863 0.428685 0.046818
C23   C     C_R   0.395221 0.934506 0.437483 0.050309
C24   C     C_R   0.082550 0.626684 0.408016 -0.220137
C25   C     C_R   0.638352 0.066313 0.461348 0.059635
C26   C     C_R   0.120115 0.441906 0.511457 0.051032
C27   C     C_R   0.896628 0.564863 0.428685 0.046818
C28   C     C_R   0.895221 0.434507 0.437483 0.050309
C29   C     C_R   0.138352 0.566314 0.461348 0.059635
C30   C     C_R   0.671038 0.939423 0.511597 -0.170149
C31   C     C_R   0.339763 0.064180 0.455731 -0.170067
C32   C     C_R   0.339255 0.935659 0.459094 -0.172238
C33   C     C_R   0.682003 0.065401 0.480451 -0.190297
C34   C     C_R   0.171038 0.439423 0.511597 -0.170149
C35   C     C_R   0.541858 0.881509 0.517201 -0.223764
C36   C     C_R   0.839763 0.564180 0.455731 -0.170067
C37   C     C_R   0.839255 0.435659 0.459094 -0.172238
C38   C     C_R   0.182003 0.565401 0.480451 -0.190297
C39   C     C_R   0.704328 0.000471 0.484470 -0.110951
C40   C     C_R   0.310848 0.000125 0.483654 -0.117929
C41   C     C_R   0.204328 0.500471 0.484470 -0.110951
C42   C     C_R   0.810848 0.500125 0.483654 -0.117929
C43   C     C_R   0.607116 0.003756 0.477100 0.077637
C44   C     C_R   0.421340 0.000246 0.432510 0.077764
C45   C     C_R   0.107116 0.503756 0.477100 0.077637
C46   C     C_R   0.479832 0.128187 0.399180 -0.216110
C47   C     C_R   0.921340 0.500246 0.432510 0.077764
C48   C     C_R   0.083034 0.384211 0.539655 -0.173445
C49   C     C_R   0.929291 0.627238 0.402347 -0.177829
C50   C     C_R   0.925855 0.371023 0.424993 -0.175338
C51   C     C_R   0.126896 0.626276 0.422954 -0.173427
C52   C     C_R   0.583034 0.884211 0.539655 -0.173445
C53   C     C_R   0.429291 0.127238 0.402347 -0.177829
C54   C     C_R   0.425855 0.871023 0.424993 -0.175338
C55   C     C_R   0.626896 0.126276 0.422954 -0.173427
C56   C     C_1   0.763165 0.996989 0.448302 0.270538
C57   C     C_R   0.471219 0.871640 0.436882 -0.232115
C58   C     C_1   0.252726 0.000482 0.549593 0.262118
C59   C     C_1   0.263165 0.496989 0.448302 0.270538
C60   C     C_1   0.752726 0.500482 0.549593 0.262118
C61   C     C_R   0.582550 0.126684 0.408016 -0.220136
C62   C     C_R   0.720035 0.263386 0.954088 0.115615
C63   C     C_R   0.278770 0.734493 0.046987 0.116905
C64   C     C_R   0.279187 0.265082 0.046550 0.113754
C65   C     C_R   0.298207 0.731197 0.324157 0.851707
C66   C     C_R   0.720403 0.735661 0.953815 0.113938
C67   C     C_R   0.220034 0.763386 0.954088 0.115615
C68   C     C_R   0.778770 0.234493 0.046987 0.116905
C69   C     C_R   0.779187 0.765082 0.046550 0.113754
C70   C     C_R   0.220403 0.235661 0.953815 0.113938
C71   C     C_R   0.777370 0.263477 0.908434 -0.175580
C72   C     C_R   0.221421 0.734347 0.092679 -0.176527
C73   C     C_R   0.221827 0.264551 0.092377 -0.174887
C74   C     C_R   0.777758 0.736214 0.907999 -0.174155
C75   C     C_R   0.277370 0.763477 0.908434 -0.175580
C76   C     C_R   0.298174 0.268882 0.324208 0.880430
C77   C     C_R   0.721421 0.234347 0.092679 -0.176527
C78   C     C_R   0.721827 0.764551 0.092377 -0.174887
C79   C     C_R   0.277758 0.236214 0.907999 -0.174155
C80   C     C_R   0.806284 0.249250 0.954192 -0.179018
C81   C     C_R   0.192497 0.748607 0.046901 -0.178538
C82   C     C_R   0.192895 0.250044 0.046714 -0.178165
C83   C     C_R   0.806686 0.750713 0.953656 -0.177580
C84   C     C_R   0.306284 0.749250 0.954192 -0.179018
C85   C     C_R   0.692497 0.248607 0.046901 -0.178538
C86   C     C_R   0.692895 0.750044 0.046714 -0.178165
C87   C     C_R   0.701793 0.731180 0.675811 0.896521
C88   C     C_R   0.306686 0.250713 0.953656 -0.177580
C89   C     C_R   0.643028 0.325683 0.946369 -0.204184
C90   C     C_R   0.356148 0.672983 0.054354 -0.204189
C91   C     C_R   0.356356 0.326926 0.054160 -0.202315
C92   C     C_R   0.643359 0.673542 0.946094 -0.203244
C93   C     C_R   0.143028 0.825683 0.946369 -0.204184
C94   C     C_R   0.856148 0.172983 0.054354 -0.204189
C95   C     C_R   0.856356 0.826926 0.054160 -0.202315
C96   C     C_R   0.143359 0.173542 0.946094 -0.203244
C97   C     C_R   0.616205 0.346894 0.898599 -0.066739
C98   C     C_R   0.201739 0.768716 0.675867 0.917439
C99   C     C_R   0.383413 0.652568 0.101692 -0.067997
C100  C     C_R   0.383455 0.347477 0.101695 -0.065918
C101  C     C_R   0.616414 0.652712 0.898410 -0.065990
C102  C     C_R   0.116205 0.846894 0.898599 -0.066739
C103  C     C_R   0.883413 0.152568 0.101692 -0.067997
C104  C     C_R   0.883455 0.847477 0.101695 -0.065918
C105  C     C_R   0.116414 0.152712 0.898410 -0.065991
C106  C     C_R   0.632976 0.322248 0.813314 -0.255623
C107  C     C_R   0.366830 0.677570 0.186749 -0.263303
C108  C     C_R   0.366797 0.322534 0.186832 -0.263957
C109  C     C_R   0.798207 0.231197 0.324157 0.851707
C110  C     C_R   0.633138 0.677531 0.813195 -0.259422
C111  C     C_R   0.132976 0.822248 0.813314 -0.255623
C112  C     C_R   0.866830 0.177570 0.186749 -0.263303
C113  C     C_R   0.866797 0.822534 0.186832 -0.263957
C114  C     C_R   0.133138 0.177532 0.813195 -0.259422
C115  C     C_R   0.679245 0.281279 0.771027 -0.058440
C116  C     C_R   0.320363 0.718126 0.229230 -0.038674
C117  C     C_R   0.320482 0.281825 0.229164 -0.049791
C118  C     C_R   0.679382 0.718387 0.770928 -0.054487
C119  C     C_R   0.179245 0.781279 0.771027 -0.058440
C120  C     C_R   0.798174 0.768882 0.324208 0.880430
C121  C     C_R   0.820364 0.218126 0.229230 -0.038674
C122  C     C_R   0.820482 0.781824 0.229164 -0.049791
C123  C     C_R   0.179382 0.218387 0.770928 -0.054487
C124  C     C_R   0.707148 0.259171 0.817199 -0.196890
C125  C     C_R   0.291972 0.739373 0.183535 -0.204998
C126  C     C_R   0.292358 0.260330 0.183208 -0.196442
C127  C     C_R   0.707345 0.740167 0.817037 -0.196353
C128  C     C_R   0.207148 0.759171 0.817199 -0.196890
C129  C     C_R   0.791972 0.239373 0.183535 -0.204998
C130  C     C_R   0.792358 0.760330 0.183208 -0.196442
C131  C     C_R   0.201793 0.231180 0.675811 0.896521
C132  C     C_R   0.207345 0.240167 0.817037 -0.196353
C133  C     C_R   0.689115 0.281357 0.905984 0.073552
C134  C     C_R   0.309831 0.716880 0.094944 0.072933
C135  C     C_R   0.310193 0.282856 0.094584 0.071778
C136  C     C_R   0.689446 0.717755 0.905733 0.072756
C137  C     C_R   0.189115 0.781358 0.905984 0.073552
C138  C     C_R   0.809831 0.216880 0.094944 0.072933
C139  C     C_R   0.810193 0.782856 0.094584 0.071778
C140  C     C_R   0.189446 0.217755 0.905733 0.072756
C141  C     C_R   0.703485 0.130451 0.499189 0.911189
C142  C     C_R   0.041858 0.381508 0.517201 -0.223763
C143  C     C_R   0.307501 0.870986 0.470184 0.902878
C144  C     C_R   0.307960 0.129237 0.468234 0.894197
C145  C     C_R   0.694455 0.872394 0.523496 0.889379
C146  C     C_R   0.203485 0.630451 0.499189 0.911189
C147  C     C_R   0.807501 0.370986 0.470184 0.902878
C148  C     C_R   0.807960 0.629237 0.468234 0.894197
C149  C     C_R   0.194455 0.372394 0.523496 0.889379
C150  C     C_R   0.074082 0.099440 0.933892 0.910603
C151  C     C_R   0.925885 0.900603 0.066138 0.909452
C152  C     C_R   0.925905 0.099449 0.066077 0.909669
H1    H     H_    0.084571 0.340499 0.579866 0.173657
H2    H     H_    0.000690 0.679091 0.383660 0.136505
H3    H     H_    0.990849 0.320924 0.434187 0.142424
H4    H     H_    0.076686 0.674769 0.378516 0.133984
H5    H     H_    0.515596 0.834859 0.538516 0.143736
H6    H     H_    0.500690 0.179091 0.383660 0.136505
H7    H     H_    0.490849 0.820924 0.434187 0.142425
H8    H     H_    0.576686 0.174769 0.378516 0.133984
H9    H     H_    0.648409 0.247221 0.084127 0.128880
H10   H     H_    0.350369 0.750728 0.916955 0.130168
H11   H     H_    0.350777 0.249729 0.916249 0.132159
H12   H     H_    0.916640 0.676402 0.384368 0.172953
H13   H     H_    0.648803 0.750999 0.084117 0.130572
H14   H     H_    0.148409 0.747221 0.084127 0.128880
H15   H     H_    0.850369 0.250728 0.916955 0.130168
H16   H     H_    0.850777 0.749729 0.916249 0.132159
H17   H     H_    0.148803 0.250999 0.084117 0.130572
H18   H     H_    0.800038 0.276093 0.837491 0.132660
H19   H     H_    0.198771 0.721767 0.163646 0.127086
H20   H     H_    0.199135 0.276811 0.163412 0.133253
H21   H     H_    0.800457 0.723940 0.836971 0.134138
H22   H     H_    0.300038 0.776093 0.837491 0.132660
H23   H     H_    0.915617 0.319705 0.408399 0.181518
H24   H     H_    0.698771 0.221768 0.163646 0.127086
H25   H     H_    0.699135 0.776811 0.163412 0.133253
H26   H     H_    0.300457 0.223940 0.836971 0.134138
H27   H     H_    0.629730 0.346612 0.013122 0.148702
H28   H     H_    0.369336 0.651809 0.987747 0.149529
H29   H     H_    0.369561 0.348094 0.987521 0.149812
H30   H     H_    0.630112 0.652467 0.012788 0.149029
H31   H     H_    0.129730 0.846612 0.013122 0.148702
H32   H     H_    0.869335 0.151809 0.987747 0.149529
H33   H     H_    0.869561 0.848094 0.987521 0.149812
H34   H     H_    0.153277 0.672743 0.400529 0.166502
H35   H     H_    0.130112 0.152467 0.012788 0.149029
H36   H     H_    0.612115 0.339335 0.777323 0.179416
H37   H     H_    0.388052 0.661139 0.222400 0.178341
H38   H     H_    0.387842 0.339118 0.222642 0.177809
H39   H     H_    0.612215 0.660723 0.777271 0.177874
H40   H     H_    0.112115 0.839335 0.777323 0.179416
H41   H     H_    0.888052 0.161139 0.222400 0.178341
H42   H     H_    0.887842 0.839118 0.222642 0.177809
H43   H     H_    0.112215 0.160723 0.777271 0.177874
H44   H     H_    0.743445 0.226258 0.783555 0.151080
H45   H     H_    0.584571 0.840499 0.579866 0.173657
H46   H     H_    0.255495 0.771939 0.217350 0.149063
H47   H     H_    0.256069 0.227553 0.216893 0.150821
H48   H     H_    0.743577 0.773053 0.783403 0.151270
H49   H     H_    0.243445 0.726258 0.783555 0.151080
H50   H     H_    0.755495 0.271939 0.217350 0.149063
H51   H     H_    0.756069 0.727553 0.216893 0.150821
H52   H     H_    0.243577 0.273054 0.783403 0.151270
H53   H     H_    0.416640 0.176402 0.384368 0.172953
H54   H     H_    0.415617 0.819705 0.408399 0.181518
H55   H     H_    0.653277 0.172743 0.400529 0.166502
H56   H     H_    0.015596 0.334859 0.538516 0.143736
N1    N     N_1   0.809926 0.994484 0.419103 -0.206268
N2    N     N_1   0.206777 0.000736 0.602127 -0.196127
N3    N     N_1   0.309926 0.494484 0.419103 -0.206268
N4    N     N_1   0.706777 0.500736 0.602127 -0.196127
O1    O     O_R   0.746490 0.236330 0.638080 -0.634011
O2    O     O_R   0.325830 0.813840 0.483730 -0.647664
O3    O     O_R   0.325830 0.186160 0.483730 -0.640175
O4    O     O_R   0.674170 0.813840 0.516270 -0.641089
O5    O     O_R   0.174170 0.686160 0.516270 -0.633515
O6    O     O_R   0.825830 0.313840 0.483730 -0.647664
O7    O     O_R   0.825830 0.686160 0.483730 -0.640175
O8    O     O_R   0.174170 0.313840 0.516270 -0.641089
O9    O     O_R   0.739960 0.127620 0.525000 -0.614611
O10   O     O_R   0.260040 0.872380 0.475000 -0.614620
O11   O     O_R   0.260040 0.127620 0.475000 -0.614953
O12   O     O_R   0.253510 0.763670 0.361920 -0.659831
O13   O     O_R   0.739960 0.872380 0.525000 -0.614268
O14   O     O_R   0.239960 0.627620 0.525000 -0.614611
O15   O     O_R   0.760040 0.372380 0.475000 -0.614620
O16   O     O_R   0.760040 0.627620 0.475000 -0.614953
O17   O     O_R   0.239960 0.372380 0.525000 -0.614268
O18   O     O_R   0.680700 0.294870 0.629350 -0.619325
O19   O     O_R   0.319300 0.705130 0.370650 -0.642704
O20   O     O_R   0.319300 0.294870 0.370650 -0.633727
O21   O     O_R   0.680700 0.705130 0.629350 -0.627081
O22   O     O_R   0.180700 0.794870 0.629350 -0.619325
O23   O     O_R   0.253510 0.236330 0.361920 -0.638106
O24   O     O_R   0.819300 0.205130 0.370650 -0.642704
O25   O     O_R   0.819300 0.794870 0.370650 -0.633727
O26   O     O_R   0.180700 0.205130 0.629350 -0.627081
O27   O     O_R   0.062020 0.072840 0.007170 -0.628999
O28   O     O_R   0.937980 0.927160 0.992830 -0.628383
O29   O     O_R   0.937980 0.072840 0.992830 -0.628919
O30   O     O_R   0.062020 0.927160 0.007170 -0.629259
O31   O     O_R   0.562020 0.572840 0.007170 -0.628999
O32   O     O_R   0.437980 0.427160 0.992830 -0.628383
O33   O     O_R   0.437980 0.572840 0.992830 -0.628919
O34   O     O_R   0.746490 0.763670 0.638080 -0.634609
O35   O     O_R   0.562020 0.427160 0.007170 -0.629259
O36   O     O_R   0.947860 0.073950 0.109290 -0.622834
O37   O     O_R   0.052140 0.926050 0.890710 -0.621115
O38   O     O_R   0.052140 0.073950 0.890710 -0.621926
O39   O     O_R   0.947860 0.926050 0.109290 -0.622855
O40   O     O_R   0.447860 0.573950 0.109290 -0.622834
O41   O     O_R   0.552140 0.426050 0.890710 -0.621115
O42   O     O_R   0.552140 0.573950 0.890710 -0.621926
O43   O     O_R   0.447860 0.426050 0.109290 -0.622855
O44   O     O_R   0.246490 0.736330 0.638080 -0.634011
O45   O     O_R   0.753510 0.263670 0.361920 -0.659831
O46   O     O_R   0.753510 0.736330 0.361920 -0.638106
O47   O     O_R   0.246490 0.263670 0.638080 -0.634609
O48   O     O_R   0.674170 0.186160 0.516270 -0.633515
Zn1   Zn    Zn3+2 0.792340 0.208750 0.507670 0.948350
Zn2   Zn    Zn3+2 0.494040 0.500000 0.919480 0.942262
Zn3   Zn    Zn3+2 0.005960 0.000000 0.080520 0.938897
Zn4   Zn    Zn3+2 0.994040 0.000000 0.919480 0.942262
Zn5   Zn    Zn3+2 0.207660 0.791250 0.492330 0.949542
Zn6   Zn    Zn3+2 0.207660 0.208750 0.492330 0.955097
Zn7   Zn    Zn3+2 0.792340 0.791250 0.507670 0.958266
Zn8   Zn    Zn3+2 0.292340 0.708750 0.507670 0.948350
Zn9   Zn    Zn3+2 0.707660 0.291250 0.492330 0.949542
Zn10  Zn    Zn3+2 0.707660 0.708750 0.492330 0.955097
Zn11  Zn    Zn3+2 0.292340 0.291250 0.507670 0.958266
Zn12  Zn    Zn3+2 0.505960 0.500000 0.080520 0.938897

loop_
_geom_bond_atom_site_label_1
_geom_bond_atom_site_label_2
_ccdc_geom_bond_type
C126  H47   S    
O41   Zn2   S    
C24   H4    S    
C96   C105  A    
C28   C47   A    
C70   C140  S    
O35   Zn12  S    
C81   H14   S    
C123  C132  A    
C78   H25   S    
C85   H9    S    
C113  H42   S    
C73   C82   A    
C6    O33   A    
C36   C42   A    
C148  O16   A    
C8    C43   A    
C4    O42   A    
C74   C83   A    
C128  C137  A    
O8    Zn6   S    
C127  H48   S    
C25   C43   A    
C143  O10   A    
C98   O44   A    
C30   C39   A    
C69   C78   A    
C67   C75   A    
C84   H10   S    
C98   C119  S    
C11   C18   A    
C5    O32   A    
C105  C150  S    
C86   H13   S    
C11   C19   A    
C126  C135  A    
C33   C39   A    
O30   Zn3   S    
C94   H32   S    
C124  C133  A    
C30   C145  S    
O7    Zn7   S    
C104  C151  S    
C122  C130  A    
C57   H7    S    
C68   C138  S    
O46   Zn10  S    
O9    Zn1   S    
C16   C35   A    
C90   C134  A    
C75   C84   A    
C64   C88   A    
C108  H38   S    
C149  O8    A    
O33   Zn2   S    
C131  O26   A    
C66   C74   A    
C95   H33   S    
C7    O35   A    
C110  H39   S    
O48   Zn9   S    
C152  O29   A    
C31   C40   A    
C93   C137  A    
C111  C119  A    
C38   C41   A    
C59   N3    T    
C31   C144  S    
O31   Zn12  S    
C38   C146  S    
C144  O11   A    
C26   C45   A    
C21   C43   A    
C146  O5    A    
C11   C47   A    
C1    O18   A    
C36   C148  S    
C22   C44   A    
C129  C138  A    
C10   C20   A    
C32   C143  S    
O29   Zn4   S    
C141  O9    A    
C29   C38   A    
C76   O20   A    
C53   H53   S    
C64   C73   A    
C5    C100  S    
C69   C83   A    
C142  H56   S    
C91   C100  A    
C7    C97   S    
C117  C126  A    
C4    O31   A    
C72   C81   A    
C26   C48   A    
C120  O25   A    
C128  H49   S    
O36   Zn3   S    
C123  C131  S    
C119  C128  A    
C78   C86   A    
C24   C51   A    
C89   H27   S    
O44   Zn8   S    
C82   H17   S    
C77   C85   A    
O24   Zn1   S    
C2    H2    S    
O19   Zn8   S    
C7    O41   A    
C75   H22   S    
C96   H35   S    
O27   Zn3   S    
C102  C111  A    
C92   C136  A    
C34   C41   A    
C28   C50   A    
O20   Zn11  S    
O28   Zn4   S    
C70   C82   A    
C130  C139  A    
C152  O36   A    
O4    Zn10  S    
C79   C88   A    
C34   C149  S    
O15   Zn9   S    
C150  O38   A    
C22   C53   A    
O43   Zn12  S    
C58   N2    T    
C112  H41   S    
C62   C85   A    
C90   H28   S    
C100  C108  A    
C17   C24   A    
C89   C133  A    
C22   C31   A    
C113  C122  A    
C94   C103  A    
O11   Zn6   S    
C63   C134  S    
C20   C142  A    
C105  C114  A    
O26   Zn6   S    
C40   C58   S    
C127  C136  A    
C41   C59   S    
C87   C118  S    
C114  H43   S    
C61   H8    S    
C42   C60   S    
O12   Zn5   S    
O45   Zn9   S    
O10   Zn5   S    
C65   O19   A    
C55   H55   S    
O40   Zn12  S    
O22   Zn5   S    
C151  O39   A    
C146  O14   A    
C54   H54   S    
C101  C110  A    
C145  O13   A    
C23   C44   A    
C104  C113  A    
O1    Zn1   S    
C50   H23   S    
C3    O30   A    
C13   H3    S    
C9    C14   A    
C72   H19   S    
C96   C140  A    
C151  O28   A    
C2    C49   A    
C145  O4    A    
C39   C56   S    
C98   O22   A    
C12   C15   A    
C8    C12   A    
C4    C101  S    
C107  H37   S    
C37   C42   A    
C21   C30   A    
C71   H18   S    
C48   C142  A    
C69   C139  S    
C37   C147  S    
C73   H20   S    
C110  C118  A    
C60   N4    T    
O38   Zn4   S    
C132  H52   S    
C92   C101  A    
C49   H12   S    
C143  O2    A    
C131  O47   A    
C114  C123  A    
C13   C18   A    
C3    C102  S    
C48   H1    S    
C125  H46   S    
C67   C81   A    
C77   H24   S    
O5    Zn5   S    
C116  C125  A    
C91   H29   S    
C1    O1    A    
C94   C138  A    
C65   C116  S    
C14   C16   A    
C46   H6    S    
O32   Zn2   S    
C118  C127  A    
C129  H50   S    
C68   C80   A    
C35   H5    S    
C90   C99   A    
O21   Zn10  S    
O47   Zn11  S    
C95   C104  A    
C120  C122  S    
C23   C54   A    
C29   C51   A    
C27   C47   A    
C68   C77   A    
C14   C57   A    
C121  C129  A    
C9    C44   A    
C147  O15   A    
C115  C124  A    
C80   H15   S    
C74   H21   S    
C26   C34   A    
C2    C19   A    
C108  C117  A    
C3    O37   A    
C79   H26   S    
O16   Zn10  S    
C93   C102  A    
C66   C86   A    
C144  O3    A    
C71   C80   A    
O18   Zn9   S    
C124  H44   S    
C27   C36   A    
C132  C140  A    
C88   H11   S    
C99   C107  A    
C83   H16   S    
C63   C84   A    
C95   C139  A    
C76   C117  S    
C87   O21   A    
C65   O12   A    
O2    Zn8   S    
C106  C115  A    
O25   Zn7   S    
C33   C141  S    
C6    C99   S    
C5    O43   A    
O14   Zn8   S    
C9    C15   A    
C149  O17   A    
C112  C121  A    
C125  C134  A    
C103  C152  S    
C23   C32   A    
C12   C61   A    
O17   Zn11  S    
C109  C121  S    
C70   C79   A    
C28   C37   A    
O23   Zn6   S    
C120  O46   A    
C55   C61   A    
C46   C53   A    
C17   C19   A    
C141  O48   A    
C25   C55   A    
C62   C71   A    
C66   C136  S    
C76   O23   A    
C18   C20   A    
C87   O34   A    
C32   C40   A    
O37   Zn4   S    
C109  O45   A    
C67   C137  S    
C148  O7    A    
C107  C116  A    
C64   C135  S    
C25   C33   A    
C111  H40   S    
C106  H36   S    
C13   C50   A    
C109  O24   A    
C27   C49   A    
C56   N1    T    
C91   C135  A    
C63   C72   A    
O42   Zn2   S    
C8    C16   A    
C150  O27   A    
C10   C45   A    
C89   C97   A    
C35   C52   A    
C51   H34   S    
O6    Zn1   S    
C147  O6    A    
C103  C112  A    
C92   H30   S    
C52   H45   S    
C10   C17   A    
C15   C46   A    
O3    Zn11  S    
C1    C115  S    
C93   H31   S    
C62   C133  S    
C6    O40   A    
O13   Zn7   S    
C21   C52   A    
C29   C45   A    
C130  H51   S    
O34   Zn7   S    
O39   Zn3   S    
C54   C57   A    
C97   C106  A    
