data_mof_unit_34572.cif
_audit_creation_date              2012-12-10T17:25:31-0500
_audit_creation_method            fapswitch 2.2
_symmetry_space_group_name_H-M    P1
_symmetry_Int_Tables_number       1
_space_group_crystal_system       triclinic
_cell_length_a                    10.191434
_cell_length_b                    10.645465
_cell_length_c                    23.420108
_cell_angle_alpha                 91.459221
_cell_angle_beta                  81.488878
_cell_angle_gamma                 98.838621
_cell_volume                      2483.07416058

loop_
_atom_site_label
_atom_site_type_symbol
_atom_type_description
_atom_site_fract_x
_atom_site_fract_y
_atom_site_fract_z
_atom_type_partial_charge
C1    C     C_R   0.560174 0.733988 0.495381 0.897580
C2    C     C_R   0.440228 0.265837 0.505467 0.905833
C3    C     C_R   0.593437 0.451249 0.755465 -0.091837
C4    C     C_R   0.617507 0.552253 0.232327 -0.102556
C5    C     C_R   0.590657 0.446058 0.696437 -0.290694
C6    C     C_R   0.616606 0.546208 0.291475 -0.278068
C7    C     C_R   0.505169 0.513862 0.672081 -0.071004
C8    C     C_R   0.498189 0.497887 0.327655 -0.069815
C9    C     C_R   0.424395 0.590808 0.707335 0.189583
C10   C     C_R   0.380074 0.452898 0.303958 0.193157
C11   C     C_R   0.425743 0.592512 0.766735 -0.186505
C12   C     C_R   0.381175 0.463518 0.244741 -0.181264
C13   C     C_R   0.509645 0.522984 0.790646 0.287910
C14   C     C_R   0.499589 0.511810 0.208987 0.286989
C15   C     C_2   0.604800 0.870740 0.494554 -0.003461
C16   C     C_2   0.399086 0.128376 0.510038 -0.007886
C17   C     C_2   0.517902 0.946116 0.482938 0.205469
C18   C     C_2   0.491954 0.058148 0.520290 0.215787
C19   C     C_2   0.923201 0.502039 0.511692 0.189998
C20   C     C_2   0.059400 0.467937 0.510279 0.191906
C21   C     C_R   0.501215 0.503143 0.610229 0.870601
C22   C     C_R   0.499087 0.498188 0.389743 0.879196
C23   C     C_R   0.466375 0.405385 0.119644 0.519183
C24   C     C_R   0.548066 0.633149 0.878718 0.520240
C25   C     C_R   0.529370 0.630354 0.120602 0.518617
C26   C     C_R   0.456783 0.412664 0.881040 0.529579
C27   C     C_R   0.534176 0.636128 0.060243 -0.106976
C28   C     C_R   0.447694 0.409543 0.941538 -0.071685
C29   C     C_R   0.491071 0.522604 0.030729 -0.097029
C30   C     C_R   0.491078 0.523742 0.970575 -0.099974
C31   C     C_R   0.448541 0.407439 0.061513 -0.067159
C32   C     C_R   0.537074 0.638376 0.939300 -0.110718
C33   C     C_R   0.575520 0.751233 0.028973 0.180335
C34   C     C_R   0.395291 0.296696 0.973472 0.149123
C35   C     C_R   0.574296 0.752853 0.969259 0.187414
C36   C     C_R   0.390369 0.297496 0.033898 0.163519
H1    H     H_    0.143843 0.645040 0.524467 0.153475
H2    H     H_    0.881629 0.393930 0.443254 0.151794
H3    H     H_    0.658671 0.397724 0.774127 0.149311
H4    H     H_    0.709563 0.588590 0.204585 0.147128
H5    H     H_    0.653334 0.387011 0.669968 0.168597
H6    H     H_    0.708105 0.580617 0.309041 0.171142
H7    H     H_    0.362240 0.648648 0.794538 0.137353
H8    H     H_    0.290919 0.430326 0.226031 0.134746
N1    N     N_R   0.500194 0.515993 0.148094 -0.348717
N2    N     N_R   0.506181 0.522647 0.851727 -0.350894
N3    N     N_2   0.842710 0.448880 0.476480 -0.198262
N4    N     N_2   0.157290 0.551120 0.523520 -0.189044
O1    O     O_R   0.431060 0.692470 0.504730 -0.609135
O2    O     O_R   0.568940 0.307530 0.495270 -0.599780
O3    O     O_R   0.651120 0.659650 0.489640 -0.614837
O4    O     O_R   0.348880 0.340350 0.510360 -0.605239
O5    O     O_R   0.389950 0.516450 0.591390 -0.569227
O6    O     O_R   0.610050 0.483550 0.408610 -0.614963
O7    O     O_R   0.610020 0.483630 0.576300 -0.626838
O8    O     O_R   0.389980 0.516370 0.423700 -0.583090
O9    O     O_2   0.452734 0.293761 0.147670 -0.541673
O10   O     O_2   0.603593 0.735766 0.846227 -0.575684
O11   O     O_2   0.550904 0.737060 0.152248 -0.578095
O12   O     O_2   0.416795 0.307341 0.851048 -0.537582
Zn1   Zn    Zn3+2 0.353060 0.521920 0.510080 0.947483
Zn2   Zn    Zn3+2 0.646940 0.478080 0.489920 0.922849
N5    N     N_2   0.623182 0.867449 0.055962 -0.284521
H9    H     H_    0.697731 0.867873 0.081315 0.254385
C37   C     C_3   0.528861 0.955979 0.070898 -0.625577
H10   H     H_    0.573593 0.050556 0.052423 0.228627
H11   H     H_    0.506752 0.965301 0.118532 0.273243
H12   H     H_    0.433049 0.924323 0.053757 0.206864
N6    N     N_2   0.350430 0.181974 0.944596 -0.253622
H13   H     H_    0.388787 0.102760 0.954970 0.206337
C38   C     C_3   0.208992 0.158592 0.939394 -0.688395
H14   H     H_    0.149329 0.118646 0.980083 0.204057
H15   H     H_    0.192490 0.088371 0.904347 0.244138
H16   H     H_    0.173557 0.247458 0.928434 0.248088
N7    N     N_2   0.605753 0.873079 0.940938 -0.280289
H17   H     H_    0.542147 0.895952 0.913779 0.255163
C39   C     C_3   0.746167 0.927114 0.927905 -0.664360
H18   H     H_    0.778255 0.927970 0.880493 0.258373
H19   H     H_    0.811283 0.872461 0.948430 0.223359
H20   H     H_    0.760083 0.026396 0.944156 0.222323
N8    N     N_2   0.318735 0.191485 0.067463 -0.256245
H21   H     H_    0.315412 0.103798 0.047846 0.211870
C40   C     C_3   0.189322 0.211670 0.098171 -0.703790
H22   H     H_    0.142895 0.125968 0.124007 0.232957
H23   H     H_    0.121425 0.229767 0.067370 0.213100
H24   H     H_    0.200119 0.293834 0.128142 0.245206
N9    N     N_2   0.342995 0.667280 0.683520 -0.285509
H25   H     H_    0.257424 0.681322 0.710942 0.221769
C41   C     C_3   0.415631 0.785037 0.658183 -0.739743
H26   H     H_    0.454990 0.848525 0.692178 0.238131
H27   H     H_    0.347192 0.833864 0.636877 0.240317
H28   H     H_    0.500527 0.766705 0.625089 0.225818
N10   N     N_2   0.262595 0.390710 0.338585 -0.294388
H29   H     H_    0.174615 0.404651 0.324540 0.220399
C42   C     C_3   0.266069 0.257552 0.348199 -0.785850
H30   H     H_    0.279028 0.206036 0.306326 0.257224
H31   H     H_    0.170177 0.213903 0.373798 0.225467
H32   H     H_    0.349550 0.246615 0.372384 0.236220
C43   C     C_3   0.568477 0.097430 0.570601 -0.895503
H33   H     H_    0.571737 0.013367 0.597035 0.241850
H34   H     H_    0.671433 0.145806 0.555247 0.255513
H35   H     H_    0.517794 0.164654 0.600031 0.226723
C44   C     C_3   0.447152 0.913458 0.430372 -0.888068
H36   H     H_    0.441459 0.001261 0.406873 0.243499
H37   H     H_    0.503910 0.853601 0.399243 0.229140
H38   H     H_    0.345208 0.859748 0.442806 0.251364
C45   C     C_3   0.257552 0.069889 0.503468 -0.955739
H39   H     H_    0.186269 0.112529 0.535594 0.253204
H40   H     H_    0.236606 0.086597 0.459354 0.249421
H41   H     H_    0.238461 0.966710 0.513135 0.255706
C46   C     C_3   0.745616 0.921040 0.505859 -0.950132
H42   H     H_    0.818151 0.867341 0.479438 0.257635
H43   H     H_    0.776050 0.021787 0.492582 0.256962
H44   H     H_    0.754068 0.909314 0.552064 0.242814
C47   C     C_3   0.076562 0.331453 0.501727 -0.822565
H45   H     H_    0.981528 0.269415 0.495881 0.191191
H46   H     H_    0.150973 0.321703 0.463073 0.274296
H47   H     H_    0.107499 0.298198 0.541377 0.251764
C48   C     C_3   0.875753 0.584295 0.561812 -0.778421
H48   H     H_    0.957921 0.649668 0.577561 0.175325
H49   H     H_    0.807571 0.646819 0.550349 0.272783
H50   H     H_    0.830371 0.522873 0.599255 0.243884

loop_
_geom_bond_atom_site_label_1
_geom_bond_atom_site_label_2
_ccdc_geom_bond_type
C21   O5    A    
N9    H25   S    
N5    C37   S    
N10   H29   S    
C23   N1    A    
C27   C29   A    
C42   H30   S    
N3    Zn2   S    
N8    H21   S    
C42   H32   S    
C22   O6    A    
C39   H18   S    
C27   C33   A    
C35   N7    S    
O4    Zn1   S    
C13   N2    S    
C19   N3    D    
C39   H20   S    
C47   H45   S    
O7    Zn2   S    
C23   O9    S    
N6    C38   S    
C2    O2    A    
C16   C45   S    
O5    Zn1   S    
C44   H37   S    
C4    H4    S    
C47   H46   S    
C8    C22   S    
C45   H39   S    
C11   H7    S    
C1    C15   S    
C41   H27   S    
C2    C16   S    
C3    C13   A    
C37   H12   S    
C48   H49   S    
C19   C48   S    
N10   C42   S    
C45   H40   S    
C46   H44   S    
O3    Zn2   S    
C10   C12   A    
N8    C40   S    
C14   N1    S    
C39   H19   S    
O1    Zn1   S    
C32   C35   A    
C15   C46   S    
C4    C6    A    
C21   O7    A    
C22   O8    A    
O6    Zn2   S    
C10   N10   S    
C37   H11   S    
C7    C21   S    
H1    N4    S    
C23   C31   A    
N7    H17   S    
C24   C32   A    
C29   C30   A    
C20   C47   S    
C1    O3    A    
C40   H22   S    
C36   N8    S    
C33   N5    S    
C47   H47   S    
C43   H35   S    
C17   C18   S    
C46   H43   S    
C16   C18   D    
C41   H28   S    
C9    C11   A    
C34   N6    S    
H2    N3    S    
C20   N4    D    
C2    O4    A    
C8    C10   A    
C40   H23   S    
C12   C14   A    
N9    C41   S    
O2    Zn2   S    
C45   H41   S    
C18   C43   S    
C25   N1    A    
C5    C7    A    
C48   H50   S    
C15   C17   D    
C5    H5    S    
C46   H42   S    
C43   H34   S    
C31   C36   A    
C3    C5    A    
C38   H16   S    
C6    C8    A    
C48   H48   S    
C42   H31   S    
C25   C27   A    
C26   C28   A    
C43   H33   S    
C24   N2    A    
C19   C20   S    
C28   C30   A    
C17   C44   S    
C38   H14   S    
C29   C31   A    
C9    N9    S    
C30   C32   A    
C11   C13   A    
N4    Zn1   S    
C26   O12   S    
C33   C35   A    
C44   H38   S    
C34   C36   A    
C28   C34   A    
C4    C14   A    
N6    H13   S    
C26   N2    A    
C3    H3    S    
N5    H9    S    
C7    C9    A    
C40   H24   S    
C24   O10   S    
C37   H10   S    
C6    H6    S    
N7    C39   S    
C38   H15   S    
C44   H36   S    
O8    Zn1   S    
C12   H8    S    
C25   O11   S    
C41   H26   S    
C1    O1    A    
