data_mof_unit_46426.cif
_audit_creation_date              2012-12-10T17:42:10-0500
_audit_creation_method            fapswitch 2.2
_symmetry_space_group_name_H-M    P1
_symmetry_Int_Tables_number       1
_space_group_crystal_system       triclinic
_cell_length_a                    15.119867
_cell_length_b                    13.883389
_cell_length_c                    10.895019
_cell_angle_alpha                 90.100406
_cell_angle_beta                  85.22404
_cell_angle_gamma                 90.26248
_cell_volume                      2279.06095547

loop_
_atom_site_label
_atom_site_type_symbol
_atom_type_description
_atom_site_fract_x
_atom_site_fract_y
_atom_site_fract_z
_atom_type_partial_charge
C1    C     C_R   0.328677 0.499810 0.493576 0.928516
C2    C     C_3   0.598119 0.491517 0.917133 0.539589
C3    C     C_R   0.816215 0.572025 0.430907 -0.175006
C4    C     C_R   0.767484 0.499088 0.493050 -0.090396
C5    C     C_R   0.810911 0.422967 0.545585 -0.112716
C6    C     C_R   0.903691 0.420140 0.538846 0.082978
C7    C     C_R   0.952951 0.496314 0.479800 0.022808
C8    C     C_R   0.908846 0.572430 0.424806 0.100819
C9    C     C_R   0.947619 0.343593 0.591883 0.059000
C10   C     C_R   0.040860 0.341094 0.582478 0.402224
C11   C     C_R   0.090302 0.415589 0.519428 -0.056419
C12   C     C_R   0.498604 0.500087 0.261133 0.957974
C13   C     C_R   0.046019 0.496163 0.475214 -0.142391
C14   C     C_R   0.094967 0.576028 0.424911 -0.054967
C15   C     C_R   0.050791 0.646727 0.358618 0.409372
C16   C     C_R   0.957738 0.645639 0.360866 0.038135
C17   C     C_R   0.182911 0.411818 0.496916 0.395788
C18   C     C_R   0.231557 0.498750 0.479434 -0.232582
C19   C     C_R   0.185631 0.582933 0.446588 0.411428
C20   C     C_R   0.433439 0.795492 0.566034 0.299545
C21   C     C_R   0.433504 0.204048 0.566100 0.296129
C22   C     C_R   0.561519 0.794498 0.423233 0.328694
C23   C     C_R   0.562204 0.205970 0.424040 0.319064
C24   C     C_R   0.556115 0.896688 0.407129 -0.125251
C25   C     C_R   0.556636 0.103670 0.407685 -0.129076
C26   C     C_R   0.670954 0.499975 0.498338 0.864233
C27   C     C_R   0.492432 0.948432 0.481098 -0.028065
C28   C     C_R   0.492610 0.051527 0.481291 -0.028912
C29   C     C_R   0.428529 0.897358 0.556348 0.050020
C30   C     C_R   0.428671 0.102161 0.556510 0.045984
C31   C     C_R   0.612099 0.949289 0.318997 0.354835
C32   C     C_R   0.612398 0.051327 0.319295 0.353195
C33   C     C_R   0.359836 0.049569 0.620948 -0.123440
C34   C     C_R   0.359770 0.949507 0.620874 -0.129765
C35   C     C_R   0.497989 0.500160 0.740787 0.973051
C36   C     C_3   0.459998 0.598411 0.081034 0.194176
C37   C     C_3   0.435402 0.418613 0.083699 0.193544
C38   C     C_3   0.456801 0.600386 0.938185 0.358386
C39   C     C_3   0.441790 0.409674 0.939873 0.356894
C40   C     C_3   0.596792 0.485982 0.064460 0.092204
C41   C     C_3   0.497411 0.500741 0.124511 -0.276228
C42   C     C_3   0.498445 0.500547 0.880382 -0.244391
Cu1   Cu    Cu3+1 0.499990 0.597420 0.500010 1.016431
Cu2   Cu    Cu3+1 0.499990 0.402580 0.500010 1.005480
H1    H     H_    0.506127 0.655097 0.108344 0.135731
H2    H     H_    0.458448 0.350460 0.123226 0.147912
H3    H     H_    0.305260 0.084854 0.673298 0.206784
H4    H     H_    0.305142 0.913893 0.673178 0.196149
H5    H     H_    0.781659 0.626908 0.384260 0.181424
H6    H     H_    0.771767 0.366274 0.592056 0.214335
N1    N     N_R   0.499930 0.743810 0.499950 -0.230703
N2    N     N_R   0.499930 0.256190 0.499950 -0.233344
O1    O     O_R   0.370250 0.582280 0.500040 -0.543041
O2    O     O_R   0.370250 0.417720 0.500040 -0.550887
O3    O     O_R   0.499970 0.582270 0.317700 -0.582149
O4    O     O_R   0.499970 0.417730 0.317700 -0.593518
O5    O     O_R   0.629730 0.582260 0.499980 -0.600088
O6    O     O_R   0.629730 0.417740 0.499980 -0.611877
O7    O     O_R   0.500000 0.582270 0.682320 -0.599638
O8    O     O_R   0.500000 0.417730 0.682320 -0.598574
Cl1   Cl    Cl    0.092857 0.251700 0.667189 -0.480871
Cl2   Cl    Cl    0.231851 0.299287 0.455063 -0.428285
Cl3   Cl    Cl    0.235507 0.698716 0.449239 -0.424127
Cl4   Cl    Cl    0.108937 0.727312 0.254322 -0.408815
N3    N     N_3   0.912206 0.718626 0.297517 -0.542133
H7    H     H_    0.932090 0.714575 0.203445 0.288836
H8    H     H_    0.930102 0.786109 0.330548 0.282143
N4    N     N_3   0.367584 0.749021 0.648467 -0.487967
H9    H     H_    0.382874 0.678145 0.661718 0.297802
H10   H     H_    0.370288 0.779882 0.735615 0.206423
N5    N     N_3   0.367617 0.250134 0.648420 -0.470414
H11   H     H_    0.382664 0.321328 0.660697 0.298890
H12   H     H_    0.370566 0.220180 0.735888 0.201827
N6    N     N_3   0.639494 0.747900 0.371230 -0.518739
H13   H     H_    0.680616 0.736189 0.441874 0.243124
H14   H     H_    0.624208 0.685639 0.324148 0.269049
N7    N     N_3   0.639736 0.253710 0.370418 -0.508358
H15   H     H_    0.683047 0.266766 0.438370 0.241766
H16   H     H_    0.623558 0.315501 0.323947 0.284229
Cl5   Cl    Cl    0.675688 0.890626 0.196466 -0.471739
Cl6   Cl    Cl    0.676358 0.110146 0.197029 -0.469441
Cl7   Cl    Cl    0.359770 0.640501 0.166940 -0.353293
Cl8   Cl    Cl    0.324098 0.421979 0.157956 -0.384859
Cl9   Cl    Cl    0.344397 0.617254 0.897084 -0.456380
Cl10  Cl    Cl    0.333009 0.400612 0.882491 -0.465664
N8    N     N_3   0.507026 0.687385 0.894734 -0.530094
H17   H     H_    0.491744 0.709451 0.808159 0.257360
H18   H     H_    0.486654 0.746567 0.949531 0.246177
N9    N     N_3   0.484930 0.316162 0.910762 -0.575306
H19   H     H_    0.484688 0.297392 0.818732 0.270913
H20   H     H_    0.448194 0.260963 0.956599 0.244283
N10   N     N_3   0.655313 0.559900 0.113754 -0.573552
H21   H     H_    0.642513 0.629213 0.083596 0.269995
H22   H     H_    0.721615 0.545688 0.084404 0.283261
N11   N     N_3   0.629425 0.392020 0.105330 -0.552030
H23   H     H_    0.697590 0.385489 0.081498 0.292110
H24   H     H_    0.598873 0.333779 0.065557 0.281555
Cl11  Cl    Cl    0.667449 0.587766 0.850704 -0.546480
Cl12  Cl    Cl    0.656042 0.391165 0.841109 -0.577636
N12   N     N_3   0.896899 0.268638 0.655878 -0.540706
H25   H     H_    0.912454 0.267723 0.747577 0.294098
H26   H     H_    0.914812 0.202570 0.615071 0.273641

loop_
_geom_bond_atom_site_label_1
_geom_bond_atom_site_label_2
_ccdc_geom_bond_type
C27   C29   A    
Cu2   O6    S    
N11   H23   S    
C24   C27   A    
C1    O2    A    
C6    C9    A    
C3    H5    S    
C7    C8    A    
N7    H15   S    
C25   C28   A    
C32   Cl6   S    
C1    C18   S    
N6    H14   S    
C38   N8    S    
Cu2   O8    S    
C38   C42   S    
C20   N1    A    
C5    C6    A    
N8    H18   S    
C15   C16   A    
C35   O7    A    
C18   C19   A    
C35   C42   S    
C1    O1    A    
N12   H25   S    
Cu1   O1    S    
C19   Cl3   S    
N4    H9    S    
N3    H8    S    
C15   Cl4   S    
N9    H20   S    
C9    C10   A    
Cu1   O7    S    
Cu2   N2    S    
C25   C32   A    
C8    C16   A    
C13   C14   A    
C36   C41   S    
N12   H26   S    
C33   C34   A    
C39   C42   S    
C20   C29   A    
N7    H16   S    
N6    H13   S    
C31   Cl5   S    
C3    C8    A    
C36   Cl7   S    
N5    H12   S    
N8    H17   S    
C29   C34   A    
C23   N7    S    
C35   O8    A    
Cu1   Cu2   S    
C12   C41   S    
C2    C40   S    
C17   Cl2   S    
Cu2   O4    S    
C31   C32   A    
N10   H22   S    
C17   C18   A    
C36   H1    S    
C40   N10   S    
C26   O6    A    
C12   O4    A    
Cu1   O3    S    
C40   C41   S    
C21   N5    S    
C2    Cl12  S    
C9    N12   S    
C33   H3    S    
C22   C24   A    
C5    H6    S    
C10   Cl1   S    
C34   H4    S    
C22   N6    S    
C40   N11   S    
C3    C4    A    
C11   C17   A    
C30   C33   A    
C38   Cl9   S    
C14   C19   A    
C20   N4    S    
C4    C5    A    
C4    C26   S    
N11   H24   S    
C6    C7    A    
C21   C30   A    
C36   C38   S    
N9    H19   S    
C24   C31   A    
N5    H11   S    
C37   C39   S    
C11   C13   A    
Cu1   N1    S    
C23   N2    A    
C2    C42   S    
C28   C30   A    
N10   H21   S    
C23   C25   A    
C37   C41   S    
C26   O5    A    
C12   O3    A    
C10   C11   A    
Cu1   O5    S    
Cu2   O2    S    
C7    C13   A    
C2    Cl11  S    
N4    H10   S    
N3    H7    S    
C27   C28   A    
C39   Cl10  S    
C14   C15   A    
C37   Cl8   S    
C16   N3    S    
C37   H2    S    
C39   N9    S    
C21   N2    A    
C22   N1    A    
