data_mof_unit_63555.cif
_audit_creation_date              2013-03-05T16:13:36-0500
_audit_creation_method            fapswitch 2.2
_symmetry_space_group_name_H-M    P1
_symmetry_Int_Tables_number       1
_space_group_crystal_system       triclinic
_cell_length_a                    19.374541
_cell_length_b                    19.479494
_cell_length_c                    19.440998
_cell_angle_alpha                 85.169569
_cell_angle_beta                  95.253624
_cell_angle_gamma                 90.107707
_cell_volume                      7280.25611464

loop_
_atom_site_label
_atom_site_type_symbol
_atom_site_description
_atom_site_fract_x
_atom_site_fract_y
_atom_site_fract_z
_atom_type_partial_charge
Zn1   Zn    Zn3+2 0.558310 0.558310 0.558290 0.989263
Zn2   Zn    Zn3+2 0.446830 0.436990 0.558720 0.959836
Zn3   Zn    Zn3+2 0.558290 0.446420 0.446420 0.962474
Zn4   Zn    Zn3+2 0.436570 0.558290 0.436570 0.968821
O1    O     O_3   0.500000 0.500000 0.500000 -0.487864
O2    O     O_R   0.340780 0.536140 0.450970 -0.646551
O3    O     O_R   0.655640 0.545460 0.545430 -0.641768
O4    O     O_R   0.467850 0.451260 0.656340 -0.650902
O5    O     O_R   0.535740 0.467130 0.347260 -0.642187
O6    O     O_R   0.467830 0.341070 0.546160 -0.648019
O7    O     O_R   0.450560 0.655630 0.450550 -0.647811
O8    O     O_R   0.545840 0.347670 0.467560 -0.647579
O9    O     O_R   0.535760 0.655640 0.535740 -0.642454
O10   O     O_R   0.545870 0.536170 0.656040 -0.602597
O11   O     O_R   0.450550 0.545430 0.340370 -0.644259
O12   O     O_R   0.347960 0.451240 0.536460 -0.642639
O13   O     O_R   0.655630 0.467150 0.467130 -0.643553
C1    C     C_R   0.311771 0.492244 0.491976 0.780021
C2    C     C_R   0.688114 0.507332 0.508059 0.797530
C3    C     C_R   0.509111 0.491818 0.688755 0.799878
C4    C     C_R   0.491919 0.507981 0.311232 0.788933
C5    C     C_R   0.508530 0.311935 0.508492 0.782693
C6    C     C_R   0.491312 0.688240 0.492123 0.793921
C7    C     C_R   0.485064 0.763003 0.493004 -0.006039
C8    C     C_R   0.530166 0.797497 0.538883 -0.193912
C9    C     C_R   0.523405 0.867865 0.542429 -0.156537
C10   C     C_R   0.471877 0.905163 0.499551 0.200680
C11   C     C_R   0.425810 0.870838 0.454638 -0.172463
C12   C     C_R   0.432591 0.800031 0.450990 -0.194366
C13   C     C_R   0.463009 0.125151 0.539938 -0.157048
C14   C     C_R   0.460222 0.196506 0.539581 -0.209111
C15   C     C_R   0.568481 0.205034 0.485732 -0.195505
C16   C     C_R   0.571686 0.133709 0.486942 -0.176394
C17   C     C_R   0.518380 0.093581 0.512684 0.202006
C18   C     C_2   0.465962 0.979983 0.501176 -0.237796
C19   C     C_2   0.522517 0.018742 0.511571 -0.235377
C20   C     C_R   0.512491 0.236868 0.511622 0.004215
H1    H     H_    0.570466 0.770105 0.572611 0.175001
H2    H     H_    0.416803 0.220061 0.560209 0.160987
H3    H     H_    0.609829 0.235212 0.464638 0.161370
H4    H     H_    0.573808 0.995509 0.514955 0.155747
H5    H     H_    0.385404 0.898991 0.421726 0.134798
H6    H     H_    0.422309 0.094818 0.561987 0.135654
H7    H     H_    0.396672 0.774331 0.415774 0.163881
H8    H     H_    0.415108 0.003852 0.489693 0.153473
H9    H     H_    0.558140 0.892865 0.579273 0.139700
H10   H     H_    0.615105 0.109866 0.466540 0.135576
C21   C     C_R   0.763506 0.508508 0.512894 -0.048595
C22   C     C_R   0.800037 0.447370 0.509539 -0.240450
C23   C     C_R   0.871724 0.448141 0.511887 -0.130766
C24   C     C_R   0.907858 0.510591 0.514154 0.070010
C25   C     C_R   0.871351 0.572599 0.519204 0.311371
C26   C     C_R   0.799117 0.570465 0.519872 -0.259531
C27   C     C_R   0.124379 0.542695 0.457708 -0.210116
C28   C     C_R   0.196265 0.546721 0.463654 -0.170469
C29   C     C_R   0.203919 0.424677 0.501569 -0.199840
C30   C     C_R   0.131920 0.420346 0.493878 -0.154776
C31   C     C_R   0.092216 0.479516 0.472813 0.050138
C32   C     C_2   0.983677 0.510217 0.513619 -0.253521
C33   C     C_2   0.016450 0.475952 0.468859 0.432559
C34   C     C_R   0.236345 0.487893 0.486312 0.009058
H11   H     H_    0.773082 0.398820 0.506035 0.160643
H12   H     H_    0.220527 0.595874 0.451565 0.157115
H13   H     H_    0.234237 0.378643 0.518379 0.152626
H14   H     H_    0.093714 0.588583 0.441170 0.171566
H15   H     H_    0.770299 0.617684 0.522334 0.192686
H16   H     H_    0.013506 0.542496 0.548322 0.162858
H17   H     H_    0.898917 0.399640 0.511911 0.190367
H18   H     H_    0.107129 0.371413 0.505682 0.149593
C35   C     C_R   0.490763 0.512281 0.235954 0.005487
C36   C     C_R   0.551196 0.496757 0.206006 -0.201453
C37   C     C_R   0.550703 0.497379 0.134644 -0.147669
C38   C     C_R   0.488962 0.511815 0.091957 0.198387
C39   C     C_R   0.429073 0.529784 0.121973 -0.177864
C40   C     C_R   0.429987 0.530370 0.193687 -0.194998
C41   C     C_R   0.464104 0.463474 0.871972 -0.159391
C42   C     C_R   0.458874 0.467035 0.800063 -0.271643
C43   C     C_R   0.581408 0.496229 0.801422 0.490597
C44   C     C_R   0.586005 0.492788 0.873580 -0.255751
C45   C     C_R   0.527411 0.477570 0.908782 0.123658
C46   C     C_2   0.484817 0.508453 0.016294 -0.224346
C47   C     C_2   0.533227 0.477803 0.984157 -0.203901
C48   C     C_R   0.516665 0.485247 0.764323 -0.112632
H19   H     H_    0.599115 0.484363 0.237873 0.158905
H20   H     H_    0.409252 0.457264 0.772271 0.178607
H21   H     H_    0.579667 0.455058 0.012012 0.144551
H22   H     H_    0.381209 0.542068 0.089997 0.129991
H23   H     H_    0.418739 0.450093 0.898821 0.148064
H24   H     H_    0.382921 0.542913 0.216134 0.155688
H25   H     H_    0.439625 0.531464 0.985691 0.153334
H26   H     H_    0.599037 0.486651 0.114044 0.125040
H27   H     H_    0.635039 0.503487 0.902062 0.149978
O14   O     O_3   0.980252 0.433415 0.424452 -0.652832
C49   C     C_3   0.989347 0.455202 0.354603 0.084630
H28   H     H_    0.973582 0.411908 0.322997 0.169078
H29   H     H_    0.044446 0.466189 0.345809 0.137664
C50   C     C_3   0.942897 0.517635 0.329046 -0.347160
H30   H     H_    0.888240 0.505158 0.337955 0.239344
H31   H     H_    0.958974 0.562332 0.358572 0.239896
C51   C     C_3   0.947477 0.537690 0.252053 -0.944567
H32   H     H_    0.001610 0.551342 0.242244 0.266186
H33   H     H_    0.913565 0.583038 0.235255 0.274252
H34   H     H_    0.930091 0.494449 0.221032 0.262109
N1    N     N_R   0.905954 0.637982 0.521061 0.201351
O15   O     O_R   0.956987 0.652340 0.483252 -0.422634
O16   O     O_R   0.880625 0.686779 0.553237 -0.379887
O17   O     O_3   0.639539 0.514742 0.767901 -0.624086
C52   C     C_3   0.670167 0.455627 0.745317 0.110604
H35   H     H_    0.692555 0.471604 0.695852 0.178042
H36   H     H_    0.632521 0.413706 0.733760 0.091094
C53   C     C_3   0.728672 0.427920 0.798637 -0.369700
H37   H     H_    0.765907 0.469962 0.809614 0.241673
H38   H     H_    0.706821 0.409424 0.847701 0.212173
C54   C     C_3   0.767165 0.368552 0.772294 -0.944463
H39   H     H_    0.731067 0.325480 0.761927 0.263466
H40   H     H_    0.809054 0.349476 0.812085 0.269520
H41   H     H_    0.790775 0.386133 0.723929 0.265353

loop_
_geom_bond_atom_site_label_1
_geom_bond_atom_site_label_2
_geom_bond_distance
_ccdc_geom_bond_type
O14   C49   1.414793 S    
O8    C5    1.284716 A    
C38   C39   1.403313 A    
C53   H37   1.111604 S    
N1    O16   1.301439 A    
C54   H39   1.110932 S    
C27   H14   1.083502 S    
C52   H35   1.111413 S    
C9    C10   1.402754 A    
O4    C3    1.284369 A    
Zn1   O1    1.956557 S    
C11   C12   1.394128 A    
C13   C14   1.390505 A    
C42   C48   1.400625 A    
C31   C33   1.464730 S    
C50   H30   1.111743 S    
C29   C30   1.392424 A    
O9    C6    1.281213 A    
C11   H5    1.083393 S    
C7    C12   1.404441 A    
Zn3   O8    1.952073 S    
C32   H16   1.087750 S    
C43   C48   1.413753 A    
C18   C19   1.339236 D    
C14   H2    1.083163 S    
C28   H12   1.083330 S    
C6    C7    1.463272 S    
C29   H13   1.083253 S    
C35   C36   1.398993 A    
C39   H22   1.083462 S    
Zn2   O12   1.940015 S    
C41   H23   1.083138 S    
C33   O14   1.389650 S    
C42   H20   1.083491 S    
C32   C33   1.344058 D    
C19   H4    1.086897 S    
C38   C46   1.472779 S    
N1    O15   1.301363 A    
C50   H31   1.111308 S    
C46   C47   1.341174 D    
C21   C26   1.399398 A    
O2    C1    1.283744 A    
C39   C40   1.393683 A    
C13   C17   1.404029 A    
C24   C25   1.415913 A    
O10   C3    1.283052 A    
C16   C17   1.397789 A    
C7    C8    1.402349 A    
C45   C47   1.459743 S    
C37   H26   1.079122 S    
C40   H24   1.083204 S    
C2    C21   1.455356 S    
Zn4   O1    1.952457 S    
C49   C50   1.535026 S    
C10   C18   1.465385 S    
C8    C9    1.385315 A    
C47   H21   1.082128 S    
C5    C20   1.460276 S    
C51   H34   1.110830 S    
O6    C5    1.287470 A    
C14   C20   1.401785 A    
C43   O17   1.384381 S    
Zn3   O5    1.945601 S    
C8    H1    1.083136 S    
O17   C52   1.416453 S    
C51   H33   1.110370 S    
C23   C24   1.404316 A    
C53   H38   1.111035 S    
C15   C20   1.403449 A    
C41   C42   1.388236 A    
Zn4   O7    1.952952 S    
C49   H29   1.114010 S    
C26   H15   1.083651 S    
C44   H27   1.083930 S    
C46   H25   1.087508 S    
Zn4   O2    1.944390 S    
C21   C22   1.395787 A    
O3    C2    1.285171 A    
C12   H7    1.082957 S    
C16   H10   1.083645 S    
C13   H6    1.082669 S    
Zn2   O1    1.961005 S    
C24   C32   1.469979 S    
Zn2   O6    1.953009 S    
C10   C11   1.399807 A    
C50   C51   1.525356 S    
C25   C26   1.401250 A    
C36   H19   1.083678 S    
C27   C31   1.399608 A    
C27   C28   1.389568 A    
C25   N1    1.439799 S    
C22   H11   1.083622 S    
Zn1   O3    1.944164 S    
Zn2   O4    1.947243 S    
C41   C45   1.401074 A    
C37   C38   1.406705 A    
Zn3   O1    1.962841 S    
C54   H40   1.110364 S    
C1    C34   1.458255 S    
C52   C53   1.530879 S    
C4    C35   1.456928 S    
C15   C16   1.388996 A    
Zn4   O11   1.950840 S    
C36   C37   1.385546 A    
C43   C44   1.393435 A    
O5    C4    1.282350 A    
C30   C31   1.397896 A    
C28   C34   1.402105 A    
O7    C6    1.283688 A    
C51   H32   1.110902 S    
O13   C2    1.285782 A    
C52   H36   1.117116 S    
Zn3   O13   1.940957 S    
C53   C54   1.526041 S    
C17   C19   1.462255 S    
C15   H3    1.083201 S    
C49   H28   1.110864 S    
C54   H41   1.111110 S    
C9    H9    1.082752 S    
C44   C45   1.397074 A    
O11   C4    1.284668 A    
Zn1   O9    1.950823 S    
O12   C1    1.285383 A    
C22   C23   1.385574 A    
C3    C48   1.457790 S    
C35   C40   1.400536 A    
C29   C34   1.403104 A    
Zn1   O10   1.949593 S    
C30   H18   1.083311 S    
C23   H17   1.082553 S    
C18   H8    1.086620 S    
