data_mof_unit_6157.cif
_audit_creation_date              2013-03-05T15:53:36-0500
_audit_creation_method            fapswitch 2.2
_symmetry_space_group_name_H-M    P1
_symmetry_Int_Tables_number       1
_space_group_crystal_system       triclinic
_cell_length_a                    10.016786
_cell_length_b                    10.701719
_cell_length_c                    13.597264
_cell_angle_alpha                 94.314004
_cell_angle_beta                  84.509255
_cell_angle_gamma                 88.828763
_cell_volume                      1446.22403111

loop_
_atom_site_label
_atom_site_type_symbol
_atom_site_description
_atom_site_fract_x
_atom_site_fract_y
_atom_site_fract_z
_atom_type_partial_charge
O1    O     O_R   0.385310 0.683220 0.500000 -0.667598
O2    O     O_R   0.614640 0.683250 0.500010 -0.540457
C1    C     C_R   0.499617 0.737117 0.486553 0.977162
O3    O     O_R   0.368830 0.499960 0.640340 -0.637556
O4    O     O_R   0.598160 0.499980 0.640350 -0.566101
C2    C     C_R   0.476847 0.498935 0.684941 0.962730
Zn1   Zn    Zn3+2 0.346870 0.499980 0.499990 1.028741
Zn2   Zn    Zn3+2 0.653130 0.500020 0.500010 1.060742
O5    O     O_R   0.385360 0.316750 0.499990 -0.550384
O6    O     O_R   0.614690 0.316780 0.500000 -0.584564
O7    O     O_R   0.401840 0.500020 0.359650 -0.566913
O8    O     O_R   0.631170 0.500040 0.359660 -0.631949
C3    C     C_R   0.500966 0.259550 0.503420 0.933790
C4    C     C_R   0.522742 0.498633 0.314880 0.847941
C5    C     C_1   0.537919 0.498274 0.211542 -0.086602
C6    C     C_2   0.548430 0.497813 0.020350 -0.211521
C7    C     C_2   0.432097 0.497341 0.980684 0.563327
C8    C     C_1   0.442903 0.497424 0.875593 -0.139358
C9    C     C_1   0.547677 0.498070 0.124013 0.097184
C10   C     C_1   0.458983 0.497852 0.788151 -0.063434
H1    H     H_    0.644306 0.498189 0.975373 0.160533
C11   C     C_R   0.250780 0.889383 0.461839 -0.174773
H2    H     H_    0.246139 0.803673 0.414890 0.207114
C12   C     C_R   0.131525 0.952137 0.499580 0.291287
C13   C     C_R   0.137958 0.061654 0.562138 -0.160938
H3    H     H_    0.047152 0.107376 0.598542 0.229411
C14   C     C_R   0.262155 0.114842 0.576502 0.557316
C15   C     C_R   0.381316 0.060740 0.522112 -0.020314
C16   C     C_R   0.375381 0.937704 0.482153 -0.047045
C17   C     C_R   0.495438 0.867141 0.462796 -0.273567
C18   C     C_R   0.614395 0.926760 0.435634 0.458877
C19   C     C_R   0.619604 0.055845 0.454818 0.256393
C20   C     C_R   0.503542 0.123736 0.501181 -0.310073
H4    H     H_    0.892788 0.357405 0.385892 0.203727
C21   C     C_R   0.855258 0.685119 0.637641 0.244010
C22   C     C_R   0.929696 0.777252 0.688210 0.216670
C23   C     C_R   0.068149 0.766883 0.682998 0.126256
C24   C     C_R   0.131441 0.670157 0.623083 -0.265916
H5    H     H_    0.235339 0.662718 0.626904 0.270734
C25   C     C_R   0.065405 0.585783 0.562272 0.035675
C26   C     C_R   0.920884 0.588022 0.565633 0.044929
N1    N     N_R   0.857120 0.501200 0.500900 -0.123410
C27   C     C_R   0.938075 0.421000 0.437857 -0.071897
C28   C     C_R   0.080296 0.420553 0.437617 0.363048
N2    N     N_R   0.142720 0.501280 0.500940 -0.152352
O9    O     O_3   0.310881 0.497055 0.041302 -0.575868
C29   C     C_3   0.197673 0.498147 0.987017 -0.150061
H6    H     H_    0.196900 0.412448 0.935444 0.150125
H7    H     H_    0.193073 0.584317 0.946341 0.175577
H8    H     H_    0.106018 0.498540 0.039758 0.206520
N3    N     N_R   0.725105 0.676638 0.686543 0.236001
O10   O     O_R   0.636950 0.765905 0.679692 -0.335500
O11   O     O_R   0.718630 0.621512 0.769112 -0.392977
N4    N     N_R   0.861399 0.875649 0.753267 0.286528
O12   O     O_R   0.805894 0.851006 0.839882 -0.276577
O13   O     O_R   0.876565 0.992102 0.734261 -0.319397
N5    N     N_R   0.146427 0.848989 0.742669 0.214137
O14   O     O_R   0.097616 0.896284 0.829970 -0.313709
O15   O     O_R   0.273093 0.863354 0.715726 -0.415098
N6    N     N_R   0.158707 0.337246 0.366910 0.221102
O16   O     O_R   0.158569 0.217601 0.377991 -0.372306
O17   O     O_R   0.195769 0.374870 0.279952 -0.339896
O18   O     O_3   0.727640 0.859436 0.393502 -0.508121
C30   C     C_3   0.708366 0.817961 0.294988 -0.092239
H9    H     H_    0.689060 0.898099 0.250179 0.171584
H10   H     H_    0.625280 0.751047 0.291924 0.076324
H11   H     H_    0.801277 0.767968 0.260553 0.211731
N7    N     N_R   0.005478 0.900333 0.478408 0.234093
O19   O     O_R   0.000809 0.808449 0.410538 -0.375245
O20   O     O_R   0.895468 0.938516 0.531268 -0.318056
O21   O     O_3   0.263353 0.218877 0.643251 -0.609002
C31   C     C_3   0.318154 0.183239 0.728948 -0.217447
H12   H     H_    0.425014 0.151654 0.712683 0.174727
H13   H     H_    0.257949 0.109614 0.764299 0.236296
H14   H     H_    0.314535 0.265862 0.783452 0.169055
N8    N     N_R   0.742060 0.116167 0.424770 0.255055
O22   O     O_R   0.787981 0.110054 0.331711 -0.364667
O23   O     O_R   0.816269 0.162998 0.491132 -0.333566

loop_
_geom_bond_atom_site_label_1
_geom_bond_atom_site_label_2
_geom_bond_distance
_ccdc_geom_bond_type
C12   C13   1.401757 A    
C6    H1    1.088337 S    
C11   C16   1.404398 A    
C26   N1    1.433458 A    
C21   C22   1.423759 A    
C29   H7    1.112789 S    
C5    C9    1.184644 T    
C23   C24   1.372816 A    
Zn1   N2    2.043488 S    
C15   C16   1.390748 A    
N8    O23   1.301350 A    
O3    Zn1   1.941822 S    
C17   C18   1.394852 A    
O7    C4    1.301642 A    
N5    O15   1.301985 A    
N6    O17   1.300655 A    
O5    C3    1.305187 A    
O9    C29   1.411308 S    
C18   C19   1.389406 A    
N7    O19   1.301685 A    
C31   H14   1.107849 S    
C29   H8    1.109317 S    
C11   H2    1.081832 S    
C25   N2    1.359174 A    
N4    O13   1.300647 A    
N3    O10   1.302185 A    
C30   H11   1.109131 S    
C18   O18   1.383539 S    
C24   H5    1.048671 S    
C7    O9    1.400948 S    
C31   H13   1.111969 S    
C6    C7    1.330004 D    
C13   H3    1.082117 S    
N6    O16   1.300458 A    
N3    O11   1.303848 A    
C30   H10   1.110722 S    
C1    C17   1.452636 S    
Zn1   O7    1.934845 S    
C27   C28   1.424195 A    
C3    C20   1.451120 S    
C16   C17   1.399336 A    
C29   H6    1.112432 S    
Zn2   O8    1.941822 S    
C7    C8    1.422753 S    
N8    O22   1.300723 A    
O3    C2    1.290230 A    
C25   C26   1.443632 A    
O8    C4    1.294768 A    
C15   C20   1.424911 A    
C21   N3    1.413523 S    
C11   C12   1.392610 A    
N1    C27   1.362674 A    
C14   O21   1.383492 S    
C28   N2    1.375464 A    
Zn1   O5    1.990671 S    
N4    O12   1.301199 A    
C22   C23   1.383625 A    
O1    Zn1   2.006129 S    
O2    Zn2   1.990673 S    
H4    C27   1.081578 S    
Zn2   N1    2.044809 S    
C31   H12   1.112458 S    
O6    C3    1.302920 A    
C19   N8    1.436799 S    
O4    Zn2   1.934845 S    
C13   C14   1.403044 A    
C2    C10   1.398597 S    
C30   H9    1.112886 S    
O2    C1    1.312377 A    
O21   C31   1.408996 S    
C19   C20   1.425886 A    
C24   C25   1.397608 A    
N5    O14   1.301056 A    
O4    C2    1.305737 A    
C28   N6    1.426173 S    
C6    C9    1.408622 S    
C8    C10   1.184823 T    
C21   C26   1.471864 A    
C22   N4    1.440130 S    
C12   N7    1.434752 S    
O18   C30   1.411430 S    
Zn2   O6    2.006128 S    
C14   C15   1.430137 A    
N7    O20   1.297570 A    
C4    C5    1.398476 S    
O1    C1    1.296118 A    
C23   N5    1.444929 S    
