data_mof_unit_19951.cif
_audit_creation_date              2013-03-05T16:33:55-0500
_audit_creation_method            fapswitch 2.2
_symmetry_space_group_name_H-M    P1
_symmetry_Int_Tables_number       1
_space_group_crystal_system       triclinic
_cell_length_a                    17.711957
_cell_length_b                    10.835907
_cell_length_c                    9.544371
_cell_angle_alpha                 90.427583
_cell_angle_beta                  89.787045
_cell_angle_gamma                 89.968236
_cell_volume                      1831.7405673

loop_
_atom_site_label
_atom_site_type_symbol
_atom_site_description
_atom_site_fract_x
_atom_site_fract_y
_atom_site_fract_z
_atom_type_partial_charge
O1    O     O_R   0.500000 0.319640 0.618810 -0.543679
O2    O     O_R   0.500010 0.319680 0.381230 -0.586889
C1    C     C_R   0.498123 0.262395 0.499521 0.845040
O3    O     O_R   0.391250 0.499990 0.618840 -0.595897
O4    O     O_R   0.391260 0.500020 0.381250 -0.593234
C2    C     C_R   0.355479 0.500330 0.500386 0.805418
Cu1   Cu    Cu3+1 0.500000 0.499980 0.640670 0.996887
Cu2   Cu    Cu3+1 0.500000 0.500020 0.359330 0.955779
O5    O     O_R   0.499990 0.680320 0.618770 -0.582491
O6    O     O_R   0.500000 0.680360 0.381190 -0.588986
O7    O     O_R   0.608740 0.499980 0.618750 -0.526878
O8    O     O_R   0.608750 0.500010 0.381160 -0.583797
C3    C     C_R   0.498761 0.737814 0.500205 0.800454
C4    C     C_R   0.644271 0.498401 0.499826 0.866675
C5    C     C_R   0.847089 0.429564 0.595413 -0.179460
H1    H     H_    0.879262 0.372474 0.666423 0.198722
C6    C     C_R   0.768137 0.422220 0.594517 0.333101
C7    C     C_R   0.727069 0.496403 0.499809 -0.133119
C8    C     C_R   0.765896 0.573810 0.406896 -0.236934
H2    H     H_    0.735307 0.632705 0.335842 0.152049
C9    C     C_R   0.844461 0.578485 0.407420 -0.132788
H3    H     H_    0.873613 0.638487 0.334792 0.154443
C10   C     C_R   0.884896 0.506479 0.501704 0.058099
C11   C     C_1   0.965545 0.508454 0.500764 0.030253
C12   C     C_1   0.033262 0.507253 0.502179 0.053203
C13   C     C_R   0.153843 0.499381 0.633814 0.368062
C14   C     C_R   0.233000 0.499463 0.629971 -0.250861
H4    H     H_    0.263911 0.496229 0.727550 0.182889
C15   C     C_R   0.272362 0.501409 0.501914 -0.100030
C16   C     C_R   0.231793 0.504426 0.376121 -0.169259
H5    H     H_    0.260677 0.506218 0.275944 0.167784
C17   C     C_R   0.153221 0.505704 0.378282 -0.185407
H6    H     H_    0.122843 0.508822 0.279977 0.183727
C18   C     C_R   0.114047 0.503373 0.505785 0.000866
C19   C     C_R   0.479921 0.065099 0.622816 0.121637
C20   C     C_R   0.489870 0.129535 0.498049 -0.112727
C21   C     C_R   0.488749 0.063583 0.370677 -0.201284
H7    H     H_    0.491625 0.110630 0.271059 0.166978
C22   C     C_R   0.489242 0.934916 0.371215 -0.206718
H8    H     H_    0.492166 0.886289 0.271787 0.160367
C23   C     C_R   0.491150 0.871074 0.499112 -0.081020
C24   C     C_R   0.481265 0.937869 0.623450 0.088697
C25   C     C_3   0.523894 0.933460 0.758129 -0.542558
C26   C     C_3   0.521768 0.073948 0.758319 -0.006665
H9    H     H_    0.490497 0.890087 0.843461 0.197163
H10   H     H_    0.582018 0.896730 0.743416 0.197309
H11   H     H_    0.578080 0.118283 0.749328 0.228606
C27   C     C_R   0.564394 0.526205 0.073543 0.239374
N1    N     N_R   0.500470 0.500930 0.147930 -0.190611
C28   C     C_R   0.438764 0.461056 0.074358 -0.075296
H12   H     H_    0.388785 0.430721 0.129405 0.147313
C29   C     C_R   0.438715 0.461274 0.925694 -0.056012
H13   H     H_    0.388709 0.431177 0.870738 0.152265
N2    N     N_R   0.500480 0.500890 0.852020 -0.209496
C30   C     C_R   0.564655 0.525062 0.926012 0.315895
C31   C     C_3   0.609649 0.641370 0.921563 -0.116438
C32   C     C_3   0.609229 0.642383 0.081130 -0.554378
H14   H     H_    0.578602 0.718774 0.873719 0.176886
H15   H     H_    0.665512 0.627454 0.128736 0.201642
H16   H     H_    0.576587 0.720654 0.126796 0.199144
N3    N     N_3   0.475179 0.127184 0.870574 -0.560861
H17   H     H_    0.503097 0.112688 0.965376 0.224633
H18   H     H_    0.423298 0.081246 0.876600 0.230135
N4    N     N_3   0.684668 0.622150 0.860218 -0.541586
H19   H     H_    0.716445 0.701809 0.879019 0.234374
H20   H     H_    0.712157 0.549142 0.910040 0.262216
N5    N     N_R   0.731213 0.335168 0.684621 0.119843
O9    O     O_R   0.759734 0.309677 0.806507 -0.365687
O10   O     O_R   0.676499 0.267082 0.636686 -0.401307
N6    N     N_R   0.115626 0.495504 0.767469 0.122301
O11   O     O_R   0.149498 0.534848 0.880046 -0.373411
O12   O     O_R   0.050142 0.442331 0.780354 -0.354469

loop_
_geom_bond_atom_site_label_1
_geom_bond_atom_site_label_2
_geom_bond_distance
_ccdc_geom_bond_type
C8    H2    1.081456 S    
O4    Cu2   1.936555 S    
C28   C29   1.418926 A    
C10   C11   1.428614 S    
C31   N4    1.464169 S    
C5    C6    1.400756 A    
N6    O11   1.301707 A    
C26   N3    1.464678 S    
C14   C15   1.405135 A    
C20   C21   1.405787 A    
C23   C24   1.395831 A    
C4    C7    1.466667 S    
C19   C20   1.395570 A    
C26   H11   1.110616 S    
C12   C18   1.432005 S    
Cu2   O8    1.938181 S    
N4    H19   1.045477 S    
N3    H17   1.045590 S    
C30   C31   1.492286 S    
C5    C10   1.396526 A    
C6    C7    1.416833 A    
C27   C30   1.408047 A    
C27   C32   1.490263 S    
C21   C22   1.394293 A    
O1    C1    1.293027 A    
C9    H3    1.083643 S    
C11   C12   1.199582 T    
C29   H13   1.080353 S    
Cu1   O7    1.936553 S    
C19   C26   1.495495 S    
C25   H9    1.111993 S    
N4    H20   1.046880 S    
C13   C14   1.402379 A    
C15   C16   1.402080 A    
C1    C20   1.447112 S    
C25   C26   1.522744 S    
O3    Cu1   1.938183 S    
O4    C2    1.299688 A    
C3    C23   1.450314 S    
C27   N1    1.363176 A    
C25   H10   1.111588 S    
C21   H7    1.083234 S    
O8    C4    1.297870 A    
O2    C1    1.292789 A    
Cu1   Cu2   2.685216 S    
C31   H14   1.105210 S    
C9    C10   1.395044 A    
C16   H5    1.083024 S    
C13   N6    1.442795 S    
O7    C4    1.295793 A    
C6    N5    1.437255 S    
Cu2   O6    1.963705 S    
C32   H15   1.109358 S    
C24   C25   1.494249 S    
C5    H1    1.084195 S    
C16   C17   1.391805 A    
C14   H4    1.082865 S    
C2    C15   1.472217 S    
C31   C32   1.522912 S    
C22   C23   1.408086 A    
O3    C2    1.298075 A    
N1    C28   1.369656 A    
C22   H8    1.083055 S    
Cu1   O5    1.966844 S    
C19   C24   1.378901 A    
O5    C3    1.296098 A    
N2    C30   1.364873 A    
C7    C8    1.403600 A    
C32   H16   1.111587 S    
N6    O12   1.301186 A    
C28   H12   1.080355 S    
Cu1   N2    2.017203 S    
C8    C9    1.392507 A    
O1    Cu1   1.963705 S    
Cu2   N1    2.017764 S    
C13   C18   1.413879 A    
N3    H18   1.046918 S    
O2    Cu2   1.966844 S    
N5    O9    1.301472 A    
C17   H6    1.084052 S    
C29   N2    1.369247 A    
N5    O10   1.300693 A    
O6    C3    1.291369 A    
C17   C18   1.398999 A    
