data_mof_unit_67758.cif
_audit_creation_date              2012-12-10T16:50:01-0500
_audit_creation_method            fapswitch 2.2
_symmetry_space_group_name_H-M    P1
_symmetry_Int_Tables_number       1
_space_group_crystal_system       triclinic
_cell_length_a                    7.812422
_cell_length_b                    8.598866
_cell_length_c                    10.689
_cell_angle_alpha                 90.721384
_cell_angle_beta                  83.983272
_cell_angle_gamma                 93.810917
_cell_volume                      712.51927342

loop_
_atom_site_label
_atom_site_type_symbol
_atom_type_description
_atom_site_fract_x
_atom_site_fract_y
_atom_site_fract_z
_atom_type_partial_charge
C1    C     C_R   0.545195 0.793786 0.485131 0.831844
C2    C     C_R   0.455145 0.206978 0.487768 0.922501
C3    C     C_R   0.502124 0.508430 0.260161 0.859458
C4    C     C_R   0.169065 0.529578 0.918378 0.447858
C5    C     C_R   0.052755 0.628987 0.982781 0.289040
C6    C     C_R   0.093156 0.699139 0.095805 -0.133229
C7    C     C_R   0.253150 0.677644 0.138108 -0.211151
C8    C     C_R   0.368802 0.578846 0.072231 -0.042063
C9    C     C_3   0.046007 0.279389 0.914009 0.123920
C10   C     C_3   0.183396 0.161939 0.925353 -0.362983
C11   C     C_3   0.256277 0.099498 0.797964 -0.823355
C12   C     C_R   0.339657 0.529756 0.951731 -0.086086
C13   C     C_3   0.890913 0.748458 0.849601 0.098798
C14   C     C_3   0.766388 0.873786 0.891472 -0.355725
C15   C     C_3   0.721081 0.966019 0.779856 -1.004379
C16   C     C_2   0.958766 0.772784 0.179342 0.531147
C17   C     C_2   0.751787 0.013241 0.417538 0.568527
C18   C     C_2   0.251528 0.988699 0.442381 0.455292
C19   C     C_R   0.479807 0.471034 0.874518 -0.079377
C20   C     C_R   0.614781 0.410424 0.927883 -0.165604
C21   C     C_R   0.621394 0.423758 0.055467 -0.118181
C22   C     C_R   0.503400 0.513108 0.126791 -0.069364
C23   C     C_2   0.569731 0.955137 0.455100 -0.317601
C24   C     C_2   0.431318 0.044805 0.460989 -0.227111
C25   C     C_R   0.495230 0.489163 0.740196 0.868319
H1    H     H_    0.714746 0.355059 0.870178 0.166356
H2    H     H_    0.151402 0.063740 0.739145 0.238043
H3    H     H_    0.330160 0.996345 0.812009 0.229799
H4    H     H_    0.344270 0.189591 0.747962 0.266936
H5    H     H_    0.843155 0.686152 0.767996 0.194432
H6    H     H_    0.020591 0.805218 0.817389 0.103627
H7    H     H_    0.645341 0.818520 0.940400 0.245811
H8    H     H_    0.826152 0.955022 0.958334 0.197735
H9    H     H_    0.839500 0.011530 0.721783 0.254730
H10   H     H_    0.645895 0.065824 0.814360 0.266056
H11   H     H_    0.641397 0.890205 0.720800 0.261493
H12   H     H_    0.987938 0.625746 0.586916 0.170186
H13   H     H_    0.844080 0.810998 0.143397 0.076176
H14   H     H_    0.853954 0.979003 0.470663 0.090047
H15   H     H_    0.173437 0.914567 0.510545 0.077888
H16   H     H_    0.283828 0.734051 0.224795 0.222043
H17   H     H_    0.720584 0.367622 0.098012 0.166960
H18   H     H_    0.013335 0.377450 0.409668 0.225622
H19   H     H_    0.941671 0.217921 0.866739 0.154943
H20   H     H_    0.988290 0.309576 0.010208 0.097631
H21   H     H_    0.289244 0.213578 0.977055 0.225996
H22   H     H_    0.122443 0.061867 0.982270 0.184880
N1    N     N_2   0.950330 0.457950 0.466250 -0.136760
N2    N     N_2   0.049670 0.542050 0.533750 -0.145275
O1    O     O_R   0.389250 0.738570 0.508280 -0.642913
O2    O     O_3   0.889652 0.638031 0.946612 -0.653948
O3    O     O_2   0.970341 0.783033 0.291997 -0.570202
O4    O     O_2   0.788515 0.093881 0.324012 -0.561751
O5    O     O_2   0.186223 0.035356 0.352273 -0.549913
O6    O     O_R   0.678390 0.711630 0.486650 -0.606775
O7    O     O_R   0.355400 0.513470 0.694050 -0.571689
O8    O     O_R   0.644540 0.486530 0.672420 -0.638787
O9    O     O_R   0.321610 0.288370 0.513350 -0.611597
O10   O     O_R   0.610750 0.261430 0.491720 -0.603064
O11   O     O_R   0.355460 0.513470 0.327580 -0.620621
O12   O     O_R   0.644600 0.486530 0.305950 -0.599653
O13   O     O_3   0.107579 0.412591 0.840889 -0.584794
Zn1   Zn    Zn3+2 0.306930 0.517990 0.514440 0.985289
Zn2   Zn    Zn3+2 0.693070 0.482010 0.485560 0.994568

loop_
_geom_bond_atom_site_label_1
_geom_bond_atom_site_label_2
_ccdc_geom_bond_type
C10   H21   S    
O12   Zn2   S    
C8    C22   A    
C23   C24   D    
C2    O9    A    
C9    H20   S    
C6    C7    A    
N2    Zn1   S    
C17   O4    D    
C4    C12   A    
H12   N2    S    
C1    O1    A    
C13   H5    S    
C15   H9    S    
C19   C20   A    
C25   O7    A    
C11   H2    S    
C8    C12   A    
C3    O11   A    
C14   H8    S    
C7    H16   S    
C1    O6    A    
O7    Zn1   S    
C7    C8    A    
C13   O2    S    
C21   C22   A    
O6    Zn2   S    
O1    Zn1   S    
O10   Zn2   S    
C17   C23   S    
C20   H1    S    
C11   H3    S    
O11   Zn1   S    
C18   C24   S    
C12   C19   A    
C15   H10   S    
N1    N2    D    
C1    C23   S    
C3    O12   A    
C2    C24   S    
C5    C6    A    
C19   C25   S    
N1    Zn2   S    
C10   C11   S    
C18   O5    D    
C6    C16   S    
C9    O13   S    
C25   O8    A    
C9    C10   S    
C4    O13   S    
C15   H11   S    
O9    Zn1   S    
C20   C21   A    
C11   H4    S    
O8    Zn2   S    
C16   O3    D    
H18   N1    S    
C14   H7    S    
C10   H22   S    
C17   H14   S    
C14   C15   S    
C5    O2    S    
C3    C22   S    
C18   H15   S    
C13   C14   S    
C2    O10   A    
C13   H6    S    
C21   H17   S    
C16   H13   S    
C4    C5    A    
C9    H19   S    
