data_mof_unit_51785.cif
_audit_creation_date              2012-12-10T19:09:34-0500
_audit_creation_method            fapswitch 2.2
_symmetry_space_group_name_H-M    P1
_symmetry_Int_Tables_number       1
_space_group_crystal_system       triclinic
_cell_length_a                    9.595843
_cell_length_b                    10.913578
_cell_length_c                    17.04817
_cell_angle_alpha                 87.652708
_cell_angle_beta                  95.544952
_cell_angle_gamma                 90.347757
_cell_volume                      1775.51994937

loop_
_atom_site_label
_atom_site_type_symbol
_atom_type_description
_atom_site_fract_x
_atom_site_fract_y
_atom_site_fract_z
_atom_type_partial_charge
C1    C     C_R   0.499115 0.261679 0.503522 0.826642
C2    C     C_R   0.626836 0.579762 0.776703 -0.279588
C3    C     C_R   0.579689 0.494626 0.141144 -0.123228
C4    C     C_R   0.589381 0.495383 0.222834 -0.230144
C5    C     C_R   0.447616 0.496873 0.097046 0.373987
C6    C     C_R   0.468044 0.498752 0.262456 -0.030767
C7    C     C_R   0.336214 0.498799 0.218741 -0.203577
C8    C     C_R   0.326429 0.497165 0.136543 -0.177980
C9    C     C_R   0.617193 0.061677 0.497080 0.039949
C10   C     C_R   0.493407 0.126875 0.502898 -0.257805
C11   C     C_R   0.364739 0.058719 0.496556 0.386609
C12   C     C_R   0.518503 0.500241 0.650647 0.817251
C13   C     C_R   0.369163 0.931798 0.487535 -0.279619
C14   C     C_R   0.496375 0.870109 0.485757 -0.160268
C15   C     C_R   0.617678 0.939215 0.480398 0.085527
C16   C     C_3   0.761748 0.919077 0.519450 -0.412460
C17   C     C_3   0.755137 0.049120 0.547831 -0.164983
C18   C     C_R   0.061880 0.527799 0.432445 0.286371
C19   C     C_R   0.087973 0.461902 0.564135 0.015148
C20   C     C_R   0.941470 0.466419 0.566539 0.049977
C21   C     C_R   0.914629 0.526468 0.432113 0.256598
C22   C     C_3   0.901824 0.643958 0.384046 -0.489730
C23   C     C_R   0.499493 0.737192 0.495476 0.820708
C24   C     C_3   0.060047 0.645295 0.384777 -0.504665
C25   C     C_R   0.480878 0.500682 0.348959 0.798538
C26   C     C_R   0.527871 0.504784 0.736322 -0.085357
C27   C     C_R   0.430086 0.439578 0.777483 -0.244784
C28   C     C_R   0.432342 0.447391 0.858616 -0.238887
C29   C     C_R   0.532848 0.521289 0.900101 0.272165
C30   C     C_R   0.631585 0.586587 0.858717 0.424305
Cu1   Cu    Cu3+1 0.640670 0.499980 0.500000 0.951923
Cu2   Cu    Cu3+1 0.359330 0.500020 0.500000 1.001805
H1    H     H_    0.692389 0.492439 0.254819 0.161965
H2    H     H_    0.273194 0.879386 0.487388 0.209764
H3    H     H_    0.768057 0.844960 0.566524 0.210752
H4    H     H_    0.838764 0.909606 0.475484 0.211682
H5    H     H_    0.837047 0.110976 0.526377 0.216205
H6    H     H_    0.154525 0.432553 0.616215 0.168856
H7    H     H_    0.847547 0.631925 0.324350 0.200469
H8    H     H_    0.860513 0.719622 0.416571 0.215564
H9    H     H_    0.096253 0.633599 0.325591 0.199386
H10   H     H_    0.675674 0.491011 0.112731 0.183134
H11   H     H_    0.110649 0.721806 0.418048 0.220119
H12   H     H_    0.699532 0.632763 0.744186 0.209627
H13   H     H_    0.240916 0.499743 0.247891 0.161313
H14   H     H_    0.356550 0.394357 0.888835 0.179460
H15   H     H_    0.224240 0.497136 0.103438 0.160893
H16   H     H_    0.352066 0.382019 0.746762 0.169624
N1    N     N_2   0.541591 0.527510 0.983339 -0.176419
N2    N     N_2   0.433338 0.494782 0.013539 -0.258211
N3    N     N_R   0.147870 0.500930 0.499500 -0.194460
N4    N     N_R   0.851960 0.500890 0.499500 -0.211663
O1    O     O_R   0.618810 0.319640 0.500000 -0.596654
O2    O     O_R   0.381230 0.319680 0.499990 -0.479890
O3    O     O_R   0.631790 0.498830 0.613930 -0.583741
O4    O     O_R   0.394210 0.498870 0.613920 -0.593321
O5    O     O_R   0.618770 0.680320 0.500010 -0.588459
O6    O     O_R   0.381190 0.680360 0.500000 -0.593434
O7    O     O_R   0.605790 0.501130 0.386080 -0.584669
O8    O     O_R   0.368210 0.501170 0.386070 -0.580522
C31   C     C_R   0.753672 0.040834 0.637225 0.110950
C32   C     C_R   0.883437 0.038534 0.683414 -0.136490
C33   C     C_R   0.890344 0.016886 0.765066 -0.140760
C34   C     C_R   0.767806 0.996377 0.801670 -0.032850
C35   C     C_R   0.638440 0.995440 0.756562 -0.146639
C36   C     C_R   0.630969 0.017013 0.674855 -0.170746
H17   H     H_    0.979688 0.052656 0.656014 0.191182
H18   H     H_    0.990729 0.016322 0.799981 0.136845
H19   H     H_    0.773203 0.981121 0.864977 0.181681
H20   H     H_    0.543801 0.977490 0.784906 0.149275
H21   H     H_    0.529667 0.011494 0.641845 0.137537
C37   C     C_R   0.899922 0.443085 0.647162 0.135257
C38   C     C_R   0.961200 0.514364 0.708695 -0.211934
C39   C     C_R   0.949043 0.479208 0.787444 -0.066353
C40   C     C_R   0.867648 0.377725 0.805729 -0.118130
C41   C     C_R   0.802483 0.309433 0.745207 -0.175699
C42   C     C_R   0.825983 0.337098 0.666726 -0.062436
H22   H     H_    0.024102 0.594054 0.695642 0.143632
H23   H     H_    0.001366 0.531439 0.834222 0.192655
H24   H     H_    0.853044 0.353359 0.866573 0.154091
H25   H     H_    0.733930 0.235081 0.759320 0.159321
H26   H     H_    0.781578 0.279975 0.620812 0.146154
S1    S     S_3+6 0.761378 0.676961 0.909428 -0.033347
O9    O     O_2   0.691715 0.776963 0.949320 -0.290975
O10   O     O_2   0.844494 0.597424 0.970893 -0.319507
O11   O     O_3   0.869405 0.739406 0.846766 -0.582366
H27   H     H_    0.947308 0.775181 0.880911 0.366779
S2    S     S_3+6 0.197877 0.119664 0.511028 -0.023793
O12   O     O_2   0.148889 0.205335 0.442783 -0.250543
O13   O     O_2   0.091466 0.018941 0.516748 -0.365109
O14   O     O_3   0.209293 0.196050 0.595089 -0.556549
H28   H     H_    0.249746 0.136423 0.636321 0.317838

loop_
_geom_bond_atom_site_label_1
_geom_bond_atom_site_label_2
_ccdc_geom_bond_type
C27   H16   S    
C23   O6    A    
C3    H10   S    
C18   C21   A    
C38   C39   A    
C19   C20   A    
Cu2   O6    S    
Cu1   N4    S    
C1    O2    A    
C7    C8    A    
C29   N1    S    
C28   H14   S    
C26   C27   A    
C32   C33   A    
C32   H17   S    
S1    O9    D    
C18   C24   S    
C7    H13   S    
C28   C29   A    
C16   H3    S    
C6    C25   S    
C15   C16   S    
Cu1   O7    S    
C30   S1    S    
C1    O1    A    
C17   C31   S    
C33   H18   S    
C31   C36   A    
Cu1   Cu2   S    
C2    H12   S    
C16   C17   S    
C38   H22   S    
C25   O8    A    
C29   C30   A    
C9    C10   A    
C21   C22   S    
C24   H9    S    
Cu2   O2    S    
C18   N3    A    
C39   C40   A    
C41   C42   A    
C4    C6    A    
O14   H28   S    
O11   H27   S    
C12   C26   S    
C14   C23   S    
C40   C41   A    
Cu2   N3    S    
C37   C42   A    
C19   H6    S    
C36   H21   S    
S2    O14   S    
C11   S2    S    
C22   H8    S    
C2    C26   A    
C17   H5    S    
C34   H19   S    
Cu1   O1    S    
C12   O4    A    
C9    C17   S    
S1    O10   D    
S2    O13   D    
C35   C36   A    
C39   H23   S    
C22   C24   S    
C5    N2    S    
Cu2   O8    S    
C3    C4    A    
C40   H24   S    
C23   O5    A    
C4    H1    S    
C1    C10   S    
C37   C38   A    
C3    C5    A    
C41   H25   S    
C5    C8    A    
C6    C7    A    
C2    C30   A    
C34   C35   A    
Cu1   O5    S    
C9    C15   A    
C8    H15   S    
C13   H2    S    
C20   N4    A    
C16   H4    S    
C11   C13   A    
C42   H26   S    
C22   H7    S    
C31   C32   A    
C12   O3    A    
C10   C11   A    
C33   C34   A    
C19   N3    A    
S1    O11   S    
S2    O12   D    
N1    N2    D    
C27   C28   A    
C24   H11   S    
C14   C15   A    
C20   C37   S    
C25   O7    A    
Cu1   O3    S    
C13   C14   A    
Cu2   O4    S    
C21   N4    A    
C35   H20   S    
