data_mof_unit_37289.cif
_audit_creation_date              2012-10-26T20:58:20-0400
_audit_creation_method            fapswitch 2.2
_symmetry_space_group_name_H-M    P1
_symmetry_Int_Tables_number       1
_space_group_crystal_system       triclinic
_cell_length_a                    10.61821
_cell_length_b                    14.698467
_cell_length_c                    14.713103
_cell_angle_alpha                 65.162358
_cell_angle_beta                  103.168837
_cell_angle_gamma                 102.659839
_cell_volume                      2009.18647003

loop_
_atom_site_label
_atom_site_type_symbol
_atom_type_description
_atom_site_fract_x
_atom_site_fract_y
_atom_site_fract_z
_atom_type_partial_charge
C1    C     C_R   0.479112 0.119672 0.312302 0.539921
C2    C     C_R   0.532639 0.533378 0.949648 0.031621
C3    C     C_R   0.518856 0.491011 0.876790 -0.139796
C4    C     C_R   0.568393 0.509878 0.127630 -0.140434
C5    C     C_R   0.500138 0.387052 0.903963 -0.136162
C6    C     C_R   0.589881 0.613859 0.100568 -0.134767
C7    C     C_R   0.715743 0.283711 0.669570 -0.164450
C8    C     C_R   0.283573 0.715920 0.330990 -0.163190
C9    C     C_R   0.682971 0.202690 0.639168 0.033156
C10   C     C_R   0.316647 0.797107 0.361130 0.033288
C11   C     C_R   0.519012 0.285439 0.508905 0.050848
C12   C     C_R   0.523079 0.880306 0.687711 0.540792
C13   C     C_R   0.481051 0.714587 0.491100 0.051389
C14   C     C_R   0.548760 0.371268 0.535164 0.000828
C15   C     C_R   0.451009 0.628595 0.465103 0.001175
C16   C     C_R   0.259704 0.000669 0.499957 0.563643
C17   C     C_R   0.740278 0.999369 0.499970 0.563208
C18   C     C_R   0.648355 0.367737 0.618556 0.037213
C19   C     C_R   0.351083 0.631956 0.381949 0.038011
C20   C     C_R   0.483063 0.459071 0.483062 0.016556
C21   C     C_R   0.516663 0.540766 0.517256 0.017431
C22   C     C_R   0.614150 0.531615 0.602630 -0.155050
C23   C     C_R   0.494828 0.291859 0.179018 -0.134436
C24   C     C_R   0.385425 0.468152 0.397789 -0.152633
C25   C     C_R   0.679229 0.447351 0.651320 -0.140428
C26   C     C_R   0.320028 0.552252 0.349326 -0.136060
C27   C     C_3   0.017413 0.014343 0.406019 -0.161568
C28   C     C_3   0.982521 0.985719 0.593801 -0.161480
C29   C     C_3   0.962159 0.089242 0.430954 -0.152719
C30   C     C_3   0.037757 0.910807 0.568864 -0.152749
C31   C     C_3   0.876648 0.998598 0.499787 0.019950
C32   C     C_3   0.123293 0.001464 0.500040 0.019693
C33   C     C_3   0.931437 0.925058 0.475335 0.279978
C34   C     C_R   0.525736 0.708159 0.821081 -0.136701
C35   C     C_3   0.068482 0.075001 0.524474 0.279869
C36   C     C_R   0.476188 0.187306 0.205006 -0.003103
C37   C     C_R   0.541899 0.812641 0.795298 -0.002813
C38   C     C_R   0.469783 0.216467 0.029684 -0.136501
C39   C     C_R   0.593528 0.784116 0.973113 -0.135991
C40   C     C_R   0.462909 0.149697 0.129775 -0.138546
C41   C     C_R   0.577136 0.850527 0.871786 -0.139137
C42   C     C_3   0.924884 0.797601 0.421396 -0.008388
C43   C     C_3   0.840489 0.705154 0.407144 -0.370272
C44   C     C_3   0.074946 0.202179 0.578762 -0.009139
C45   C     C_R   0.508489 0.360750 0.079736 0.031547
C46   C     C_3   0.158431 0.295717 0.591215 -0.368854
C47   C     C_R   0.546066 0.639783 0.922438 0.030880
C48   C     C_R   0.492570 0.321427 0.004142 0.049577
C49   C     C_R   0.576821 0.679265 0.998992 0.050854
C50   C     C_R   0.535572 0.467293 0.053476 0.031455
Cu1   Cu    Cu3+1 0.465750 0.918270 0.475680 0.943601
Cu2   Cu    Cu3+1 0.534250 0.081730 0.524320 0.943701
H1    H     H_    0.928679 0.161997 0.376049 0.112994
H2    H     H_    0.356469 0.411093 0.366396 0.101124
H3    H     H_    0.035068 0.025598 0.330242 0.100198
H4    H     H_    0.964851 0.974496 0.669564 0.100664
H5    H     H_    0.490512 0.357872 0.845789 0.113192
H6    H     H_    0.615074 0.643216 0.159797 0.107929
H7    H     H_    0.493468 0.681596 0.760578 0.119999
H8    H     H_    0.496638 0.317716 0.237762 0.116575
H9    H     H_    0.590569 0.931173 0.853445 0.127456
H10   H     H_    0.448459 0.068976 0.148337 0.129923
H11   H     H_    0.458663 0.186052 0.972310 0.106123
H12   H     H_    0.071220 0.838050 0.623776 0.112540
H13   H     H_    0.618555 0.814690 0.031377 0.104998
H14   H     H_    0.526218 0.536148 0.798094 0.100862
H15   H     H_    0.582368 0.465056 0.207887 0.104143
H16   H     H_    0.754218 0.444235 0.715989 0.111962
H17   H     H_    0.244704 0.555210 0.284886 0.111910
H18   H     H_    0.011215 0.771842 0.479771 0.135152
H19   H     H_    0.958226 0.849538 0.347981 0.125194
H20   H     H_    0.751968 0.727671 0.350574 0.163377
H21   H     H_    0.896776 0.668607 0.380077 0.093122
H22   H     H_    0.810335 0.649827 0.480328 0.165357
H23   H     H_    0.558361 0.720265 0.550848 0.132122
H24   H     H_    0.043582 0.150401 0.652935 0.126072
H25   H     H_    0.987328 0.226658 0.521355 0.134933
H26   H     H_    0.186289 0.350891 0.517208 0.163937
H27   H     H_    0.102370 0.331849 0.618907 0.094796
H28   H     H_    0.248306 0.274585 0.646604 0.165566
H29   H     H_    0.441968 0.279889 0.448961 0.131900
H30   H     H_    0.265499 0.862400 0.321305 0.117168
H31   H     H_    0.733997 0.137336 0.679065 0.116403
H32   H     H_    0.792616 0.280336 0.733148 0.088570
H33   H     H_    0.206388 0.719125 0.267641 0.088830
H34   H     H_    0.643098 0.588695 0.633996 0.098591
N1    N     N_R   0.585750 0.204560 0.560800 -0.232130
N2    N     N_R   0.414250 0.795440 0.439200 -0.232343
O1    O     O_R   0.454850 0.022100 0.338110 -0.507919
O2    O     O_3   0.149484 0.154411 0.548312 -0.536723
O3    O     O_R   0.545150 0.977900 0.661890 -0.507497
O4    O     O_R   0.512700 0.160150 0.379180 -0.518200
O5    O     O_R   0.487300 0.839850 0.620820 -0.518606
O6    O     O_R   0.287930 0.931000 0.479440 -0.526538
O7    O     O_R   0.712070 0.069000 0.520560 -0.526958
O8    O     O_R   0.345780 0.069050 0.520520 -0.452239
O9    O     O_R   0.654220 0.930950 0.479480 -0.452739
O10   O     O_3   0.850303 0.845774 0.451341 -0.536607

loop_
_geom_bond_atom_site_label_1
_geom_bond_atom_site_label_2
_ccdc_geom_bond_type
C43   H21   S    
C30   C32   S    
Cu1   O9    S    
C43   H20   S    
C23   C45   A    
C30   H12   S    
C27   C29   S    
C34   C37   A    
C14   C18   A    
C12   O3    A    
C41   H9    S    
C28   H4    S    
C39   C41   A    
C11   H29   S    
C15   C19   A    
C25   H16   S    
C10   N2    A    
C44   H25   S    
C38   C40   A    
C24   C26   A    
C33   O10   S    
C42   O10   S    
C46   H27   S    
C11   C14   A    
C27   H3    S    
C24   H2    S    
C42   H18   S    
C40   H10   S    
Cu2   O7    S    
C8    H33   S    
C12   C37   S    
C44   H24   S    
C19   C26   A    
C6    H6    S    
C2    C50   A    
C20   C24   A    
C28   C35   S    
C11   N1    A    
C22   C25   A    
C31   C33   S    
C13   H23   S    
C17   O7    A    
C38   C48   A    
C43   H22   S    
C7    H32   S    
C21   C22   A    
C39   H13   S    
C18   C25   A    
C44   C46   S    
C28   C31   S    
C23   H8    S    
C5    C48   A    
C16   O8    A    
C8    C19   A    
Cu1   Cu2   S    
C32   C35   S    
C14   C20   A    
C36   C40   A    
C4    C6    A    
C46   H26   S    
C10   H30   S    
C27   C33   S    
C4    C50   A    
C7    C18   A    
Cu1   O5    S    
C39   C49   A    
C9    H31   S    
C1    O4    A    
C13   C15   A    
C34   H7    S    
C17   C31   S    
C12   O5    A    
Cu2   O4    S    
C3    H14   S    
C16   C32   S    
C42   C43   S    
C44   O2    S    
C38   H11   S    
C45   C48   A    
C7    C9    A    
C1    O1    A    
C30   C33   S    
C27   C32   S    
Cu2   N1    S    
C3    C5    A    
Cu1   N2    S    
C4    H15   S    
C2    C47   A    
C47   C49   A    
C29   C35   S    
C16   O6    A    
C5    H5    S    
C28   C30   S    
C2    C3    A    
C29   C31   S    
Cu1   O1    S    
C46   H28   S    
C29   H1    S    
C45   C50   A    
C13   N2    A    
C42   H19   S    
Cu2   O8    S    
C22   H34   S    
C6    C49   A    
C37   C41   A    
Cu1   O6    S    
C35   O2    S    
C15   C21   A    
C20   C21   A    
C8    C10   A    
C23   C36   A    
C26   H17   S    
Cu2   O3    S    
C34   C47   A    
C17   O9    A    
C9    N1    A    
C1    C36   S    
