data_mof_unit_40986.cif
_audit_creation_date              2013-03-05T15:43:49-0500
_audit_creation_method            fapswitch 2.2
_symmetry_space_group_name_H-M    P1
_symmetry_Int_Tables_number       1
_space_group_crystal_system       triclinic
_cell_length_a                    10.664581
_cell_length_b                    10.898709
_cell_length_c                    9.768299
_cell_angle_alpha                 90.196879
_cell_angle_beta                  89.307949
_cell_angle_gamma                 90.691155
_cell_volume                      1135.19943742

loop_
_atom_site_label
_atom_site_type_symbol
_atom_site_description
_atom_site_fract_x
_atom_site_fract_y
_atom_site_fract_z
_atom_type_partial_charge
O1    O     O_R   0.500020 0.321960 0.617040 -0.562959
O2    O     O_R   0.499980 0.321920 0.382900 -0.514957
C1    C     C_R   0.498360 0.265381 0.499514 0.920977
O3    O     O_R   0.316870 0.499990 0.617050 -0.570773
O4    O     O_R   0.316830 0.499950 0.382910 -0.510744
C2    C     C_R   0.259994 0.500294 0.500844 0.917808
Cu1   Cu    Cu3+1 0.500030 0.500020 0.638630 1.098138
Cu2   Cu    Cu3+1 0.499970 0.499980 0.361370 1.160100
O5    O     O_R   0.500020 0.678080 0.617100 -0.591072
O6    O     O_R   0.499980 0.678040 0.382960 -0.542945
O7    O     O_R   0.683170 0.500050 0.617090 -0.571508
O8    O     O_R   0.683130 0.500010 0.382950 -0.581770
C3    C     C_R   0.492327 0.734467 0.500025 0.905218
C4    C     C_R   0.740059 0.498641 0.499101 0.870229
C5    C     C_3   0.038580 0.513899 0.631414 -0.184461
C6    C     C_3   0.955684 0.404740 0.578786 -0.234089
H1    H     H_    0.917921 0.327293 0.640914 0.222183
H2    H     H_    0.071160 0.527887 0.737915 0.234973
C7    C     C_3   0.876299 0.497014 0.497111 -0.285731
C8    C     C_3   0.958333 0.603627 0.548682 0.254309
C9    C     C_3   0.043729 0.590320 0.422770 0.265327
C10   C     C_3   0.962938 0.483047 0.371015 0.202810
C11   C     C_3   0.042334 0.393009 0.451597 0.259317
C12   C     C_3   0.123900 0.499931 0.502819 -0.211721
C13   C     C_2   0.449201 0.933873 0.388887 0.228841
C14   C     C_2   0.471136 0.866345 0.501904 -0.381688
H3    H     H_    0.470145 0.908662 0.602566 0.168599
C15   C     C_2   0.437392 0.069059 0.399089 0.399734
C16   C     C_2   0.498528 0.132474 0.496932 -0.288530
H4    H     H_    0.553866 0.087931 0.574266 0.128352
C17   C     C_2   0.439775 0.419006 0.924760 0.440134
N1    N     N_2   0.498620 0.498660 0.846910 -0.064881
C18   C     C_2   0.419795 0.437552 0.078321 0.637331
N2    N     N_2   0.498590 0.498630 0.153040 -0.020570
N3    N     N_R   0.392551 0.307248 0.866415 0.080592
O9    O     O_R   0.290788 0.308920 0.794487 -0.317419
O10   O     O_R   0.431102 0.203019 0.913656 -0.291434
O11   O     O_3   0.509701 0.611704 0.901077 -0.578810
H5    H     H_    0.570286 0.655758 0.841229 0.400226
O12   O     O_3   0.316304 0.385653 0.142749 -0.654206
H6    H     H_    0.259132 0.352177 0.072420 0.354842
O13   O     O_3   0.613203 0.515498 0.097142 -0.573784
H7    H     H_    0.656890 0.573295 0.158937 0.398197
N4    N     N_R   0.909694 0.719616 0.599713 0.155903
O14   O     O_R   0.933823 0.755608 0.723776 -0.267567
O15   O     O_R   0.840255 0.786738 0.521948 -0.351064
O16   O     O_3   0.092623 0.687163 0.344374 -0.610599
H8    H     H_    0.018801 0.732352 0.311521 0.383458
N5    N     N_R   0.921507 0.464493 0.230664 0.172486
O17   O     O_R   0.852554 0.369367 0.199801 -0.259139
O18   O     O_R   0.954369 0.541860 0.135351 -0.283150
N6    N     N_R   0.092852 0.276919 0.403015 0.169011
O19   O     O_R   0.078303 0.242285 0.276670 -0.243537
O20   O     O_R   0.153472 0.207381 0.486772 -0.295251
N7    N     N_R   0.435295 0.878051 0.256224 0.147545
O21   O     O_R   0.501236 0.919634 0.153131 -0.265046
O22   O     O_R   0.339126 0.806735 0.232748 -0.259396
O23   O     O_3   0.366339 0.132016 0.305140 -0.598539
H9    H     H_    0.316569 0.072336 0.251007 0.390699

loop_
_geom_bond_atom_site_label_1
_geom_bond_atom_site_label_2
_geom_bond_distance
_ccdc_geom_bond_type
C5    H2    1.110230 S    
C11   C12   1.532001 S    
C17   C18   1.525633 S    
C16   H4    1.083893 S    
C15   O23   1.385953 S    
O4    Cu2   1.961880 S    
C7    C8    1.533414 S    
N2    O13   1.343544 S    
Cu2   O8    1.967192 S    
C2    C12   1.451230 S    
Cu1   O5    1.952708 S    
N6    O20   1.300219 A    
N7    O21   1.300921 A    
C18   N2    1.296130 D    
C11   N6    1.456855 S    
Cu1   Cu2   2.708365 S    
Cu2   N2    2.035261 S    
C9    C10   1.531988 S    
N6    O19   1.299903 A    
C13   C15   1.483157 S    
Cu1   O7    1.961880 S    
C14   H3    1.084634 S    
O4    C2    1.295262 A    
C6    C7    1.551456 S    
C4    C7    1.453157 S    
O3    C2    1.293512 A    
C15   C16   1.347540 D    
C8    N4    1.456307 S    
O8    C4    1.293488 A    
O2    C1    1.296800 A    
C6    C11   1.545290 S    
N1    O11   1.343638 S    
N7    O22   1.301467 A    
C5    C8    1.544079 S    
O7    C4    1.296109 A    
C17   N3    1.431578 S    
C3    C14   1.457664 S    
O23   H9    0.990194 S    
C18   O12   1.380132 S    
N5    O18   1.300405 A    
O13   H7    0.987586 S    
C5    C6    1.562878 S    
O16   H8    0.990907 S    
C13   N7    1.438226 S    
C7    C10   1.539060 S    
O11   H5    0.987466 S    
C8    C9    1.529079 S    
N3    O10   1.300697 A    
Cu2   O6    1.951329 S    
N5    O17   1.300501 A    
C9    C12   1.534506 S    
C10   N5    1.458184 S    
C1    C16   1.448672 S    
C9    O16   1.398202 S    
O5    C3    1.304065 A    
C10   C11   1.530017 S    
O12   H6    0.989878 S    
Cu1   N1    2.034520 S    
O3    Cu1   1.967192 S    
C13   C14   1.353192 D    
O1    Cu1   1.951328 S    
C5    C12   1.550301 S    
C17   N1    1.305999 D    
O2    Cu2   1.952706 S    
N4    O14   1.300231 A    
N3    O9    1.300304 A    
N4    O15   1.300413 A    
C6    H1    1.110117 S    
O1    C1    1.301495 A    
O6    C3    1.298708 A    
