data_mof_unit_46981.cif
_audit_creation_date              2012-12-10T17:11:02-0500
_audit_creation_method            fapswitch 2.2
_symmetry_space_group_name_H-M    P1
_symmetry_Int_Tables_number       1
_space_group_crystal_system       triclinic
_cell_length_a                    11.746753
_cell_length_b                    12.991222
_cell_length_c                    13.358405
_cell_angle_alpha                 93.017185
_cell_angle_beta                  74.712331
_cell_angle_gamma                 99.877881
_cell_volume                      1937.20940536

loop_
_atom_site_label
_atom_site_type_symbol
_atom_type_description
_atom_site_fract_x
_atom_site_fract_y
_atom_site_fract_z
_atom_type_partial_charge
C1    C     C_R   0.520914 0.700684 0.501426 0.802877
C2    C     C_R   0.446440 0.490390 0.977763 0.085003
C3    C     C_R   0.467946 0.527138 0.875336 0.078517
C4    C     C_R   0.534782 0.521313 0.033870 0.085358
C5    C     C_R   0.637771 0.595247 0.990313 0.168618
C6    C     C_R   0.650632 0.639046 0.894168 -0.254149
C7    C     C_R   0.565811 0.607210 0.838709 -0.203111
C8    C     C_R   0.522986 0.482690 0.133031 -0.237141
C9    C     C_R   0.706483 0.593207 0.146363 -0.211207
C10   C     C_R   0.390050 0.485009 0.812338 -0.159338
C11   C     C_R   0.467052 0.185827 0.498033 -0.052169
C12   C     C_R   0.434091 0.495394 0.697224 0.775673
C13   C     C_R   0.533151 0.814255 0.501625 -0.053329
C14   C     C_R   0.653596 0.985079 0.503117 -0.217180
C15   C     C_R   0.642518 0.876866 0.503773 -0.201385
C16   C     C_R   0.434739 0.860609 0.499126 -0.264690
C17   C     C_R   0.445062 0.968709 0.498593 0.175263
C18   C     C_R   0.555371 0.031419 0.500529 0.178535
C19   C     C_R   0.565657 0.139516 0.500062 -0.271439
C20   C     C_R   0.357676 0.123228 0.495957 -0.199733
C21   C     C_R   0.346761 0.015034 0.496202 -0.217030
C22   C     C_R   0.931811 0.574271 0.615951 -0.353733
C23   C     C_R   0.479072 0.299341 0.498632 0.788480
C24   C     C_R   0.815668 0.568261 0.602948 0.066762
C25   C     C_R   0.870509 0.474873 0.444133 0.230470
C26   C     C_R   0.982289 0.466737 0.463184 0.059884
C27   C     C_R   0.016198 0.523514 0.545562 0.045272
C28   C     C_R   0.135638 0.530813 0.552245 0.019155
C29   C     C_R   0.180581 0.417427 0.407446 0.090730
C30   C     C_R   0.064348 0.408299 0.397706 -0.356083
C31   C     C_R   0.565005 0.505882 0.303622 0.796071
C32   C     C_R   0.724279 0.628174 0.045612 -0.191897
C33   C     C_R   0.603767 0.522613 0.191322 -0.049969
C34   C     C_R   0.277474 0.422623 0.859239 0.083427
C35   C     C_R   0.252615 0.396650 0.964347 -0.145660
C36   C     C_R   0.336055 0.426822 0.021237 -0.230347
Cu1   Cu    Cu3+1 0.386470 0.492430 0.492410 0.924540
Cu2   Cu    Cu3+1 0.613530 0.507570 0.507590 0.927168
H1    H     H_    0.768920 0.626170 0.190910 0.139617
H2    H     H_    0.280494 0.157728 0.494463 0.155694
H3    H     H_    0.738639 0.032384 0.504644 0.133705
H4    H     H_    0.261706 0.967733 0.494717 0.134144
H5    H     H_    0.719558 0.842359 0.505666 0.157122
H6    H     H_    0.349873 0.812828 0.497660 0.154738
H7    H     H_    0.165101 0.577199 0.613215 0.110051
H8    H     H_    0.243163 0.374066 0.355574 0.118650
H9    H     H_    0.954995 0.617772 0.681188 0.141341
H10   H     H_    0.040600 0.356346 0.337879 0.147810
H11   H     H_    0.752245 0.606765 0.658812 0.135455
H12   H     H_    0.725975 0.699166 0.862075 0.135899
H13   H     H_    0.802779 0.684993 0.012816 0.131355
H14   H     H_    0.448895 0.424210 0.169399 0.131296
H15   H     H_    0.308729 0.401745 0.100801 0.129678
H16   H     H_    0.169158 0.349960 0.004122 0.129193
H17   H     H_    0.576041 0.648114 0.767664 0.148156
H18   H     H_    0.650547 0.187316 0.501431 0.151562
N1    N     N_R   0.215880 0.481050 0.481000 -0.175283
N2    N     N_R   0.784100 0.518950 0.519000 -0.186646
O1    O     O_R   0.419710 0.645650 0.494620 -0.579303
O2    O     O_R   0.611450 0.658430 0.507430 -0.593334
O3    O     O_R   0.357340 0.490460 0.641450 -0.595231
O4    O     O_R   0.549080 0.503250 0.654260 -0.571517
O5    O     O_R   0.388550 0.341570 0.492570 -0.591926
O6    O     O_R   0.580290 0.354350 0.505380 -0.585732
O7    O     O_R   0.450920 0.496750 0.345740 -0.578706
O8    O     O_R   0.642660 0.509540 0.358550 -0.593530
C37   C     C_3   0.866890 0.460429 0.330788 -0.347740
C38   C     C_3   0.807324 0.350853 0.304709 -0.314267
C39   C     C_3   0.834412 0.332153 0.187561 -0.894647
H19   H     H_    0.802787 0.391961 0.149944 0.269026
H20   H     H_    0.932096 0.335320 0.153818 0.244770
H21   H     H_    0.787811 0.253759 0.171201 0.247599
H22   H     H_    0.839916 0.289990 0.340109 0.195189
H23   H     H_    0.709414 0.340325 0.335404 0.249764
H24   H     H_    0.836529 0.526307 0.303202 0.200777
H25   H     H_    0.959279 0.474268 0.279492 0.162664
C40   C     C_3   0.185992 0.383785 0.797044 -0.364724
C41   C     C_3   0.066279 0.320434 0.856338 -0.401794
C42   C     C_3   0.982602 0.290649 0.785474 -0.821037
H26   H     H_    0.962964 0.361902 0.755226 0.258166
H27   H     H_    0.023856 0.242245 0.719171 0.250846
H28   H     H_    0.897089 0.244855 0.829902 0.243744
H29   H     H_    0.082173 0.247528 0.886586 0.221933
H30   H     H_    0.021440 0.367643 0.922170 0.225491
H31   H     H_    0.164282 0.453255 0.765341 0.212355
H32   H     H_    0.227408 0.334076 0.731879 0.215417

loop_
_geom_bond_atom_site_label_1
_geom_bond_atom_site_label_2
_ccdc_geom_bond_type
C19   H18   S    
C31   O8    A    
C14   C18   A    
C35   C36   A    
C25   C37   S    
C7    H17   S    
C4    C8    A    
C40   C41   S    
C11   C19   A    
C26   C27   A    
C29   C30   A    
C30   H10   S    
C18   C19   A    
C3    C7    A    
C1    O1    A    
C34   C40   S    
C5    C6    A    
C20   H2    S    
C38   H23   S    
C9    H1    S    
C34   C35   A    
C39   H20   S    
C36   H15   S    
C9    C32   A    
Cu2   N2    S    
C41   H29   S    
Cu2   O8    S    
C16   C17   A    
Cu1   O7    S    
C31   C33   S    
C8    H14   S    
C5    C32   A    
C23   O5    A    
C22   H9    S    
C40   H31   S    
C35   H16   S    
C9    C33   A    
Cu1   O5    S    
Cu2   O6    S    
C28   H7    S    
C11   C20   A    
C37   C38   S    
C1    O2    A    
C42   H27   S    
C41   C42   S    
C38   C39   S    
C25   C26   A    
C28   N1    A    
C17   C21   A    
C42   H26   S    
C39   H21   S    
C2    C4    A    
C32   H13   S    
Cu1   Cu2   S    
C12   O4    A    
C17   C18   A    
C10   C34   A    
C6    H12   S    
Cu1   O1    S    
C10   C12   S    
C14   H3    S    
Cu2   O2    S    
C23   O6    A    
C29   N1    A    
C40   H32   S    
C26   C30   A    
C22   C27   A    
C13   C15   A    
C22   C24   A    
C37   H24   S    
C25   N2    A    
C2    C36   A    
C24   H11   S    
C31   O7    A    
C16   H6    S    
C4    C5    A    
C42   H28   S    
Cu1   O3    S    
C6    C7    A    
C29   H8    S    
C2    C3    A    
C38   H22   S    
C15   H5    S    
C3    C10   A    
C12   O3    A    
C11   C23   S    
C8    C33   A    
C39   H19   S    
C21   H4    S    
C41   H30   S    
C1    C13   S    
C20   C21   A    
C24   N2    A    
C13   C16   A    
C27   C28   A    
C14   C15   A    
C37   H25   S    
Cu1   N1    S    
Cu2   O4    S    
