data_mof_unit_65082.cif
_audit_creation_date              2013-03-05T16:19:51-0500
_audit_creation_method            fapswitch 2.2
_symmetry_space_group_name_H-M    P1
_symmetry_Int_Tables_number       1
_space_group_crystal_system       triclinic
_cell_length_a                    30.188166
_cell_length_b                    30.711163
_cell_length_c                    21.647174
_cell_angle_alpha                 89.922149
_cell_angle_beta                  134.634317
_cell_angle_gamma                 90.082194
_cell_volume                      14281.4701357

loop_
_atom_site_label
_atom_site_type_symbol
_atom_site_description
_atom_site_fract_x
_atom_site_fract_y
_atom_site_fract_z
_atom_type_partial_charge
O1    O     O_R   0.321150 0.768980 0.142380 -0.591622
O2    O     O_R   0.678850 0.768980 0.857620 -0.558585
O3    O     O_R   0.821150 0.268980 0.142380 -0.597617
O4    O     O_R   0.178850 0.268980 0.857620 -0.597538
O5    O     O_R   0.268980 0.821170 0.038000 -0.544916
O6    O     O_R   0.731020 0.821170 0.962000 -0.557753
O7    O     O_R   0.768980 0.321170 0.038000 -0.544336
O8    O     O_R   0.231020 0.321170 0.962000 -0.543964
C1    C     C_R   0.308930 0.809407 0.118342 0.861813
C2    C     C_R   0.689504 0.809450 0.881177 0.822226
C3    C     C_R   0.808449 0.309378 0.118344 0.862976
C4    C     C_R   0.191553 0.309375 0.881670 0.862940
O9    O     O_R   0.340930 0.723870 0.052190 -0.536686
O10   O     O_R   0.659070 0.723870 0.947810 -0.536745
O11   O     O_R   0.840930 0.223870 0.052190 -0.529363
O12   O     O_R   0.159070 0.223870 0.947810 -0.529999
O13   O     O_R   0.288760 0.776060 0.947810 -0.589957
O14   O     O_R   0.711240 0.776060 0.052190 -0.572215
O15   O     O_R   0.788760 0.276060 0.947810 -0.596209
O16   O     O_R   0.211240 0.276060 0.052190 -0.596258
C5    C     C_R   0.335211 0.749485 0.999271 0.843426
C6    C     C_R   0.664851 0.749352 0.000914 0.865871
C7    C     C_R   0.835471 0.249752 0.999768 0.852208
C8    C     C_R   0.164487 0.249741 0.000140 0.851383
Cu1   Cu    Cu3+1 0.280880 0.719080 0.061820 1.101315
Cu2   Cu    Cu3+1 0.719120 0.719080 0.938180 1.132325
Cu3   Cu    Cu3+1 0.780880 0.219080 0.061820 1.083236
Cu4   Cu    Cu3+1 0.219120 0.219080 0.938180 1.095232
Cu5   Cu    Cu3+1 0.219090 0.780890 0.938220 1.123817
Cu6   Cu    Cu3+1 0.780910 0.780890 0.061780 1.122258
Cu7   Cu    Cu3+1 0.719090 0.280890 0.938220 1.133270
Cu8   Cu    Cu3+1 0.280910 0.280890 0.061780 1.126910
O17   O     O_R   0.230990 0.678800 0.962040 -0.568107
O18   O     O_R   0.769010 0.678800 0.037960 -0.575439
O19   O     O_R   0.730990 0.178800 0.962040 -0.582414
O20   O     O_R   0.269010 0.178800 0.037960 -0.569360
O21   O     O_R   0.178820 0.731000 0.857660 -0.581760
O22   O     O_R   0.821180 0.731000 0.142340 -0.563386
O23   O     O_R   0.678820 0.231000 0.857660 -0.566901
O24   O     O_R   0.321180 0.231000 0.142340 -0.580235
O25   O     O_R   0.211210 0.723910 0.052230 -0.587157
O26   O     O_R   0.788790 0.723910 0.947770 -0.563330
O27   O     O_R   0.711210 0.223910 0.052230 -0.596458
O28   O     O_R   0.288790 0.223910 0.947770 -0.590599
O29   O     O_R   0.159040 0.776100 0.947850 -0.519114
O30   O     O_R   0.840960 0.776100 0.052150 -0.546063
O31   O     O_R   0.659040 0.276100 0.947850 -0.514665
O32   O     O_R   0.340960 0.276100 0.052150 -0.512328
C9    C     C_R   0.190636 0.690638 0.881218 0.846681
C10   C     C_R   0.809066 0.690634 0.118695 0.854973
C11   C     C_R   0.690836 0.190692 0.881490 0.854474
C12   C     C_R   0.309300 0.190652 0.118761 0.848351
C13   C     C_R   0.163847 0.749608 0.999025 0.921738
C14   C     C_R   0.835854 0.749948 0.000449 0.857378
C15   C     C_R   0.663997 0.249747 0.999278 0.920845
C16   C     C_R   0.336001 0.249816 0.000699 0.913026
C17   C     C_R   0.596820 0.788091 0.007617 -0.190449
C18   C     C_R   0.403809 0.788342 0.993768 -0.178481
C19   C     C_R   0.095128 0.289063 0.003698 -0.151182
C20   C     C_R   0.904906 0.289084 0.996149 -0.149930
C21   C     C_R   0.616953 0.748734 0.001938 -0.195391
C22   C     C_R   0.383030 0.748921 0.998244 -0.195245
C23   C     C_R   0.116248 0.249498 0.000367 -0.175314
C24   C     C_R   0.883573 0.249514 0.999282 -0.176279
C25   C     C_R   0.591673 0.709264 0.997758 0.564749
C26   C     C_R   0.407504 0.709404 0.001166 0.568795
C27   C     C_R   0.091704 0.210076 0.997785 0.567945
C28   C     C_R   0.907771 0.210083 0.001413 0.570050
C29   C     C_R   0.545928 0.709241 0.999043 0.032967
C30   C     C_R   0.453207 0.709330 0.999861 0.030699
C31   C     C_R   0.045923 0.210140 0.998899 0.034362
C32   C     C_R   0.953482 0.210144 0.000163 0.033991
C33   C     C_R   0.523658 0.749297 0.000897 -0.013687
C34   C     C_R   0.475995 0.749365 0.998753 -0.019704
C35   C     C_R   0.023476 0.250223 0.000331 -0.016011
C36   C     C_R   0.976203 0.250228 0.999037 -0.016260
C37   C     C_R   0.549096 0.789112 0.004921 -0.061891
C38   C     C_R   0.451100 0.789281 0.995499 -0.044190
C39   C     C_R   0.048262 0.290085 0.002924 -0.042461
C40   C     C_R   0.951715 0.290099 0.996800 -0.042084
C41   C     C_R   0.521962 0.669893 0.998313 -0.136785
C42   C     C_R   0.476572 0.669934 0.999749 -0.138594
C43   C     C_R   0.022242 0.170778 0.998660 -0.137380
C44   C     C_R   0.976849 0.170779 0.000019 -0.134853
C45   C     C_R   0.475077 0.829143 0.996438 0.265620
C46   C     C_R   0.525180 0.829030 0.003560 0.246208
C47   C     C_R   0.975585 0.329977 0.997592 0.260591
C48   C     C_R   0.024650 0.329967 0.002402 0.260501
H1    H     H_    0.617648 0.817942 0.011820 0.255833
H2    H     H_    0.383937 0.818202 0.991725 0.242610
H3    H     H_    0.114347 0.318934 0.004020 0.227841
H4    H     H_    0.885927 0.318956 0.996129 0.227805
H5    H     H_    0.538591 0.638924 0.997325 0.212831
H6    H     H_    0.459486 0.638989 0.000113 0.211999
H7    H     H_    0.039002 0.139810 0.997917 0.210931
H8    H     H_    0.959865 0.139811 0.000502 0.211747
C49   C     C_R   0.389484 0.865240 0.204781 -0.125557
C50   C     C_R   0.634843 0.835560 0.735131 -0.097099
C51   C     C_R   0.895854 0.359227 0.216075 -0.145017
C52   C     C_R   0.104014 0.358994 0.783742 -0.144377
C53   C     C_R   0.339485 0.843479 0.182795 -0.162941
C54   C     C_R   0.652496 0.842576 0.813707 -0.185320
C55   C     C_R   0.839354 0.343391 0.182885 -0.167265
C56   C     C_R   0.160637 0.343404 0.817153 -0.168453
C57   C     C_R   0.316676 0.857911 0.218217 0.342553
C58   C     C_R   0.632571 0.881398 0.823840 0.339271
C59   C     C_R   0.811098 0.363911 0.206619 0.334350
C60   C     C_R   0.189030 0.364225 0.793776 0.333825
C61   C     C_R   0.350141 0.889972 0.283340 -0.215235
C62   C     C_R   0.602231 0.913627 0.759110 -0.225519
C63   C     C_R   0.844508 0.396251 0.271215 -0.200356
C64   C     C_R   0.155626 0.396612 0.729247 -0.205473
H9    H     H_    0.333665 0.900246 0.312151 0.210246
H10   H     H_    0.587289 0.943522 0.766513 0.192905
H11   H     H_    0.823842 0.411091 0.291416 0.213713
H12   H     H_    0.176391 0.411687 0.709297 0.213192
C65   C     C_R   0.405065 0.907940 0.312328 -0.152771
C66   C     C_R   0.592495 0.907956 0.686054 -0.124395
C67   C     C_R   0.904574 0.408665 0.310856 -0.154830
C68   C     C_R   0.095425 0.408742 0.689290 -0.154264
C69   C     C_R   0.422182 0.896500 0.269171 -0.010691
C70   C     C_R   0.605987 0.867828 0.672802 -0.050063
C71   C     C_R   0.928007 0.391302 0.279042 0.016069
C72   C     C_R   0.071849 0.391098 0.720791 0.029945
C73   C     C_3   0.483178 0.881288 0.303729 1.132205
C74   C     C_3   0.641326 0.856503 0.650203 1.093608
C75   C     C_3   0.989543 0.370492 0.326395 1.090975
C76   C     C_3   0.010343 0.370076 0.673170 1.087986
C77   C     C_3   0.447098 0.847209 0.231879 -0.018316
C78   C     C_3   0.672600 0.820446 0.718138 -0.000252
C79   C     C_3   0.954133 0.335054 0.257164 0.004013
C80   C     C_3   0.045769 0.334603 0.742399 0.002060
H13   H     H_    0.456636 0.812807 0.254323 0.129008
H14   H     H_    0.723671 0.824804 0.774452 0.094669
H15   H     H_    0.957174 0.302256 0.281902 0.138156
H16   H     H_    0.042920 0.301880 0.717717 0.138762
C81   C     C_R   0.867618 0.750265 0.922067 -0.284797
C82   C     C_R   0.131949 0.746920 0.077343 -0.216161
C83   C     C_R   0.367793 0.248312 0.922248 -0.229363
C84   C     C_R   0.632295 0.249401 0.077812 -0.233198
C85   C     C_R   0.884487 0.750031 0.001050 -0.170281
C86   C     C_R   0.115178 0.749550 0.998479 -0.158959
C87   C     C_R   0.384626 0.249986 0.001199 -0.155576
C88   C     C_R   0.615411 0.249807 0.998794 -0.155674
C89   C     C_R   0.947477 0.749734 0.080023 0.594078
C90   C     C_R   0.052237 0.752175 0.919688 0.578236
C91   C     C_R   0.447608 0.251803 0.080087 0.583750
C92   C     C_R   0.552418 0.250342 0.919826 0.601435
C93   C     C_R   0.993918 0.749094 0.080058 -0.015777
C94   C     C_R   0.005777 0.751742 0.919613 -0.015056
C95   C     C_R   0.494074 0.251354 0.080179 -0.014691
C96   C     C_R   0.505958 0.249943 0.919750 -0.017539
C97   C     C_R   0.976718 0.749951 0.000177 0.025266
C98   C     C_R   0.022946 0.749827 0.999418 0.018630
C99   C     C_R   0.476893 0.250199 0.000335 0.022362
C100  C     C_R   0.523153 0.250140 0.999629 0.020249
C101  C     C_R   0.913318 0.750849 0.921009 0.106466
C102  C     C_R   0.086294 0.747710 0.078490 0.099382
C103  C     C_R   0.413497 0.248990 0.921172 0.103559
C104  C     C_R   0.586570 0.250174 0.078838 0.104116
C105  C     C_R   0.057156 0.747448 0.158222 -0.099112
C106  C     C_R   0.942521 0.753063 0.841420 -0.092883
C107  C     C_R   0.557346 0.251851 0.158421 -0.091892
C108  C     C_R   0.442694 0.249201 0.841517 -0.084478
C109  C     C_R   0.102946 0.746513 0.157380 -0.138654
C110  C     C_R   0.896666 0.752365 0.842140 -0.143785
C111  C     C_R   0.603206 0.251032 0.157717 -0.138095
C112  C     C_R   0.396856 0.248499 0.842277 -0.139550
H17   H     H_    0.818840 0.750811 0.861534 0.210192
H18   H     H_    0.180715 0.745196 0.137909 0.201432
H19   H     H_    0.318985 0.247291 0.861639 0.192097
H20   H     H_    0.681127 0.249340 0.138438 0.193086
H21   H     H_    0.071378 0.746669 0.220152 0.215763
H22   H     H_    0.928314 0.754435 0.779526 0.220285
H23   H     H_    0.571557 0.252653 0.220340 0.218310
H24   H     H_    0.428479 0.248949 0.779582 0.219188
H25   H     H_    0.151448 0.745032 0.218505 0.175427
H26   H     H_    0.848132 0.753189 0.780971 0.188366
H27   H     H_    0.651740 0.251212 0.218924 0.175821
H28   H     H_    0.348333 0.247706 0.781090 0.174706
C113  C     C_R   0.152774 0.615195 0.828272 0.005361
C114  C     C_R   0.876046 0.625575 0.188870 0.055120
C115  C     C_R   0.632652 0.121778 0.816807 -0.010851
C116  C     C_R   0.347861 0.115437 0.171989 0.004423
C117  C     C_R   0.157546 0.658014 0.813451 -0.114536
C118  C     C_R   0.842759 0.658007 0.186461 -0.191772
C119  C     C_R   0.658850 0.157940 0.814743 -0.101482
C120  C     C_R   0.342318 0.158040 0.186507 -0.114440
C121  C     C_R   0.127952 0.669167 0.728327 -0.206940
C122  C     C_R   0.849044 0.662352 0.256847 -0.202248
C123  C     C_R   0.651328 0.162634 0.743073 -0.204473
C124  C     C_R   0.371176 0.169006 0.271305 -0.205549
H29   H     H_    0.131107 0.702192 0.714072 0.206404
H30   H     H_    0.826614 0.689328 0.258173 0.198721
H31   H     H_    0.671168 0.190744 0.739459 0.195544
H32   H     H_    0.367381 0.201877 0.285256 0.206569
C125  C     C_R   0.095407 0.637678 0.661339 0.339423
C126  C     C_R   0.882180 0.631285 0.324019 0.349746
C127  C     C_R   0.618299 0.131158 0.675866 0.346195
C128  C     C_R   0.403802 0.137509 0.338326 0.338183
C129  C     C_R   0.091273 0.594295 0.680350 -0.127830
C130  C     C_R   0.910524 0.595810 0.320465 -0.207657
C131  C     C_R   0.591051 0.094843 0.680425 -0.134465
C132  C     C_R   0.408842 0.094344 0.319692 -0.128617
C133  C     C_R   0.120592 0.585054 0.764498 -0.127505
C134  C     C_R   0.909673 0.595218 0.255139 -0.018315
C135  C     C_R   0.599227 0.092273 0.751892 -0.111820
C136  C     C_R   0.380264 0.085316 0.235828 -0.126710
C137  C     C_3   0.133999 0.549478 0.822653 0.056654
C138  C     C_3   0.891612 0.559086 0.194703 0.037415
C139  C     C_3   0.586681 0.064818 0.795226 0.095358
C140  C     C_3   0.367835 0.050077 0.177898 0.055453
C141  C     C_3   0.170391 0.584116 0.895571 0.486266
C142  C     C_3   0.854626 0.592703 0.121714 0.446618
C143  C     C_3   0.624190 0.099089 0.868803 0.464339
C144  C     C_3   0.331174 0.084730 0.104972 0.486207
H33   H     H_    0.163644 0.523183 0.832163 0.072307
H34   H     H_    0.862124 0.533724 0.188137 0.059830
H35   H     H_    0.609204 0.032234 0.815136 0.071596
H36   H     H_    0.338491 0.023283 0.167921 0.072790
H37   H     H_    0.221355 0.578257 0.948226 0.069309
H38   H     H_    0.803452 0.587287 0.072103 0.075741
H39   H     H_    0.668535 0.086789 0.932080 0.072733
H40   H     H_    0.280336 0.078441 0.051919 0.068020
O33   O     O_R   0.992480 0.545070 0.409820 -0.531983
O34   O     O_R   0.007520 0.545070 0.590180 -0.528196
O35   O     O_R   0.492480 0.045070 0.409820 -0.528362
O36   O     O_R   0.507520 0.045070 0.590180 -0.532683
O37   O     O_R   0.917370 0.545120 0.409780 -0.569802
O38   O     O_R   0.082630 0.545120 0.590220 -0.572590
O39   O     O_R   0.417370 0.045120 0.409780 -0.567990
O40   O     O_R   0.582630 0.045120 0.590220 -0.568253
C145  C     C_R   0.941312 0.560219 0.382737 0.849318
C146  C     C_R   0.058519 0.560133 0.616655 0.855858
C147  C     C_R   0.441533 0.060157 0.383377 0.857560
C148  C     C_R   0.558697 0.060144 0.617050 0.841574
O41   O     O_R   0.492430 0.954900 0.409810 -0.520030
O42   O     O_R   0.507570 0.954900 0.590190 -0.581219
O43   O     O_R   0.992430 0.454900 0.409810 -0.532021
O44   O     O_R   0.007570 0.454900 0.590190 -0.529507
O45   O     O_R   0.417320 0.954950 0.409780 -0.608093
O46   O     O_R   0.582680 0.954950 0.590220 -0.529988
O47   O     O_R   0.917320 0.454950 0.409780 -0.590530
O48   O     O_R   0.082680 0.454950 0.590220 -0.591891
C149  C     C_R   0.440518 0.940280 0.381469 0.831759
C150  C     C_R   0.559666 0.940892 0.619155 0.812472
C151  C     C_R   0.940247 0.440559 0.380890 0.843342
C152  C     C_R   0.059747 0.440588 0.619164 0.846767
Cu9   Cu    Cu3+1 0.544430 0.999980 0.499990 1.212903
Cu10  Cu    Cu3+1 0.455570 0.999980 0.500010 1.115261
Cu11  Cu    Cu3+1 0.044430 0.499980 0.499990 1.162499
Cu12  Cu    Cu3+1 0.955570 0.499980 0.500010 1.174181
F1    F     F_    0.963266 0.748767 0.156323 -0.630924
F2    F     F_    0.036369 0.753893 0.843364 -0.630638
F3    F     F_    0.463474 0.252696 0.156442 -0.629928
F4    F     F_    0.536599 0.249989 0.843492 -0.618788
N1    N     N_R   0.066516 0.650903 0.575937 0.142566
O49   O     O_R   0.064457 0.624858 0.526679 -0.322288
O50   O     O_R   0.048105 0.690955 0.550663 -0.286302
N2    N     N_R   0.885283 0.636076 0.393131 0.154022
O51   O     O_R   0.935958 0.626532 0.472697 -0.300681
O52   O     O_R   0.840204 0.655188 0.378533 -0.301547
N3    N     N_R   0.612677 0.137224 0.604622 0.151028
O53   O     O_R   0.561888 0.126464 0.526007 -0.306881
O54   O     O_R   0.655527 0.158378 0.616433 -0.299524
N4    N     N_R   0.431978 0.150568 0.423421 0.144027
O55   O     O_R   0.433631 0.124332 0.472181 -0.310263
O56   O     O_R   0.450063 0.190658 0.448786 -0.281343
N5    N     N_R   0.077744 0.533443 0.798278 0.215198
O57   O     O_R   0.034210 0.560096 0.773491 -0.202317
O58   O     O_R   0.069427 0.491737 0.796613 -0.271769
N6    N     N_R   0.945161 0.541111 0.214030 0.225472
O59   O     O_R   0.988887 0.566338 0.235424 -0.204998
O60   O     O_R   0.951143 0.499115 0.215033 -0.256993
N7    N     N_R   0.520475 0.063163 0.746238 0.219623
O61   O     O_R   0.485539 0.097694 0.708005 -0.207800
O62   O     O_R   0.495332 0.026140 0.736819 -0.287332
N8    N     N_R   0.424540 0.034941 0.202751 0.216678
O63   O     O_R   0.468202 0.062108 0.229389 -0.204066
O64   O     O_R   0.432611 0.993496 0.201475 -0.251551
F5    F     F_    0.143205 0.595151 0.924772 -0.559303
F6    F     F_    0.878461 0.601318 0.086866 -0.551476
F7    F     F_    0.588854 0.123601 0.874810 -0.567325
F8    F     F_    0.358660 0.096571 0.076486 -0.560339
F9    F     F_    0.612891 0.671023 0.994959 -0.652450
F10   F     F_    0.385618 0.671171 0.002953 -0.654990
F11   F     F_    0.113597 0.171764 0.996478 -0.656202
F12   F     F_    0.885630 0.171773 0.002466 -0.652167
N9    N     N_R   0.449752 0.869934 0.992058 0.173248
O65   O     O_R   0.485915 0.899321 0.051699 -0.171030
O66   O     O_R   0.391930 0.879532 0.923831 -0.283711
N10   N     N_R   0.549894 0.869672 0.005930 0.160716
O67   O     O_R   0.513974 0.897296 0.942333 -0.226689
O68   O     O_R   0.606835 0.880704 0.074951 -0.258386
N11   N     N_R   0.951325 0.370705 0.995675 0.165175
O69   O     O_R   0.988352 0.399329 0.056703 -0.185353
O70   O     O_R   0.893532 0.380988 0.928575 -0.279373
N12   N     N_R   0.049185 0.370686 0.004616 0.165109
O71   O     O_R   0.012363 0.399428 0.943732 -0.184865
O72   O     O_R   0.107021 0.380838 0.071847 -0.281379
N13   N     N_R   0.260937 0.840113 0.190364 0.110847
O73   O     O_R   0.212341 0.832925 0.108448 -0.380107
O74   O     O_R   0.255427 0.837065 0.244685 -0.339288
N14   N     N_R   0.641971 0.888530 0.897905 0.154368
O75   O     O_R   0.631895 0.857156 0.927082 -0.355001
O76   O     O_R   0.650543 0.927781 0.927254 -0.297365
N15   N     N_R   0.750561 0.351225 0.169452 0.108815
O77   O     O_R   0.705916 0.342404 0.087151 -0.362804
O78   O     O_R   0.737583 0.353753 0.215346 -0.324631
N16   N     N_R   0.249659 0.351761 0.831121 0.109196
O79   O     O_R   0.294191 0.342741 0.913362 -0.361663
O80   O     O_R   0.262809 0.354639 0.785455 -0.324260
F13   F     F_    0.512421 0.912675 0.296670 -0.535097
F14   F     F_    0.603034 0.842214 0.565445 -0.541471
F15   F     F_    0.027567 0.396310 0.327129 -0.548216
F16   F     F_    0.972099 0.395651 0.672186 -0.546686
F17   F     F_    0.521576 0.863431 0.386010 -0.593905
F18   F     F_    0.682231 0.888903 0.671962 -0.639069
F19   F     F_    0.018917 0.355437 0.407992 -0.652046
F20   F     F_    0.981213 0.355145 0.591650 -0.652764
N17   N     N_R   0.449666 0.854792 0.167689 0.161466
O81   O     O_R   0.497161 0.840572 0.182963 -0.273261
O82   O     O_R   0.406718 0.877207 0.097472 -0.268100
N18   N     N_R   0.655174 0.776515 0.681250 0.189534
O83   O     O_R   0.698315 0.748949 0.707995 -0.327274
O84   O     O_R   0.597194 0.764094 0.623861 -0.243491
N19   N     N_R   0.966280 0.334635 0.202539 0.159008
O85   O     O_R   0.989134 0.299810 0.199474 -0.331480
O86   O     O_R   0.954184 0.368468 0.156417 -0.232929
N20   N     N_R   0.033411 0.333897 0.796778 0.159502
O87   O     O_R   0.010760 0.298874 0.799866 -0.329392
O88   O     O_R   0.045170 0.367659 0.842718 -0.231295

loop_
_geom_bond_atom_site_label_1
_geom_bond_atom_site_label_2
_geom_bond_distance
_ccdc_geom_bond_type
C51   C55   1.392301 A    
C42   H6    1.083305 S    
C86   C90   1.404316 A    
O41   Cu9   1.971521 S    
C62   C66   1.401825 A    
C126  N2    1.439554 S    
N13   O73   1.300031 A    
O45   C149  1.293710 A    
C4    C56   1.442577 S    
C52   C56   1.392288 A    
Cu6   O22   1.971230 S    
C25   F9    1.360164 S    
C93   C97   1.413753 A    
C142  H38   1.111799 S    
C90   C94   1.401435 A    
C96   C100  1.413595 A    
N18   O83   1.300154 A    
C30   C34   1.416413 A    
C83   H19   1.084861 S    
C95   C99   1.413525 A    
O4    C4    1.294984 A    
C85   C89   1.403805 A    
O11   C7    1.296855 A    
C83   C103  1.396325 A    
O33   Cu11  1.970924 S    
C90   F2    1.360056 S    
C78   H14   1.113500 S    
C78   N18   1.464650 S    
Cu1   Cu5   2.687942 S    
N16   O80   1.301421 A    
N20   O87   1.300343 A    
Cu3   Cu7   2.687942 S    
Cu4   Cu8   2.689295 S    
C46   N10   1.435594 S    
Cu1   O25   1.968726 S    
C64   C68   1.407829 A    
C15   C88   1.459366 S    
C140  H36   1.112705 S    
Cu3   O19   1.973527 S    
C50   C54   1.396635 A    
O43   Cu11  1.971519 S    
Cu4   O28   1.968312 S    
C137  C141  1.547468 S    
Cu5   O29   1.970154 S    
C52   C72   1.382639 A    
C118  C122  1.403443 A    
O15   C7    1.295556 A    
C35   C36   1.407566 A    
C144  H40   1.111167 S    
O11   Cu3   1.970154 S    
C100  C104  1.411571 A    
C28   C32   1.399070 A    
C52   C80   1.496858 S    
O41   C149  1.296783 A    
O2    Cu2   1.971468 S    
C57   N13   1.437478 S    
O10   Cu2   1.970584 S    
C5    C22   1.459417 S    
C32   C44   1.401677 A    
N20   O88   1.302221 A    
C77   H13   1.112693 S    
C73   F13   1.385117 S    
C7    C24   1.459575 S    
O6    Cu6   1.972556 S    
C8    C23   1.459704 S    
N5    O58   1.300529 A    
C73   C77   1.523648 S    
O19   C11   1.293333 A    
N12   O71   1.301096 A    
C50   C78   1.497017 S    
C144  F8    1.385076 S    
C74   F14   1.384090 S    
C121  C125  1.415094 A    
N3    O54   1.301570 A    
O46   Cu9   1.972047 S    
C66   C150  1.443864 S    
C17   C21   1.397478 A    
C67   C71   1.394872 A    
C19   C23   1.398271 A    
C20   C24   1.398227 A    
C137  H33   1.112719 S    
N10   O68   1.301059 A    
C131  C148  1.445621 S    
C138  C142  1.526100 S    
C129  C146  1.436936 S    
C26   C30   1.399690 A    
C91   F3    1.360069 S    
O38   C146  1.287159 A    
C124  C128  1.414784 A    
C30   C42   1.402227 A    
C75   C79   1.524194 S    
O3    C3    1.294701 A    
C21   C25   1.400182 A    
C14   C85   1.459029 S    
C138  N6    1.464437 S    
N17   O81   1.300419 A    
C99   C100  1.407297 A    
C98   C102  1.411268 A    
C33   C37   1.412808 A    
C55   C59   1.416683 A    
N1    O50   1.301577 A    
C35   C39   1.414282 A    
C105  C109  1.395509 A    
C115  C119  1.381256 A    
C102  C109  1.401436 A    
Cu2   Cu6   2.689295 S    
C75   F15   1.385047 S    
C109  H25   1.083705 S    
C91   C95   1.401443 A    
C113  C133  1.350116 A    
C107  H23   1.083199 S    
N11   O70   1.301089 A    
C45   C46   1.408515 A    
O5    C1    1.289184 A    
Cu9   Cu10  2.682825 S    
C24   C28   1.399017 A    
O40   C148  1.289785 A    
C63   C67   1.407888 A    
N1    O49   1.299863 A    
C66   C70   1.390524 A    
C58   N14   1.435467 S    
C49   C69   1.380772 A    
C16   C87   1.460322 S    
C83   C87   1.400555 A    
C126  C130  1.421420 A    
C62   H10   1.084093 S    
O20   C12   1.297049 A    
O8    C4    1.289885 A    
O35   Cu9   1.970924 S    
N14   O76   1.301471 A    
O29   C13   1.297004 A    
O42   Cu10  1.970959 S    
C135  C139  1.493480 S    
C31   C43   1.401684 A    
C20   H4    1.082151 S    
C22   C26   1.399809 A    
C99   C103  1.411483 A    
C132  C136  1.384499 A    
C26   F10   1.360245 S    
C29   C41   1.401953 A    
C134  C138  1.496687 S    
N19   O86   1.302222 A    
N6    O59   1.302375 A    
C114  C134  1.382158 A    
C77   N17   1.463386 S    
C69   C73   1.494809 S    
Cu3   O27   1.968726 S    
C82   C102  1.396079 A    
C71   C75   1.495338 S    
C43   C44   1.391164 A    
C60   N16   1.439455 S    
C80   H16   1.113321 S    
N9    O65   1.301152 A    
O25   C13   1.296339 A    
N4    O56   1.301590 A    
C38   C45   1.414135 A    
O27   C15   1.296173 A    
C92   F4    1.360085 S    
C48   N12   1.436074 S    
O38   Cu11  1.975982 S    
C10   C118  1.446665 S    
C64   H12   1.082975 S    
Cu2   O26   1.968312 S    
O16   Cu8   1.968314 S    
C50   C70   1.381523 A    
C57   C61   1.406125 A    
C20   C40   1.403522 A    
O14   C6    1.296502 A    
C59   C63   1.406472 A    
Cu6   O30   1.970584 S    
C36   C40   1.414319 A    
N2    O51   1.300087 A    
C79   N19   1.463646 S    
C117  C121  1.413116 A    
C139  H35   1.112839 S    
O34   C146  1.292896 A    
C81   C101  1.395867 A    
C120  C124  1.412696 A    
O10   C6    1.297887 A    
O3    Cu3   1.972438 S    
C84   C104  1.396287 A    
C6    C21   1.461726 S    
C2    C54   1.456954 S    
N8    O64   1.300234 A    
O37   C145  1.293423 A    
C123  H31   1.083633 S    
C121  H29   1.083120 S    
C9    C117  1.447633 S    
N18   O84   1.302446 A    
C129  C133  1.384161 A    
N8    O63   1.302357 A    
O39   C147  1.286914 A    
O40   Cu9   1.975982 S    
C12   C120  1.446423 S    
Cu1   O17   1.973527 S    
C18   C22   1.396936 A    
C111  H27   1.083699 S    
C47   C48   1.409966 A    
O48   Cu11  1.972047 S    
O13   Cu5   1.968726 S    
C33   C34   1.406648 A    
O23   C11   1.291018 A    
N7    O61   1.302386 A    
O15   Cu7   1.968726 S    
C61   C65   1.408460 A    
N3    O53   1.299913 A    
C141  F5    1.385017 S    
O34   Cu12  1.971491 S    
O46   C150  1.292781 A    
C17   H1    1.078070 S    
C124  H32   1.083166 S    
O31   C15   1.296379 A    
C116  C144  1.491041 S    
C74   C78   1.525744 S    
O17   C9    1.296867 A    
C115  C135  1.349945 A    
O43   C151  1.296341 A    
C114  C118  1.390543 A    
C73   F17   1.383808 S    
C106  C110  1.395393 A    
C141  H37   1.111173 S    
C75   F19   1.384975 S    
C76   F20   1.384973 S    
C29   C33   1.416800 A    
C110  H26   1.083781 S    
C88   C92   1.403889 A    
C72   C76   1.495262 S    
Cu7   O31   1.970154 S    
N5    O57   1.302345 A    
C127  C131  1.428738 A    
Cu8   O32   1.970584 S    
C89   F1    1.360058 S    
N12   O72   1.301089 A    
C39   C48   1.414057 A    
O36   Cu10  1.971491 S    
N13   O74   1.301371 A    
C94   C106  1.404084 A    
N15   O77   1.300057 A    
C92   C96   1.401406 A    
O1    C1    1.295426 A    
Cu11  Cu12  2.682825 S    
C82   C86   1.400894 A    
C19   C39   1.403494 A    
N11   O69   1.301102 A    
C59   N15   1.439306 S    
C60   C64   1.406121 A    
O7    C3    1.289716 A    
C17   C37   1.400714 A    
C105  H21   1.083199 S    
O28   C16   1.296796 A    
C80   N20   1.463662 S    
C108  C112  1.395481 A    
O30   C14   1.296563 A    
C18   H2    1.080272 S    
O22   C10   1.292255 A    
O44   Cu12  1.970957 S    
O47   C151  1.294336 A    
C93   C105  1.403960 A    
C56   C60   1.416572 A    
O35   C147  1.293063 A    
C122  C126  1.407266 A    
C81   C85   1.399711 A    
N16   O79   1.300058 A    
O45   Cu10  1.973445 S    
C84   C88   1.400246 A    
O6    C2    1.296385 A    
C65   C149  1.456757 S    
C132  C147  1.436706 S    
C45   N9    1.436454 S    
C116  C136  1.349792 A    
O33   C145  1.294222 A    
N19   O85   1.300343 A    
C112  H28   1.083693 S    
O26   C14   1.296555 A    
C130  C145  1.454000 S    
C25   C29   1.400654 A    
C108  H24   1.083204 S    
C27   C31   1.399095 A    
C97   C101  1.411361 A    
O13   C5    1.295843 A    
C11   C119  1.439618 S    
C18   C38   1.401832 A    
O48   C152  1.293950 A    
Cu4   O20   1.972554 S    
C63   H11   1.082984 S    
C34   C38   1.414397 A    
Cu5   O21   1.972202 S    
O44   C152  1.296400 A    
C89   C93   1.401616 A    
O12   Cu4   1.970584 S    
C139  C143  1.547148 S    
C82   H18   1.084844 S    
C32   C36   1.416854 A    
C41   C42   1.392254 A    
C87   C91   1.404247 A    
C139  N7    1.464045 S    
N10   O67   1.301011 A    
N7    O62   1.300457 A    
C123  C127  1.417025 A    
C13   C86   1.460963 S    
C40   C47   1.414066 A    
C79   H15   1.113329 S    
C127  N3    1.439975 S    
O21   C9    1.291428 A    
C103  C112  1.401369 A    
C44   H8    1.083330 S    
C104  C111  1.401292 A    
C65   C69   1.393894 A    
C67   C151  1.457541 S    
C28   F12   1.360347 S    
Cu2   O18   1.972554 S    
C140  C144  1.547056 S    
N17   O82   1.302214 A    
C27   F11   1.360354 S    
C125  C129  1.424862 A    
O14   Cu6   1.968314 S    
C81   H17   1.083670 S    
C136  C140  1.491960 S    
C137  N5    1.464283 S    
C142  F6    1.385060 S    
O12   C8    1.297314 A    
C1    C53   1.444030 S    
O1    Cu1   1.972441 S    
O9    Cu1   1.970154 S    
C76   C80   1.524225 S    
O4    Cu4   1.971468 S    
O5    Cu5   1.973527 S    
C53   C57   1.415007 A    
C23   C27   1.399066 A    
O18   C10   1.295999 A    
O7    Cu7   1.973527 S    
O9    C5    1.296521 A    
O8    Cu8   1.972556 S    
O16   C8    1.295970 A    
N2    O52   1.301463 A    
C74   F18   1.384669 S    
C113  C117  1.384289 A    
C19   H3    1.082145 S    
O24   C12   1.291444 A    
C131  C135  1.386968 A    
C47   N11   1.436094 S    
C116  C120  1.383573 A    
C76   F16   1.385033 S    
N15   O78   1.301446 A    
C70   C74   1.494407 S    
C107  C111  1.395447 A    
C128  C132  1.425290 A    
C41   H5    1.083301 S    
O42   C150  1.291176 A    
C133  C137  1.491296 S    
C43   H7    1.083330 S    
C115  C143  1.489640 S    
C96   C108  1.404000 A    
N6    O60   1.300614 A    
N14   O75   1.298976 A    
C37   C46   1.413348 A    
C95   C107  1.404062 A    
C130  C134  1.396350 A    
C143  F7    1.385251 S    
O2    C2    1.295501 A    
C51   C71   1.382854 A    
C58   C62   1.406223 A    
O32   C16   1.297036 A    
O47   Cu12  1.973445 S    
C119  C123  1.408475 A    
C143  H39   1.111067 S    
C101  C110  1.401290 A    
C113  C141  1.491725 S    
C106  H22   1.083197 S    
C61   H9    1.082979 S    
C68   C152  1.456892 S    
C138  H34   1.113477 S    
C51   C79   1.496843 S    
C125  N1    1.441080 S    
C49   C77   1.498000 S    
C31   C35   1.416869 A    
C128  N4    1.441171 S    
N9    O66   1.301101 A    
Cu7   O23   1.972202 S    
C54   C58   1.421122 A    
Cu8   O24   1.971230 S    
O36   C148  1.294384 A    
O37   Cu12  1.974579 S    
N4    O55   1.299843 A    
C122  H30   1.083812 S    
C84   H20   1.084889 S    
C94   C98   1.413596 A    
C114  C142  1.493955 S    
C3    C55   1.443309 S    
C97   C98   1.407130 A    
O39   Cu10  1.974579 S    
C49   C53   1.392798 A    
C68   C72   1.394643 A    
C140  N8    1.464019 S    
