data_mof_unit_48725.cif
_audit_creation_date              2012-12-11T15:06:59-0500
_audit_creation_method            fapswitch 2.2
_symmetry_space_group_name_H-M    P1
_symmetry_Int_Tables_number       1
_space_group_crystal_system       triclinic
_cell_length_a                    20.911275
_cell_length_b                    11.877164
_cell_length_c                    19.159936
_cell_angle_alpha                 90.12848
_cell_angle_beta                  86.672915
_cell_angle_gamma                 90.138758
_cell_volume                      4750.64371429

loop_
_atom_site_label
_atom_site_type_symbol
_atom_type_description
_atom_site_fract_x
_atom_site_fract_y
_atom_site_fract_z
_atom_type_partial_charge
Br1   Br    Br    0.948115 0.112114 0.056379 -0.547154
Br2   Br    Br    0.051832 0.110409 0.941989 -0.544859
Br3   Br    Br    0.448115 0.612114 0.056379 -0.547154
Br4   Br    Br    0.551832 0.610409 0.941989 -0.544859
C1    C     C_R   0.758833 0.535591 0.644854 0.508510
C2    C     C_3   0.255490 0.064871 0.567219 0.081472
C3    C     C_R   0.737516 0.016224 0.146218 0.533937
C4    C     C_R   0.769166 0.122707 0.853351 0.505888
C5    C     C_R   0.232012 0.119319 0.147984 0.501390
C6    C     C_R   0.269166 0.622707 0.853351 0.505888
C7    C     C_R   0.732012 0.619319 0.147984 0.501390
C8    C     C_R   0.976809 0.349450 0.848197 0.507123
C9    C     C_R   0.024037 0.349649 0.151121 0.508553
C10   C     C_R   0.476809 0.849450 0.848197 0.507123
C11   C     C_R   0.524037 0.849649 0.151121 0.508553
C12   C     C_3   0.685614 0.127439 0.465916 -0.212362
C13   C     C_3   0.243362 0.562011 0.432870 0.081519
C14   C     C_3   0.313130 0.132028 0.534967 -0.209884
C15   C     C_3   0.185614 0.627439 0.465916 -0.212362
C16   C     C_3   0.813130 0.632028 0.534967 -0.209884
C17   C     C_3   0.704528 0.160045 0.539949 -0.214126
C18   C     C_3   0.293245 0.169511 0.463239 -0.218236
C19   C     C_3   0.204528 0.660045 0.539949 -0.214126
C20   C     C_3   0.793245 0.669511 0.463239 -0.218236
C21   C     C_3   0.740739 0.946287 0.470864 -0.206779
C22   C     C_3   0.258058 0.950651 0.526860 -0.211943
C23   C     C_3   0.240739 0.446287 0.470864 -0.206779
C24   C     C_3   0.755490 0.564871 0.567219 0.081472
C25   C     C_3   0.758058 0.450651 0.526860 -0.211943
C26   C     C_3   0.766023 0.094195 0.567554 0.062594
C27   C     C_3   0.232137 0.103038 0.433859 0.067486
C28   C     C_3   0.266023 0.594195 0.567554 0.062594
C29   C     C_3   0.732137 0.603038 0.433859 0.067486
C30   C     C_3   0.760528 0.966300 0.546034 -0.238896
C31   C     C_3   0.235732 0.974563 0.453712 -0.234345
C32   C     C_3   0.260528 0.466300 0.546034 -0.238896
C33   C     C_R   0.240432 0.533865 0.355634 0.511546
C34   C     C_3   0.735732 0.474563 0.453712 -0.234345
C35   C     C_3   0.825560 0.140036 0.524234 -0.224519
C36   C     C_3   0.172734 0.149771 0.477385 -0.229405
C37   C     C_3   0.325560 0.640036 0.524234 -0.224519
C38   C     C_3   0.672734 0.649771 0.477385 -0.229405
C39   C     C_3   0.016736 0.228522 0.465681 -0.261602
C40   C     C_3   0.978631 0.228797 0.536160 -0.264854
C41   C     C_3   0.516736 0.728522 0.465681 -0.261602
C42   C     C_3   0.478631 0.728797 0.536160 -0.264854
C43   C     C_3   0.066407 0.418686 0.464557 -0.221719
C44   C     C_R   0.258833 0.035591 0.644854 0.508510
C45   C     C_3   0.928106 0.416012 0.535761 -0.225065
C46   C     C_3   0.566407 0.918686 0.464557 -0.221719
C47   C     C_3   0.428106 0.916012 0.535761 -0.225065
C48   C     C_3   0.939538 0.400545 0.454945 -0.247369
C49   C     C_3   0.054718 0.403862 0.545005 -0.248425
C50   C     C_3   0.439538 0.900545 0.454945 -0.247369
C51   C     C_3   0.554718 0.903862 0.545005 -0.248425
C52   C     C_3   0.009833 0.348452 0.432653 0.070185
C53   C     C_3   0.985155 0.348936 0.567759 0.067575
C54   C     C_3   0.509833 0.848452 0.432653 0.070185
C55   C     C_R   0.740432 0.033865 0.355634 0.511546
C56   C     C_3   0.485155 0.848936 0.567759 0.067575
C57   C     C_3   0.807558 0.980593 0.021388 -0.219300
C58   C     C_3   0.193130 0.982640 0.978283 -0.223410
C59   C     C_3   0.307558 0.480593 0.021388 -0.219300
C60   C     C_3   0.693130 0.482640 0.978283 -0.223410
C61   C     C_R   0.777520 0.123740 0.646763 0.516974
C62   C     C_R   0.221615 0.127501 0.353804 0.520952
C63   C     C_R   0.277520 0.623740 0.646763 0.516974
C64   C     C_R   0.721615 0.627501 0.353804 0.520952
C65   C     C_3   0.808918 0.005993 0.945858 -0.186025
C66   C     C_3   0.809754 0.129666 0.446167 -0.251914
C67   C     C_3   0.188460 0.996153 0.055746 -0.129209
C68   C     C_3   0.308918 0.505993 0.945858 -0.186025
C69   C     C_3   0.688460 0.496153 0.055746 -0.129209
C70   C     C_3   0.684204 0.985024 0.027363 -0.213667
C71   C     C_3   0.316672 0.984631 0.972568 -0.216292
C72   C     C_3   0.184204 0.485024 0.027363 -0.213667
C73   C     C_3   0.816672 0.484631 0.972568 -0.216292
C74   C     C_3   0.746851 0.165435 0.053439 -0.241236
C75   C     C_3   0.255871 0.165831 0.948426 -0.247566
C76   C     C_3   0.246851 0.665435 0.053439 -0.241236
C77   C     C_3   0.188537 0.132992 0.554994 -0.252285
C78   C     C_3   0.755871 0.665831 0.948426 -0.247566
C79   C     C_3   0.744851 0.035747 0.064279 0.065351
C80   C     C_3   0.256088 0.036412 0.936002 0.056749
C81   C     C_3   0.244851 0.535747 0.064279 0.065351
C82   C     C_3   0.756088 0.536412 0.936002 0.056749
C83   C     C_3   0.753092 0.090027 0.929679 0.068695
C84   C     C_3   0.247765 0.086671 0.071167 0.063687
C85   C     C_3   0.253092 0.590027 0.929679 0.068695
C86   C     C_3   0.747765 0.586671 0.071167 0.063687
C87   C     C_3   0.690519 0.019728 0.949580 -0.262694
C88   C     C_3   0.309754 0.629666 0.446167 -0.251914
C89   C     C_3   0.310825 0.019293 0.050440 -0.272933
C90   C     C_3   0.190519 0.519728 0.949580 -0.262694
C91   C     C_3   0.810825 0.519293 0.050440 -0.272933
C92   C     C_3   0.758603 0.198563 0.977087 -0.215515
C93   C     C_3   0.241248 0.196240 0.024726 -0.219674
C94   C     C_3   0.258603 0.698563 0.977087 -0.215515
C95   C     C_3   0.741248 0.696240 0.024726 -0.219674
C96   C     C_3   0.009015 0.456769 0.038831 -0.269785
C97   C     C_3   0.992184 0.456408 0.960716 -0.270028
C98   C     C_3   0.509015 0.956769 0.038831 -0.269785
C99   C     C_3   0.688537 0.632992 0.554994 -0.252285
C100  C     C_3   0.492184 0.956408 0.960716 -0.270028
C101  C     C_3   0.072686 0.269170 0.030142 -0.081616
C102  C     C_3   0.927896 0.269990 0.969198 -0.079806
C103  C     C_3   0.572686 0.769170 0.030142 -0.081616
C104  C     C_3   0.427896 0.769990 0.969198 -0.079806
C105  C     C_3   0.942027 0.273262 0.046669 0.029380
C106  C     C_3   0.058667 0.272069 0.952587 0.028229
C107  C     C_3   0.442027 0.773262 0.046669 0.029380
C108  C     C_3   0.558667 0.772069 0.952587 0.028229
C109  C     C_R   0.972501 0.345413 0.645792 0.509837
C110  C     C_3   0.743362 0.062011 0.432870 0.081519
C111  C     C_R   0.023313 0.344989 0.354361 0.493975
C112  C     C_R   0.472501 0.845413 0.645792 0.509837
C113  C     C_R   0.523313 0.844989 0.354361 0.493975
C114  C     C_3   0.010090 0.335086 0.068875 0.070777
C115  C     C_3   0.990891 0.334672 0.930461 0.071002
C116  C     C_3   0.510091 0.835086 0.068875 0.070777
C117  C     C_3   0.490891 0.834672 0.930461 0.071002
C118  C     C_R   0.762080 0.518406 0.853523 0.535916
C119  C     C_R   0.237516 0.516224 0.146218 0.533937
C120  C     C_R   0.262080 0.018406 0.853523 0.535916
Cr1   Cr    Cr6+3 0.885690 0.492860 0.745310 1.009694
Cr2   Cr    Cr6+3 0.111880 0.178590 0.246990 1.045571
Cr3   Cr    Cr6+3 0.388120 0.678590 0.753010 1.038907
Cr4   Cr    Cr6+3 0.611880 0.678590 0.246990 1.045571
Cr5   Cr    Cr6+3 0.114310 0.492860 0.254690 1.011255
Cr6   Cr    Cr6+3 0.385690 0.992860 0.745310 1.009694
Cr7   Cr    Cr6+3 0.614310 0.992860 0.254690 1.011255
Cr8   Cr    Cr6+3 0.729880 0.332270 0.748190 1.023972
Cr9   Cr    Cr6+3 0.270120 0.332270 0.251810 1.022802
Cr10  Cr    Cr6+3 0.229880 0.832270 0.748190 1.023972
Cr11  Cr    Cr6+3 0.770120 0.832270 0.251810 1.022802
Cr12  Cr    Cr6+3 0.888120 0.178590 0.753010 1.038907
H1    H     H_    0.631918 0.117334 0.453024 0.105639
H2    H     H_    0.229038 0.888845 0.561382 0.151928
H3    H     H_    0.446852 0.004222 0.943381 0.143303
H4    H     H_    0.969977 0.502758 0.068720 0.132268
H5    H     H_    0.031084 0.502381 0.930834 0.131987
H6    H     H_    0.469977 0.002758 0.068720 0.132268
H7    H     H_    0.531084 0.002381 0.930834 0.131987
H8    H     H_    0.620178 0.796120 0.037506 0.019673
H9    H     H_    0.380239 0.796902 0.962685 0.019609
H10   H     H_    0.120178 0.296120 0.037506 0.019673
H11   H     H_    0.880239 0.296902 0.962685 0.019609
H12   H     H_    0.601768 0.797298 0.917998 0.102182
H13   H     H_    0.270117 0.383850 0.436349 0.153815
H14   H     H_    0.399075 0.798823 0.081496 0.101834
H15   H     H_    0.101768 0.297298 0.917998 0.102182
H16   H     H_    0.899075 0.298823 0.081496 0.101834
H17   H     H_    0.908211 0.183554 0.949725 0.209188
H18   H     H_    0.091923 0.182258 0.049176 0.210911
H19   H     H_    0.408212 0.683554 0.949725 0.209188
H20   H     H_    0.591923 0.682258 0.049176 0.210911
H21   H     H_    0.660553 0.158667 0.576625 0.134552
H22   H     H_    0.336942 0.173450 0.426428 0.136246
H23   H     H_    0.160553 0.658667 0.576625 0.134551
H24   H     H_    0.729038 0.388845 0.561382 0.151928
H25   H     H_    0.836942 0.673450 0.426428 0.136246
H26   H     H_    0.699497 0.895163 0.478274 0.083898
H27   H     H_    0.299088 0.898992 0.514290 0.086073
H28   H     H_    0.199497 0.395163 0.478274 0.083898
H29   H     H_    0.799087 0.398992 0.514290 0.086073
H30   H     H_    0.723639 0.927698 0.582680 0.104557
H31   H     H_    0.270212 0.934458 0.414162 0.103968
H32   H     H_    0.223639 0.427698 0.582680 0.104557
H33   H     H_    0.770212 0.434458 0.414162 0.103968
H34   H     H_    0.850462 0.083973 0.419140 0.144943
H35   H     H_    0.806694 0.922788 0.551616 0.122784
H36   H     H_    0.147679 0.086281 0.580658 0.144551
H37   H     H_    0.350462 0.583973 0.419140 0.144943
H38   H     H_    0.647679 0.586281 0.580658 0.144551
H39   H     H_    0.811590 0.219041 0.425336 0.082056
H40   H     H_    0.187953 0.220836 0.577773 0.083088
H41   H     H_    0.311590 0.719041 0.425336 0.082056
H42   H     H_    0.687953 0.720836 0.577773 0.083088
H43   H     H_    0.831751 0.232123 0.516173 0.084408
H44   H     H_    0.164180 0.240529 0.493875 0.079744
H45   H     H_    0.331751 0.732123 0.516173 0.084408
H46   H     H_    0.188124 0.934123 0.450106 0.125764
H47   H     H_    0.664180 0.740529 0.493875 0.079744
H48   H     H_    0.306694 0.422788 0.551616 0.122784
H49   H     H_    0.688124 0.434123 0.450106 0.125764
H50   H     H_    0.066919 0.229439 0.483208 0.132461
H51   H     H_    0.927322 0.228472 0.523274 0.134265
H52   H     H_    0.566919 0.729439 0.483208 0.132461
H53   H     H_    0.368181 0.126275 0.542874 0.101045
H54   H     H_    0.427322 0.728472 0.523274 0.134265
H55   H     H_    0.000642 0.158228 0.432066 0.139968
H56   H     H_    0.996239 0.161187 0.570069 0.142490
H57   H     H_    0.500642 0.658228 0.432066 0.139968
H58   H     H_    0.496239 0.661187 0.570069 0.142490
H59   H     H_    0.614108 0.894673 0.434449 0.121993
H60   H     H_    0.381002 0.891446 0.569293 0.117732
H61   H     H_    0.114108 0.394673 0.434449 0.121993
H62   H     H_    0.881002 0.391446 0.569293 0.117732
H63   H     H_    0.591965 0.841371 0.560439 0.097410
H64   H     H_    0.131918 0.617335 0.453024 0.105639
H65   H     H_    0.402967 0.834541 0.440332 0.098701
H66   H     H_    0.091965 0.341371 0.560439 0.097410
H67   H     H_    0.902967 0.334541 0.440332 0.098701
H68   H     H_    0.931286 0.484078 0.428333 0.132387
H69   H     H_    0.061484 0.488060 0.570611 0.135010
H70   H     H_    0.431286 0.984078 0.428333 0.132387
H71   H     H_    0.561484 0.988060 0.570611 0.135010
H72   H     H_    0.925320 0.496649 0.551004 0.153040
H73   H     H_    0.068501 0.500932 0.450038 0.148073
H74   H     H_    0.425320 0.996649 0.551004 0.153040
H75   H     H_    0.868181 0.626275 0.542874 0.101045
H76   H     H_    0.568501 0.000932 0.450038 0.148073
H77   H     H_    0.819989 0.895606 0.038357 0.121281
H78   H     H_    0.176467 0.900469 0.956809 0.131300
H79   H     H_    0.319989 0.395606 0.038357 0.121281
H80   H     H_    0.676467 0.400469 0.956809 0.131300
H81   H     H_    0.689492 0.207829 0.432931 0.098049
H82   H     H_    0.310258 0.208509 0.570717 0.097685
H83   H     H_    0.189493 0.707829 0.432931 0.098049
H84   H     H_    0.810258 0.708509 0.570717 0.097685
H85   H     H_    0.853630 0.021366 0.021924 0.208805
H86   H     H_    0.875223 0.097881 0.534087 0.121049
H87   H     H_    0.149923 0.034810 0.980485 0.210480
H88   H     H_    0.353630 0.521366 0.021924 0.208805
H89   H     H_    0.649923 0.534810 0.980485 0.210480
H90   H     H_    0.849273 0.972668 0.916574 0.159835
H91   H     H_    0.165102 0.921683 0.072815 0.111284
H92   H     H_    0.349273 0.472668 0.916574 0.159835
H93   H     H_    0.665102 0.421683 0.072815 0.111284
H94   H     H_    0.791389 0.931048 0.917402 0.077430
H95   H     H_    0.216794 0.928532 0.084296 0.063193
H96   H     H_    0.291389 0.431048 0.917402 0.077430
H97   H     H_    0.124046 0.111822 0.462613 0.123329
H98   H     H_    0.716794 0.428532 0.084296 0.063193
H99   H     H_    0.684650 0.896025 0.035024 0.092925
H100  H     H_    0.315470 0.895943 0.965815 0.095859
H101  H     H_    0.184651 0.396025 0.035024 0.092925
H102  H     H_    0.815470 0.395943 0.965815 0.095859
H103  H     H_    0.690477 0.942125 0.917662 0.099474
H104  H     H_    0.312007 0.942257 0.082439 0.096284
H105  H     H_    0.190476 0.442124 0.917662 0.099474
H106  H     H_    0.812007 0.442257 0.082439 0.096284
H107  H     H_    0.700500 0.201630 0.075041 0.128382
H108  H     H_    0.375223 0.597881 0.534087 0.121049
H109  H     H_    0.303691 0.200178 0.930122 0.133967
H110  H     H_    0.200499 0.701630 0.075041 0.128382
H111  H     H_    0.803691 0.700178 0.930122 0.133967
H112  H     H_    0.785618 0.202814 0.081879 0.127016
H113  H     H_    0.219458 0.206811 0.918166 0.122537
H114  H     H_    0.285618 0.702814 0.081879 0.127016
H115  H     H_    0.719458 0.706811 0.918166 0.122537
H116  H     H_    0.799757 0.250263 0.968539 0.096550
H117  H     H_    0.200676 0.250260 0.030236 0.094142
H118  H     H_    0.299757 0.750263 0.968539 0.096550
H119  H     H_    0.624046 0.611822 0.462613 0.123329
H120  H     H_    0.700676 0.750260 0.030236 0.094142
H121  H     H_    0.723811 0.258011 0.966054 0.120553
H122  H     H_    0.275099 0.253397 0.039801 0.128239
H123  H     H_    0.223811 0.758011 0.966054 0.120553
H124  H     H_    0.775099 0.753397 0.039801 0.128239
H125  H     H_    0.634131 0.997304 0.037036 0.114081
H126  H     H_    0.366787 0.997252 0.962802 0.116072
H127  H     H_    0.134131 0.497304 0.037036 0.114081
H128  H     H_    0.866787 0.497252 0.962802 0.116072
H129  H     H_    0.722844 0.243369 0.526311 0.112250
H130  H     H_    0.770117 0.883849 0.436349 0.153815
H131  H     H_    0.274720 0.250038 0.482325 0.110669
H132  H     H_    0.222844 0.743368 0.526311 0.112250
H133  H     H_    0.774720 0.750038 0.482325 0.110669
H134  H     H_    0.649257 0.071493 0.936685 0.125924
H135  H     H_    0.351571 0.073046 0.062900 0.128265
H136  H     H_    0.149257 0.571493 0.936685 0.125924
H137  H     H_    0.851571 0.573046 0.062900 0.128265
H138  H     H_    0.054099 0.505422 0.056147 0.142636
H139  H     H_    0.946852 0.504222 0.943381 0.143303
H140  H     H_    0.554099 0.005422 0.056147 0.142636
O1    O     O_R   0.957210 0.449410 0.665480 -0.533807
O2    O     O_R   0.167480 0.095300 0.164000 -0.503798
O3    O     O_R   0.332520 0.595300 0.836000 -0.525494
O4    O     O_R   0.667480 0.595300 0.164000 -0.503798
O5    O     O_R   0.946380 0.253940 0.826940 -0.471993
O6    O     O_R   0.053620 0.253940 0.173060 -0.470984
O7    O     O_R   0.446380 0.753940 0.826940 -0.471993
O8    O     O_R   0.553620 0.753940 0.173060 -0.470984
O9    O     O_3   0.834560 0.334570 0.748840 -0.313087
O10   O     O_3   0.165440 0.334570 0.251160 -0.313362
O11   O     O_3   0.334560 0.834570 0.748840 -0.313087
O12   O     O_R   0.042790 0.449410 0.334520 -0.526942
O13   O     O_3   0.665440 0.834570 0.251160 -0.313362
O14   O     O_R   0.820730 0.541240 0.668250 -0.515452
O15   O     O_R   0.179270 0.541240 0.331750 -0.515858
O16   O     O_R   0.320730 0.041240 0.668250 -0.515452
O17   O     O_R   0.679270 0.041240 0.331750 -0.515858
O18   O     O_R   0.714240 0.455060 0.663710 -0.533950
O19   O     O_R   0.285760 0.455060 0.336290 -0.535864
O20   O     O_R   0.214240 0.955060 0.663710 -0.533950
O21   O     O_R   0.785760 0.955060 0.336290 -0.535864
O22   O     O_R   0.736780 0.204870 0.675910 -0.516040
O23   O     O_R   0.457210 0.949410 0.665480 -0.533807
O24   O     O_R   0.263220 0.204870 0.324090 -0.519093
O25   O     O_R   0.236780 0.704870 0.675910 -0.516040
O26   O     O_R   0.763220 0.704870 0.324090 -0.519093
O27   O     O_R   0.833070 0.087590 0.673490 -0.520406
O28   O     O_R   0.166930 0.087590 0.326510 -0.523773
O29   O     O_R   0.333070 0.587590 0.673490 -0.520406
O30   O     O_R   0.666930 0.587590 0.326510 -0.523773
O31   O     O_R   0.946890 0.246800 0.676300 -0.506533
O32   O     O_R   0.053110 0.246800 0.323700 -0.499237
O33   O     O_R   0.446890 0.746800 0.676300 -0.506533
O34   O     O_R   0.542790 0.949410 0.334520 -0.526942
O35   O     O_R   0.553110 0.746800 0.323700 -0.499237
O36   O     O_R   0.956650 0.457120 0.827980 -0.533227
O37   O     O_R   0.043350 0.457120 0.172020 -0.533927
O38   O     O_R   0.456650 0.957120 0.827980 -0.533227
O39   O     O_R   0.543350 0.957120 0.172020 -0.533927
O40   O     O_R   0.820220 0.548390 0.818890 -0.506771
O41   O     O_R   0.179780 0.548390 0.181110 -0.507510
O42   O     O_R   0.320220 0.048390 0.818890 -0.506771
O43   O     O_R   0.679780 0.048390 0.181110 -0.507510
O44   O     O_R   0.713680 0.462770 0.826210 -0.497209
O45   O     O_R   0.736260 0.212010 0.826560 -0.508634
O46   O     O_R   0.286320 0.462770 0.173790 -0.496354
O47   O     O_R   0.213680 0.962770 0.826210 -0.497209
O48   O     O_R   0.786320 0.962770 0.173790 -0.496354
O49   O     O_R   0.263740 0.212010 0.173440 -0.510792
O50   O     O_R   0.236260 0.712010 0.826560 -0.508634
O51   O     O_R   0.763740 0.712010 0.173440 -0.510792
O52   O     O_R   0.832520 0.095300 0.836000 -0.525494

loop_
_geom_bond_atom_site_label_1
_geom_bond_atom_site_label_2
_ccdc_geom_bond_type
C101  C106  S    
C83   C87   S    
C75   H113  S    
C103  C108  S    
C103  C116  S    
C111  O32   A    
C70   C79   S    
C113  O35   A    
C86   C91   S    
Cr2   O2    S    
C3    O43   A    
C15   H64   S    
C6    O50   A    
C5    C84   S    
C9    O6    A    
C89   H104  S    
C22   H27   S    
C32   H32   S    
C11   C116  S    
Cr7   O17   S    
C85   C90   S    
C72   C90   S    
C36   H44   S    
C51   H63   S    
C74   C92   S    
C92   H121  S    
C84   C93   S    
C21   C30   S    
C43   C49   S    
C10   C117  S    
C59   C81   S    
C58   H78   S    
C105  C114  S    
Cr3   O33   S    
Cr1   O9    S    
Cr4   O30   S    
C37   H108  S    
C77   H40   S    
Cr3   O11   S    
C26   C30   S    
C16   C24   S    
Cr11  O48   S    
C72   H101  S    
C15   C19   S    
C39   C40   S    
C46   H59   S    
C40   C53   S    
C102  H17   S    
Cr11  O13   S    
C69   H98   S    
C73   H102  S    
C5    O2    A    
C7    O4    A    
C71   C89   S    
C34   H33   S    
C42   C56   S    
C75   C93   S    
C20   C29   S    
C36   H97   S    
C53   C109  S    
C10   O7    A    
C20   H133  S    
C74   H107  S    
C104  C107  S    
C48   H67   S    
C21   C110  S    
C40   H56   S    
C104  H19   S    
C101  H10   S    
C62   O24   A    
C81   C119  S    
C54   C113  S    
C10   O38   A    
Cr10  O20   S    
C67   C84   S    
C70   H125  S    
C22   C31   S    
Cr9   O10   S    
C67   H95   S    
C1    O18   A    
C72   C81   S    
C30   H35   S    
Cr9   O46   S    
C3    C79   S    
C118  O44   A    
C12   C17   S    
C119  O41   A    
C24   C99   S    
C38   C99   S    
C69   H93   S    
C9    C114  S    
Cr12  O27   S    
Cr8   O22   S    
C63   O25   A    
C29   C38   S    
C28   C32   S    
C64   O30   A    
C69   C86   S    
C75   C80   S    
C71   C80   S    
C45   C53   S    
C11   O39   A    
C6    C85   S    
C19   H23   S    
C25   C34   S    
C74   H112  S    
C60   C69   S    
C35   H86   S    
C6    O3    A    
C44   O20   A    
C112  O33   A    
C46   H76   S    
C33   O19   A    
C2    C77   S    
C76   H114  S    
C11   O8    A    
C57   H77   S    
Cr12  O9    S    
C18   H131  S    
C60   H89   S    
C93   H122  S    
C42   H58   S    
C25   H24   S    
Cr7   O13   S    
C13   C23   S    
Cr9   O49   S    
C99   H38   S    
C102  H11   S    
C96   H138  S    
C95   H120  S    
C8    C115  S    
Cr8   O9    S    
C89   H135  S    
C45   H72   S    
C90   H136  S    
C100  H7    S    
C71   H100  S    
C28   C63   S    
C120  O47   A    
Cr2   O10   S    
C76   H110  S    
C56   C112  S    
Cr4   O8    S    
C14   H82   S    
Cr11  O26   S    
C86   C95   S    
C93   H117  S    
C63   O29   A    
C58   C80   S    
C68   H96   S    
C14   C18   S    
C12   C110  S    
C106  C115  S    
C35   H43   S    
Cr5   O37   S    
C50   H65   S    
C51   H71   S    
C85   C94   S    
C99   H42   S    
C43   H73   S    
C108  C117  S    
C2    C22   S    
C38   H119  S    
C96   C97   S    
Cr9   O24   S    
C26   C35   S    
C26   C61   S    
C88   H41   S    
C40   H51   S    
Cr2   O28   S    
C43   H61   S    
C29   C34   S    
C47   C56   S    
C98   H6    S    
Cr3   O3    S    
C70   H99   S    
Cr4   O4    S    
C29   C64   S    
C43   C52   S    
C102  C105  S    
C94   H123  S    
Cr6   O38   S    
Cr7   O43   S    
C102  C115  S    
C78   C95   S    
Cr8   O44   S    
C20   H25   S    
C104  C117  S    
C87   H134  S    
C1    O14   A    
C21   H130  S    
C119  O46   A    
C41   C42   S    
C61   O27   A    
C62   O28   A    
C8    O36   A    
Cr4   O35   S    
C75   H109  S    
C24   C25   S    
C90   H105  S    
Cr11  O21   S    
C27   C36   S    
C25   H29   S    
C64   O26   A    
Br1   C105  S    
C84   C89   S    
C74   C79   S    
C112  O23   A    
Br3   C107  S    
C50   H70   S    
C82   C118  S    
Cr10  O25   S    
C65   C83   S    
C8    O5    A    
C51   C56   S    
C65   H90   S    
C37   H45   S    
C67   H91   S    
Cr1   O40   S    
C59   H88   S    
C60   C82   S    
C41   H57   S    
Cr8   O45   S    
C41   C54   S    
C46   C54   S    
C105  H16   S    
C106  H15   S    
C57   C79   S    
C49   C53   S    
C18   H22   S    
C78   C82   S    
C48   H68   S    
C70   C87   S    
Cr2   O32   S    
C76   C81   S    
C44   O16   A    
C111  O12   A    
C33   O15   A    
C45   C48   S    
Cr10  O11   S    
Cr12  O5    S    
C88   H37   S    
C27   C31   S    
Cr12  O52   S    
C96   C114  S    
C92   H116  S    
C107  H14   S    
C109  O1    A    
C98   C116  S    
C104  H9    S    
Br2   C106  S    
C76   C94   S    
C3    O48   A    
Cr6   O11   S    
C22   H2    S    
C23   C32   S    
C17   C26   S    
C49   H66   S    
C91   H137  S    
C100  H3    S    
Cr6   O23   S    
C19   C28   S    
C4    C83   S    
C66   H34   S    
C4    O45   A    
C47   H74   S    
Cr1   O1    S    
C55   C110  S    
Cr2   O6    S    
C52   C111  S    
C9    O37   A    
C57   H85   S    
C91   H106  S    
C59   C68   S    
C68   H92   S    
Cr6   O16   S    
Cr10  O50   S    
C59   H79   S    
C103  H8    S    
C30   H30   S    
Cr5   O41   S    
C27   C62   S    
C14   H53   S    
C73   H128  S    
C12   H1    S    
C7    C86   S    
C66   C110  S    
C31   H46   S    
C2    C44   S    
C78   H111  S    
Cr5   O10   S    
C47   H60   S    
C77   H36   S    
Cr3   O29   S    
C19   H132  S    
C16   H75   S    
Cr3   O7    S    
Cr10  O47   S    
C96   H4    S    
C109  O31   A    
C55   O21   A    
C97   H5    S    
Cr6   O42   S    
Cr7   O39   S    
C58   C67   S    
C49   H69   S    
C32   H48   S    
C66   H39   S    
C61   O22   A    
C103  H20   S    
C17   H129  S    
C101  H18   S    
Br4   C108  S    
C71   H126  S    
C39   H55   S    
C23   H13   S    
C16   H84   S    
C13   C88   S    
C42   H54   S    
C45   H62   S    
Cr11  O51   S    
C2    C14   S    
Cr7   O34   S    
C18   C27   S    
C97   C115  S    
C16   C20   S    
C78   H115  S    
C100  C117  S    
C39   H50   S    
C73   C91   S    
C108  H12   S    
C107  C116  S    
C23   H28   S    
C1    C24   S    
C31   H31   S    
C55   O17   A    
C21   H26   S    
C28   C37   S    
C83   C92   S    
C12   H81   S    
C13   C33   S    
C58   H87   S    
Cr1   O36   S    
C98   C100  S    
Cr4   O13   S    
C72   H127  S    
C5    O49   A    
C73   C82   S    
C7    O51   A    
C15   H83   S    
C94   H118  S    
C50   C54   S    
C57   C65   S    
C113  O34   A    
C17   H21   S    
C36   C77   S    
C60   H80   S    
Cr5   O12   S    
Cr1   O14   S    
C41   H52   S    
C38   H47   S    
C80   C120  S    
C34   H49   S    
C118  O40   A    
C46   C51   S    
C47   C50   S    
C120  O42   A    
C65   H94   S    
C68   C85   S    
Cr12  O31   S    
C95   H124  S    
C13   C15   S    
C35   C66   S    
Cr8   O18   S    
Cr9   O19   S    
C101  C114  S    
C4    O52   A    
C39   C52   S    
C37   C88   S    
Cr5   O15   S    
C87   H103  S    
C97   H139  S    
C98   H140  S    
C48   C52   S    
