data_mof_unit_56679.cif
_audit_creation_date              2013-03-05T16:01:16-0500
_audit_creation_method            fapswitch 2.2
_symmetry_space_group_name_H-M    P1
_symmetry_Int_Tables_number       1
_space_group_crystal_system       triclinic
_cell_length_a                    14.744452
_cell_length_b                    14.713003
_cell_length_c                    17.347464
_cell_angle_alpha                 106.161654
_cell_angle_beta                  72.89204
_cell_angle_gamma                 114.936715
_cell_volume                      3209.32502154

loop_
_atom_site_label
_atom_site_type_symbol
_atom_site_description
_atom_site_fract_x
_atom_site_fract_y
_atom_site_fract_z
_atom_type_partial_charge
O1    O     O_R   0.020090 0.662480 0.528530 -0.544991
O2    O     O_R   0.979910 0.337520 0.471470 -0.545003
O3    O     O_R   0.160710 0.620650 0.491980 -0.607133
O4    O     O_R   0.839290 0.379350 0.508020 -0.607126
C1    C     C_R   0.118608 0.688067 0.513053 0.835178
C2    C     C_R   0.881392 0.311933 0.486949 0.835178
O5    O     O_R   0.921540 0.523360 0.633990 -0.548006
O6    O     O_R   0.078460 0.476640 0.366010 -0.547978
O7    O     O_R   0.062170 0.481520 0.597440 -0.599059
O8    O     O_R   0.937830 0.518480 0.402560 -0.599068
C3    C     C_R   0.989883 0.504115 0.652602 0.802884
C4    C     C_R   0.010116 0.495885 0.347398 0.802903
Cu1   Cu    Cu3+1 0.916740 0.524770 0.521640 1.002334
Cu2   Cu    Cu3+1 0.083260 0.475230 0.478360 1.002335
C5    C     C_R   0.986653 0.509816 0.738609 -0.025992
C6    C     C_R   0.013346 0.490182 0.261391 -0.025982
C7    C     C_R   0.072683 0.516138 0.761970 -0.189976
C8    C     C_R   0.927317 0.483868 0.238032 -0.189982
C9    C     C_R   0.070370 0.521969 0.843670 -0.130046
C10   C     C_R   0.929629 0.478035 0.156332 -0.130044
C11   C     C_R   0.981354 0.520150 0.902905 0.179503
C12   C     C_R   0.018642 0.479846 0.097095 0.179511
C13   C     C_R   0.896353 0.516521 0.879987 -0.154031
C14   C     C_R   0.103640 0.483466 0.120011 -0.154046
C15   C     C_R   0.898666 0.510797 0.798116 -0.125898
C16   C     C_R   0.101328 0.489190 0.201881 -0.125908
C17   C     C_2   0.974999 0.521695 0.989008 -0.213342
C18   C     C_2   0.024997 0.478302 0.010991 -0.213342
H1    H     H_    0.142147 0.517593 0.717287 0.155922
H2    H     H_    0.857855 0.482420 0.282715 0.155920
H3    H     H_    0.168663 0.494146 0.218645 0.179435
H4    H     H_    0.831330 0.505833 0.781351 0.179452
H5    H     H_    0.074369 0.443126 0.965093 0.155123
H6    H     H_    0.925627 0.556871 0.034906 0.155123
H7    H     H_    0.827494 0.515910 0.925225 0.136743
H8    H     H_    0.172498 0.484069 0.074772 0.136739
H9    H     H_    0.861422 0.471069 0.139776 0.132206
H10   H     H_    0.138578 0.528941 0.860228 0.132209
C19   C     C_R   0.185759 0.795707 0.515809 -0.118110
C20   C     C_R   0.814241 0.204294 0.484202 -0.118118
C21   C     C_R   0.216757 0.969908 0.510954 0.321823
C22   C     C_R   0.783244 0.030099 0.489074 0.321832
C23   C     C_R   0.149982 0.869011 0.514044 -0.172165
C24   C     C_R   0.850019 0.130993 0.485972 -0.172173
C25   C     C_R   0.288843 0.823101 0.514425 -0.245983
C26   C     C_R   0.711155 0.176899 0.485592 -0.245979
C27   C     C_R   0.359572 0.922170 0.507351 0.053633
C28   C     C_R   0.640426 0.077833 0.492681 0.053631
C29   C     C_R   0.321838 0.997399 0.509194 0.026292
C30   C     C_R   0.678161 0.002606 0.490841 0.026292
C31   C     C_R   0.466344 0.948382 0.499848 0.100041
C32   C     C_R   0.533653 0.051621 0.500191 0.100039
C33   C     C_R   0.491733 0.125681 0.509767 -0.233678
C34   C     C_R   0.508265 0.874324 0.490280 -0.233670
C35   C     C_R   0.388890 0.098854 0.512714 -0.157945
C36   C     C_R   0.611108 0.901152 0.487334 -0.157948
H11   H     H_    0.362199 0.159560 0.520328 0.197551
H12   H     H_    0.637798 0.840446 0.479727 0.197548
H13   H     H_    0.688526 0.234769 0.479646 0.153305
H14   H     H_    0.311469 0.765227 0.520364 0.153301
H15   H     H_    0.929425 0.152678 0.487574 0.226844
H16   H     H_    0.070578 0.847327 0.512438 0.226839
H17   H     H_    0.535764 0.206232 0.516706 0.143431
H18   H     H_    0.464234 0.793773 0.483350 0.143421
N1    N     N_R   0.208390 0.438070 0.445820 -0.241366
N2    N     N_R   0.791610 0.561930 0.554180 -0.241378
C37   C     C_R   0.292226 0.322260 0.369362 -0.278109
C38   C     C_R   0.707766 0.677728 0.630653 -0.278102
C39   C     C_R   0.210986 0.354576 0.386900 0.535604
C40   C     C_R   0.789003 0.645408 0.613114 0.535638
C41   C     C_R   0.286949 0.492436 0.486857 -0.066850
C42   C     C_R   0.713060 0.507576 0.513133 -0.066855
C43   C     C_R   0.373349 0.464002 0.469896 -0.016909
C44   C     C_R   0.626658 0.536009 0.530098 -0.016908
C45   C     C_R   0.372844 0.375754 0.410616 0.092512
C46   C     C_R   0.627158 0.624248 0.589387 0.092511
C47   C     C_R   0.458976 0.518337 0.509745 0.097806
C48   C     C_R   0.541033 0.481676 0.490248 0.097803
C49   C     C_R   0.534310 0.391689 0.432068 -0.244163
C50   C     C_R   0.465697 0.608321 0.567928 -0.244169
C51   C     C_R   0.452274 0.340501 0.392848 -0.145186
C52   C     C_R   0.547729 0.659502 0.607155 -0.145197
H19   H     H_    0.450791 0.271902 0.348154 0.159431
H20   H     H_    0.549207 0.728096 0.651855 0.159434
H21   H     H_    0.720726 0.444047 0.466410 0.140094
H22   H     H_    0.279291 0.555976 0.533571 0.140090
H23   H     H_    0.291969 0.254994 0.323279 0.186795
H24   H     H_    0.708015 0.744982 0.676748 0.186784
H25   H     H_    0.591398 0.358312 0.415457 0.129439
H26   H     H_    0.408608 0.641697 0.584541 0.129435
N3    N     N_R   0.869450 0.702301 0.657326 0.135951
O9    O     O_R   0.861954 0.677441 0.725858 -0.374756
O10   O     O_R   0.926871 0.794876 0.645793 -0.331046
N4    N     N_R   0.130517 0.297648 0.342714 0.135930
O11   O     O_R   0.137928 0.322531 0.274210 -0.374714
O12   O     O_R   0.073168 0.205048 0.354225 -0.331038
N5    N     N_R   0.177059 0.042040 0.506714 0.122123
O13   O     O_R   0.087878 0.039696 0.550309 -0.276747
O14   O     O_R   0.220497 0.096962 0.449236 -0.360529
N6    N     N_R   0.822943 0.957969 0.493319 0.122118
O15   O     O_R   0.912114 0.960298 0.449710 -0.276747
O16   O     O_R   0.779517 0.903067 0.550813 -0.360527

loop_
_geom_bond_atom_site_label_1
_geom_bond_atom_site_label_2
_geom_bond_distance
_ccdc_geom_bond_type
C25   H14   1.074988 S    
C26   H13   1.074997 S    
C42   C44   1.429972 A    
C7    H1    1.083493 S    
C40   N3    1.427039 S    
N5    O13   1.301292 A    
C27   C29   1.422945 A    
C47   C48   1.441238 A    
O5    C3    1.297215 A    
C14   H8    1.083619 S    
C44   C46   1.412946 A    
O1    C1    1.299825 A    
C9    C11   1.404085 A    
C14   C16   1.390214 A    
C28   C32   1.428114 A    
C5    C15   1.403014 A    
C25   C27   1.403469 A    
O4    Cu1   1.937700 S    
C21   N5    1.437696 S    
N5    O14   1.301455 A    
C3    C5    1.458513 S    
C11   C13   1.398772 A    
N2    C42   1.369361 A    
C4    C6    1.458515 S    
C8    H2    1.083497 S    
C8    C10   1.386924 A    
C19   C25   1.393026 A    
C15   H4    1.082847 S    
C28   C30   1.422943 A    
C11   C17   1.463191 S    
C16   H3    1.082851 S    
C12   C18   1.463194 S    
Cu1   Cu2   2.691287 S    
C21   C23   1.398836 A    
O2    C2    1.299824 A    
C22   C24   1.398841 A    
C21   C29   1.419733 A    
C51   H19   1.084448 S    
C42   H21   1.075564 S    
C34   C36   1.385174 A    
Cu1   N2    2.021764 S    
C33   C35   1.385171 A    
C17   H6    1.085824 S    
C6    C16   1.403021 A    
C26   C28   1.403473 A    
C31   C32   1.421086 A    
C50   C52   1.387077 A    
C39   N4    1.427061 S    
C46   C52   1.395162 A    
N3    O9    1.300030 A    
C41   C43   1.429976 A    
C48   C49   1.409142 A    
C45   C51   1.395160 A    
C19   C23   1.396429 A    
N1    C41   1.369370 A    
C30   C36   1.396317 A    
C37   C39   1.392391 A    
C20   C26   1.393024 A    
O7    Cu2   1.977988 S    
C9    H10   1.082129 S    
C22   N6    1.437696 S    
N3    O10   1.300640 A    
C41   H22   1.075565 S    
C20   C24   1.396435 A    
O6    C4    1.297217 A    
N6    O16   1.301489 A    
N4    O12   1.300677 A    
O7    C3    1.297623 A    
O3    Cu2   1.937701 S    
O8    C4    1.297622 A    
C22   C30   1.419727 A    
O4    C2    1.298734 A    
C10   C12   1.404091 A    
C18   H5    1.085825 S    
C13   H7    1.083613 S    
C35   H11   1.081765 S    
C38   H24   1.084779 S    
C12   C14   1.398777 A    
C37   C45   1.393762 A    
C43   C45   1.412948 A    
C32   C33   1.415514 A    
C49   C51   1.387067 A    
C47   C50   1.409144 A    
C5    C7    1.401370 A    
O6    Cu2   1.977093 S    
C37   H23   1.084781 S    
O3    C1    1.298733 A    
O8    Cu1   1.977988 S    
C27   C31   1.428123 A    
C24   H15   1.082845 S    
C38   C46   1.393771 A    
C52   H20   1.084448 S    
C31   C34   1.415527 A    
C1    C19   1.467718 S    
C29   C35   1.396309 A    
C10   H9    1.082132 S    
C33   H17   1.076248 S    
N2    C40   1.368522 A    
C34   H18   1.076252 S    
N1    C39   1.368537 A    
N6    O15   1.301299 A    
C7    C9    1.386925 A    
Cu2   N1    2.021764 S    
C36   H12   1.081777 S    
C2    C20   1.467718 S    
C13   C15   1.390212 A    
C50   H26   1.076936 S    
N4    O11   1.300103 A    
O2    Cu2   1.952033 S    
C49   H25   1.076935 S    
O5    Cu1   1.977092 S    
O1    Cu1   1.952032 S    
C6    C8    1.401375 A    
C44   C48   1.437230 A    
C17   C18   1.339516 D    
C38   C40   1.392395 A    
C43   C47   1.437237 A    
C23   H16   1.082848 S    
