data_mof_unit_26526.cif
_audit_creation_date              2012-12-10T20:44:48-0500
_audit_creation_method            fapswitch 2.2
_symmetry_space_group_name_H-M    P1
_symmetry_Int_Tables_number       1
_space_group_crystal_system       triclinic
_cell_length_a                    9.875813
_cell_length_b                    10.638447
_cell_length_c                    16.831303
_cell_angle_alpha                 88.973982
_cell_angle_beta                  93.938158
_cell_angle_gamma                 90.528052
_cell_volume                      1763.83756175

loop_
_atom_site_label
_atom_site_type_symbol
_atom_type_description
_atom_site_fract_x
_atom_site_fract_y
_atom_site_fract_z
_atom_type_partial_charge
Br1   Br    Br    0.829073 0.681497 0.371163 -0.541864
C1    C     C_R   0.499353 0.260402 0.498059 0.960732
C2    C     C_R   0.500050 0.128666 0.491146 -0.178743
C3    C     C_R   0.415868 0.066838 0.432780 0.112001
C4    C     C_R   0.517135 0.495723 0.653290 0.870769
C5    C     C_R   0.418621 0.934723 0.431445 0.138883
C6    C     C_R   0.503972 0.871368 0.489295 -0.145734
C7    C     C_R   0.602053 0.935982 0.535326 0.068831
C8    C     C_3   0.643331 0.923473 0.622214 -0.526056
C9    C     C_3   0.642277 0.066611 0.623624 0.031498
C10   C     C_R   0.077489 0.441986 0.560485 0.131498
C11   C     C_R   0.067412 0.570560 0.446421 -0.174060
C12   C     C_R   0.652124 0.456022 0.780678 -0.229459
C13   C     C_R   0.923902 0.572209 0.446801 0.297554
C14   C     C_R   0.935048 0.441237 0.559985 0.116686
C15   C     C_3   0.928941 0.306158 0.583846 -0.554307
C16   C     C_R   0.500515 0.739586 0.497978 0.936220
C17   C     C_3   0.083460 0.306078 0.584384 0.015168
C18   C     C_R   0.482788 0.497481 0.346833 0.881906
C19   C     C_R   0.526103 0.476570 0.739048 -0.006869
C20   C     C_R   0.406597 0.469318 0.778978 -0.224190
C21   C     C_R   0.412397 0.441684 0.859519 -0.183100
C22   C     C_R   0.538991 0.422780 0.901875 0.331731
C23   C     C_R   0.581405 0.419254 0.143868 -0.166156
C24   C     C_R   0.658086 0.429302 0.861871 -0.210091
C25   C     C_3   0.404886 0.822862 0.307660 -0.748961
C26   C     C_3   0.574634 0.125402 0.754740 -0.764567
C27   C     C_3   0.156545 0.157893 0.690737 -0.787328
C28   C     C_3   0.194530 0.151963 0.387919 -0.761168
C29   C     C_R   0.590357 0.447440 0.223843 -0.202367
C30   C     C_R   0.454240 0.420787 0.100380 0.323603
C31   C     C_R   0.472924 0.475974 0.261770 -0.032401
C32   C     C_R   0.345804 0.473458 0.219232 -0.221896
C33   C     C_R   0.336934 0.445744 0.138819 -0.194767
C34   C     C_R   0.600091 0.063497 0.536336 0.007048
H1    H     H_    0.689305 0.446139 0.255884 0.186846
H2    H     H_    0.755791 0.416090 0.894123 0.139488
H3    H     H_    0.745653 0.459748 0.750626 0.159051
H4    H     H_    0.253618 0.493525 0.247824 0.168312
H5    H     H_    0.317920 0.438402 0.888571 0.148652
H6    H     H_    0.238991 0.447688 0.105646 0.140532
H7    H     H_    0.308281 0.485114 0.748135 0.162175
H8    H     H_    0.242863 0.905820 0.358018 0.247761
H9    H     H_    0.435738 0.904367 0.270666 0.231781
H10   H     H_    0.336129 0.761056 0.270503 0.235294
H11   H     H_    0.496399 0.768240 0.328118 0.259567
H12   H     H_    0.564146 0.876468 0.656467 0.190860
H13   H     H_    0.441847 0.079729 0.657984 0.241194
H14   H     H_    0.493977 0.175551 0.783986 0.249779
H15   H     H_    0.671207 0.178899 0.764939 0.243536
H16   H     H_    0.586176 0.029844 0.781924 0.237240
H17   H     H_    0.118855 0.347628 0.705989 0.222449
H18   H     H_    0.223688 0.151218 0.746296 0.239324
H19   H     H_    0.198898 0.098076 0.645192 0.237394
H20   H     H_    0.053782 0.122571 0.703206 0.233658
H21   H     H_    0.352845 0.113922 0.316198 0.230105
H22   H     H_    0.172124 0.253404 0.393061 0.259855
H23   H     H_    0.746816 0.883765 0.632889 0.198940
H24   H     H_    0.129709 0.114341 0.337066 0.223234
H25   H     H_    0.167159 0.101204 0.442948 0.228804
H26   H     H_    0.743898 0.110335 0.636084 0.152785
H27   H     H_    0.118120 0.625759 0.402533 0.185374
H28   H     H_    0.888565 0.293681 0.643550 0.195642
H29   H     H_    0.879267 0.246813 0.536397 0.206761
H30   H     H_    0.674294 0.399342 0.116010 0.151201
H31   H     H_    0.124963 0.246404 0.538713 0.168327
N1    N     N_2   0.551887 0.411460 0.985555 -0.204838
N2    N     N_2   0.441362 0.412162 0.016849 -0.208854
N3    N     N_R   0.142860 0.499130 0.500540 -0.140614
N4    N     N_R   0.857210 0.499170 0.500530 -0.122243
N5    N     N_2   0.335127 0.865679 0.374835 -0.300232
N6    N     N_2   0.537647 0.116829 0.670449 -0.285436
N7    N     N_2   0.149489 0.287398 0.663400 -0.265603
N8    N     N_2   0.336692 0.137332 0.373963 -0.299058
O1    O     O_R   0.614690 0.316790 0.499990 -0.628235
O2    O     O_R   0.385350 0.316760 0.500000 -0.602018
O3    O     O_R   0.627460 0.498860 0.616130 -0.623228
O4    O     O_R   0.398120 0.498820 0.616130 -0.614051
O5    O     O_R   0.614650 0.683240 0.500000 -0.579712
O6    O     O_R   0.385310 0.683210 0.500010 -0.607031
O7    O     O_R   0.601880 0.501180 0.383870 -0.586434
O8    O     O_R   0.372540 0.501140 0.383870 -0.623537
Zn1   Zn    Zn3+2 0.653130 0.500020 0.499990 0.984515
Zn2   Zn    Zn3+2 0.346870 0.499980 0.500010 0.960639

loop_
_geom_bond_atom_site_label_1
_geom_bond_atom_site_label_2
_ccdc_geom_bond_type
O5    Zn1   S    
C11   N3    A    
C10   C17   S    
O6    Zn2   S    
O2    Zn2   S    
C25   H9    S    
C6    C7    A    
C4    C19   S    
C32   H4    S    
C27   N7    S    
C14   C15   S    
C16   O5    A    
C8    H23   S    
C22   N1    S    
C25   H10   S    
C24   H2    S    
C10   C14   A    
C28   H24   S    
C7    C8    S    
C6    C16   S    
C9    C34   S    
C15   H28   S    
C18   O8    A    
C8    C9    S    
C3    N8    S    
C26   H15   S    
C1    O1    A    
C20   C21   A    
C25   N5    S    
C13   N4    A    
C12   C24   A    
C5    N5    S    
C33   H6    S    
H13   N6    S    
C18   C31   S    
O7    Zn1   S    
C27   H20   S    
C26   H16   S    
C30   N2    S    
H21   N8    S    
N1    N2    D    
C3    C5    A    
H17   N7    S    
C27   H19   S    
C28   N8    S    
C16   O6    A    
C7    C34   A    
C11   H27   S    
C28   H25   S    
C2    C34   A    
C21   H5    S    
C32   C33   A    
C30   C33   A    
N4    Zn1   S    
C12   H3    S    
C23   H30   S    
C11   C13   A    
C8    H12   S    
C17   N7    S    
O8    Zn2   S    
C9    H26   S    
C4    O3    A    
C2    C3    A    
C1    O2    A    
C14   N4    A    
H8    N5    S    
C12   C19   A    
C28   H22   S    
C27   H18   S    
C10   N3    A    
C5    C6    A    
C17   H31   S    
C29   H1    S    
C31   C32   A    
C1    C2    S    
C23   C30   A    
N3    Zn2   S    
C29   C31   A    
O1    Zn1   S    
C22   C24   A    
C23   C29   A    
C25   H11   S    
C20   H7    S    
O4    Zn2   S    
C19   C20   A    
C15   C17   S    
O3    Zn1   S    
C21   C22   A    
Br1   C13   S    
C15   H29   S    
C4    O4    A    
C18   O7    A    
C26   N6    S    
C26   H14   S    
C9    N6    S    
