data_mof_unit_65912.cif
_audit_creation_date              2013-03-05T16:29:46-0500
_audit_creation_method            fapswitch 2.2
_symmetry_space_group_name_H-M    P1
_symmetry_Int_Tables_number       1
_space_group_crystal_system       triclinic
_cell_length_a                    38.900498
_cell_length_b                    32.250183
_cell_length_c                    21.737129
_cell_angle_alpha                 90.00548
_cell_angle_beta                  124.038607
_cell_angle_gamma                 90.000162
_cell_volume                      22597.8025052

loop_
_atom_site_label
_atom_site_type_symbol
_atom_site_description
_atom_site_fract_x
_atom_site_fract_y
_atom_site_fract_z
_atom_type_partial_charge
O1    O     O_R   0.940150 0.034650 0.440170 -0.557558
O2    O     O_R   0.059850 0.034650 0.559830 -0.556400
O3    O     O_R   0.440150 0.534650 0.440170 -0.557456
O4    O     O_R   0.559850 0.534650 0.559830 -0.557486
O5    O     O_R   0.940170 0.965370 0.440140 -0.580797
O6    O     O_R   0.059830 0.965370 0.559860 -0.581066
O7    O     O_R   0.440170 0.465370 0.440140 -0.580710
O8    O     O_R   0.559830 0.465370 0.559860 -0.580688
C1    C     C_R   0.920430 0.999998 0.420738 0.809834
C2    C     C_R   0.079570 0.000005 0.579320 0.810033
C3    C     C_R   0.420430 0.499998 0.420741 0.810002
C4    C     C_R   0.579569 0.500000 0.579271 0.809917
O9    O     O_R   0.000000 0.034650 0.590170 -0.576577
O10   O     O_R   0.000000 0.034650 0.409830 -0.576027
O11   O     O_R   0.500000 0.534650 0.590170 -0.576671
O12   O     O_R   0.500000 0.534650 0.409830 -0.576613
O13   O     O_R   0.000010 0.965370 0.590140 -0.575883
O14   O     O_R   0.999990 0.965370 0.409860 -0.575594
O15   O     O_R   0.500010 0.465370 0.590140 -0.575476
O16   O     O_R   0.499990 0.465370 0.409860 -0.575541
C5    C     C_R   0.000852 0.000030 0.619920 0.783993
C6    C     C_R   0.999148 0.000025 0.380085 0.785086
C7    C     C_R   0.500855 0.500028 0.619918 0.784498
C8    C     C_R   0.499148 0.500024 0.380085 0.784645
Cu1   Cu    Cu3+1 0.000000 0.041020 0.500000 1.020293
Cu2   Cu    Cu3+1 0.500000 0.541020 0.500000 1.018794
Cu3   Cu    Cu3+1 0.000000 0.958990 0.500000 1.006930
Cu4   Cu    Cu3+1 0.500000 0.458990 0.500000 1.007117
H1    H     H_    0.132953 0.134795 0.747526 0.162644
H2    H     H_    0.865199 0.133008 0.250522 0.176552
H3    H     H_    0.634569 0.633256 0.749210 0.175878
H4    H     H_    0.365167 0.632981 0.250474 0.176531
C9    C     C_R   0.078129 0.128279 0.748409 -0.142494
C10   C     C_R   0.920300 0.127306 0.250295 -0.148238
C11   C     C_R   0.579556 0.627441 0.749688 -0.147916
C12   C     C_R   0.420274 0.627291 0.250263 -0.148480
H5    H     H_    0.074093 0.161333 0.750564 0.143027
H6    H     H_    0.923944 0.160420 0.247935 0.145197
H7    H     H_    0.575893 0.660545 0.752126 0.144942
H8    H     H_    0.423910 0.660407 0.247895 0.144901
C13   C     C_R   0.050291 0.100570 0.747802 -0.139270
C14   C     C_R   0.948567 0.100004 0.251383 -0.137879
C15   C     C_R   0.551349 0.600084 0.748674 -0.138786
C16   C     C_R   0.448549 0.599996 0.251364 -0.138625
H9    H     H_    0.024829 0.112499 0.749574 0.131124
H10   H     H_    0.973955 0.112304 0.249750 0.132414
H11   H     H_    0.525986 0.612333 0.750434 0.131716
H12   H     H_    0.473936 0.612302 0.249734 0.131717
C17   C     C_R   0.055237 0.057658 0.744549 0.121787
C18   C     C_R   0.944126 0.057016 0.254899 0.121509
C19   C     C_R   0.555812 0.557108 0.745057 0.121787
C20   C     C_R   0.444117 0.557007 0.254889 0.121863
C21   C     C_R   0.088691 0.042841 0.742970 -0.136903
C22   C     C_R   0.910752 0.041713 0.256263 -0.143326
C23   C     C_R   0.589154 0.541874 0.743524 -0.142265
C24   C     C_R   0.410745 0.541697 0.256249 -0.143157
H13   H     H_    0.093308 0.009827 0.741500 0.123560
H14   H     H_    0.906519 0.008631 0.257916 0.125909
H15   H     H_    0.593407 0.508802 0.741792 0.125615
H16   H     H_    0.406519 0.508613 0.257908 0.125884
C25   C     C_R   0.116675 0.070658 0.744312 -0.092032
C26   C     C_R   0.882331 0.069119 0.254394 -0.085769
C27   C     C_R   0.617512 0.569336 0.745303 -0.086190
C28   C     C_R   0.382315 0.569095 0.254366 -0.085847
H17   H     H_    0.142671 0.059149 0.743959 0.165363
H18   H     H_    0.856387 0.057222 0.254511 0.166785
H19   H     H_    0.643426 0.557497 0.745027 0.166499
H20   H     H_    0.356372 0.557193 0.254477 0.166774
C29   C     C_R   0.111300 0.113331 0.746670 -0.066292
C30   C     C_R   0.887198 0.111870 0.251782 -0.054986
C31   C     C_R   0.612620 0.612074 0.748017 -0.055751
C32   C     C_R   0.387172 0.611848 0.251745 -0.054875
C33   C     C_R   0.025123 0.027467 0.808636 -0.216675
C34   C     C_R   0.974645 0.027267 0.191178 -0.215323
C35   C     C_R   0.525337 0.527298 0.808815 -0.215795
C36   C     C_R   0.474645 0.527265 0.191177 -0.215847
H21   H     H_    0.044028 0.049035 0.853689 0.147632
H22   H     H_    0.955550 0.048672 0.145957 0.148218
H23   H     H_    0.544412 0.548722 0.854026 0.148176
H24   H     H_    0.455548 0.548669 0.145955 0.148212
C37   C     C_R   0.000015 0.998874 0.814238 -0.042987
C38   C     C_R   0.999985 0.998884 0.185781 -0.043364
C39   C     C_R   0.500019 0.498890 0.814224 -0.043547
C40   C     C_R   0.499984 0.498883 0.185780 -0.043554
C41   C     C_R   0.975932 0.970190 0.756822 0.063841
C42   C     C_R   0.024277 0.970372 0.243394 0.063914
C43   C     C_R   0.475752 0.470356 0.756626 0.063803
C44   C     C_R   0.524276 0.470370 0.243393 0.063869
C45   C     C_R   0.976829 0.971169 0.693713 -0.163359
C46   C     C_R   0.023398 0.971356 0.306522 -0.162305
C47   C     C_R   0.476633 0.471340 0.693502 -0.163440
C48   C     C_R   0.523398 0.471355 0.306522 -0.163534
H25   H     H_    0.958119 0.949258 0.649194 0.152871
H26   H     H_    0.042272 0.949589 0.351201 0.152947
H27   H     H_    0.457777 0.449555 0.648836 0.152719
H28   H     H_    0.542272 0.449588 0.351201 0.152606
C49   C     C_R   0.001710 0.999978 0.687697 -0.076629
C50   C     C_R   0.998291 0.999961 0.312321 -0.076185
C51   C     C_R   0.501716 0.499970 0.687687 -0.076412
C52   C     C_R   0.498291 0.499960 0.312321 -0.076373
C53   C     C_R   0.026405 0.028304 0.745853 0.010191
C54   C     C_R   0.973342 0.028063 0.253940 0.010989
C55   C     C_R   0.526642 0.528099 0.746053 0.010839
C56   C     C_R   0.473340 0.528061 0.253938 0.010819
C57   C     C_R   0.908494 0.944859 0.728090 -0.170874
C58   C     C_R   0.091830 0.945398 0.272169 -0.169459
C59   C     C_R   0.408211 0.445314 0.727823 -0.170697
C60   C     C_R   0.591828 0.445381 0.272179 -0.170656
H29   H     H_    0.894537 0.973296 0.697499 0.149235
H30   H     H_    0.105653 0.973897 0.302652 0.150718
H31   H     H_    0.394365 0.473795 0.697305 0.149226
H32   H     H_    0.605657 0.473874 0.302681 0.149217
C61   C     C_R   0.883702 0.915776 0.733304 -0.127697
C62   C     C_R   0.116745 0.916473 0.266966 -0.127435
C63   C     C_R   0.383315 0.416366 0.733030 -0.128066
C64   C     C_R   0.616738 0.416453 0.266970 -0.128220
H33   H     H_    0.850917 0.921677 0.706682 0.151270
H34   H     H_    0.149494 0.922553 0.293502 0.151991
H35   H     H_    0.350558 0.422409 0.706463 0.151292
H36   H     H_    0.649490 0.422524 0.293519 0.151182
C65   C     C_R   0.901110 0.879128 0.772778 -0.107181
C66   C     C_R   0.099504 0.879759 0.227589 -0.107306
C67   C     C_R   0.400585 0.379675 0.772449 -0.106811
C68   C     C_R   0.599489 0.379748 0.227569 -0.107247
H37   H     H_    0.881770 0.856552 0.776524 0.193046
H38   H     H_    0.118937 0.857313 0.223831 0.193061
H39   H     H_    0.381167 0.357210 0.776210 0.193096
H40   H     H_    0.618918 0.357299 0.223804 0.192883
C69   C     C_R   0.943358 0.871345 0.807039 -0.181601
C70   C     C_R   0.057304 0.871744 0.193440 -0.180531
C71   C     C_R   0.442795 0.371705 0.806637 -0.180568
C72   C     C_R   0.557286 0.371743 0.193404 -0.180755
H41   H     H_    0.955907 0.842358 0.836426 0.184752
H42   H     H_    0.044889 0.842711 0.164126 0.185187
H43   H     H_    0.455234 0.342689 0.835983 0.185164
H44   H     H_    0.544864 0.342717 0.164072 0.185057
C73   C     C_R   0.969058 0.900242 0.802651 0.312170
C74   C     C_R   0.031484 0.900470 0.197845 0.311779
C75   C     C_R   0.468596 0.400456 0.802230 0.311809
C76   C     C_R   0.531471 0.400472 0.197816 0.311889
C77   C     C_R   0.951108 0.937691 0.762727 -0.014091
C78   C     C_R   0.049259 0.938001 0.237628 -0.014273
C79   C     C_R   0.450792 0.437964 0.762402 -0.013580
C80   C     C_R   0.549254 0.437995 0.237622 -0.013531
H45   H     H_    0.788583 0.935357 0.302259 0.161812
H46   H     H_    0.211285 0.938675 0.742949 0.164282
H47   H     H_    0.288584 0.435362 0.302425 0.161932
H48   H     H_    0.711406 0.435284 0.698758 0.161955
C81   C     C_R   0.728521 0.963694 0.236268 -0.164561
C82   C     C_R   0.271405 0.965500 0.789075 -0.163738
C83   C     C_R   0.228521 0.463692 0.236375 -0.164659
C84   C     C_R   0.771472 0.463657 0.764300 -0.164583
H49   H     H_    0.712362 0.934408 0.224885 0.140888
H50   H     H_    0.287490 0.937521 0.819083 0.142616
H51   H     H_    0.212362 0.434408 0.225048 0.140784
H52   H     H_    0.787626 0.434338 0.776108 0.140727
C85   C     C_R   0.706271 0.000601 0.206913 0.083390
C86   C     C_R   0.293744 0.000581 0.793321 0.085631
C87   C     C_R   0.206270 0.500591 0.206942 0.083387
C88   C     C_R   0.793730 0.500609 0.793099 0.083492
C89   C     C_R   0.727584 0.038201 0.222018 -0.205552
C90   C     C_R   0.272535 0.036478 0.754128 -0.211358
C91   C     C_R   0.227583 0.538187 0.221980 -0.205485
C92   C     C_R   0.772424 0.538251 0.777456 -0.205610
H53   H     H_    0.710076 0.066688 0.199473 0.194959
H54   H     H_    0.290167 0.063579 0.758193 0.192470
H55   H     H_    0.210075 0.566669 0.199379 0.194966
H56   H     H_    0.789942 0.566767 0.799579 0.194960
C93   C     C_R   0.771261 0.039457 0.267063 0.335937
C94   C     C_R   0.228843 0.037935 0.710710 0.335068
C95   C     C_R   0.271259 0.539446 0.267028 0.335932
C96   C     C_R   0.728746 0.539502 0.732427 0.335654
C97   C     C_R   0.793537 0.001826 0.296217 0.022823
C98   C     C_R   0.206470 0.002088 0.706534 0.017773
C99   C     C_R   0.293537 0.501821 0.296252 0.022736
C100  C     C_R   0.706462 0.501824 0.703826 0.022676
C101  C     C_R   0.771868 0.964312 0.280463 -0.216294
C102  C     C_R   0.228064 0.966252 0.745880 -0.218521
C103  C     C_R   0.271868 0.464311 0.280572 -0.216115
C104  C     C_R   0.728126 0.464271 0.720118 -0.216099
C105  C     C_1   0.661499 0.000067 0.161749 -0.018429
C106  C     C_1   0.338512 0.999991 0.838281 -0.018729
C107  C     C_1   0.161499 0.500058 0.161765 -0.018614
C108  C     C_1   0.838501 0.500074 0.838255 -0.018612
C109  C     C_1   0.838377 0.000641 0.340257 0.019214
C110  C     C_1   0.161629 0.000785 0.661239 0.021167
C111  C     C_1   0.338377 0.500638 0.340282 0.019230
C112  C     C_1   0.661623 0.500640 0.659788 0.019437
C113  C     C_1   0.875839 0.000049 0.376987 -0.139711
C114  C     C_1   0.124164 0.000096 0.623708 -0.136747
C115  C     C_1   0.375839 0.500048 0.377002 -0.139723
C116  C     C_1   0.624161 0.500052 0.623044 -0.139638
C117  C     C_1   0.624030 0.999892 0.124108 -0.141467
C118  C     C_1   0.375978 0.999826 0.875881 -0.141488
C119  C     C_1   0.124030 0.499885 0.124113 -0.141605
C120  C     C_1   0.875970 0.499895 0.875893 -0.141611
O17   O     O_R   0.034640 0.940140 0.034570 -0.558169
O18   O     O_R   0.965360 0.940140 0.965430 -0.558064
O19   O     O_R   0.534640 0.440140 0.034570 -0.558080
O20   O     O_R   0.465360 0.440140 0.965430 -0.558191
C121  C     C_R   1.000000 0.920460 0.000007 0.823155
C122  C     C_R   0.499999 0.420460 0.999999 0.823333
O21   O     O_R   0.034650 0.999980 0.944430 -0.565149
O22   O     O_R   0.965350 0.999980 0.055570 -0.565211
O23   O     O_R   0.534650 0.499980 0.944430 -0.565063
O24   O     O_R   0.465350 0.499980 0.055570 -0.565162
O25   O     O_R   0.965370 1.000000 0.875180 -0.592357
O26   O     O_R   0.034630 1.000000 0.124820 -0.591966
O27   O     O_R   0.465370 0.500000 0.875180 -0.592309
O28   O     O_R   0.534630 0.500000 0.124820 -0.592287
C123  C     C_R   0.999976 0.999283 0.880938 0.794412
C124  C     C_R   0.000023 0.999297 0.119068 0.794635
C125  C     C_R   0.499978 0.499301 0.880933 0.794534
C126  C     C_R   0.500023 0.499297 0.119068 0.794541
Cu5   Cu    Cu3+1 0.041030 0.999980 0.040990 1.015961
Cu6   Cu    Cu3+1 0.958970 0.999980 0.959010 1.015526
Cu7   Cu    Cu3+1 0.541030 0.499980 0.040990 1.015497
Cu8   Cu    Cu3+1 0.458970 0.499980 0.959010 1.015284
O29   O     O_R   0.034650 0.059830 0.034650 -0.582022
O30   O     O_R   0.965350 0.059830 0.965350 -0.582301
O31   O     O_R   0.534650 0.559830 0.034650 -0.582263
O32   O     O_R   0.465350 0.559830 0.965350 -0.582283
C127  C     C_R   0.000001 0.079569 0.000000 0.810889
C128  C     C_R   0.500001 0.579569 0.000004 0.810874
O33   O     O_R   0.500020 0.940200 0.052240 -0.580299
O34   O     O_R   0.499980 0.940200 0.947760 -0.579791
O35   O     O_R   0.000020 0.440200 0.052240 -0.579780
O36   O     O_R   0.999980 0.440200 0.947760 -0.579952
C129  C     C_R   0.500004 0.920689 0.000003 0.807956
C130  C     C_R   1.000000 0.420689 0.999997 0.807788
O37   O     O_R   0.559850 0.000040 0.112000 -0.575329
O38   O     O_R   0.440150 0.000040 0.888000 -0.574599
O39   O     O_R   0.059850 0.500040 0.112000 -0.575233
O40   O     O_R   0.940150 0.500040 0.888000 -0.575339
O41   O     O_R   0.559860 0.999980 0.007620 -0.571718
O42   O     O_R   0.440140 0.999980 0.992380 -0.572499
O43   O     O_R   0.059860 0.499980 0.007620 -0.571744
O44   O     O_R   0.940140 0.499980 0.992380 -0.571634
C131  C     C_R   0.579412 0.999893 0.079399 0.816650
C132  C     C_R   0.420591 0.999868 0.920599 0.816953
C133  C     C_R   0.079412 0.499891 0.079400 0.816638
C134  C     C_R   0.920588 0.499894 0.920600 0.816612
Cu9   Cu    Cu3+1 0.500010 0.000050 0.061790 1.009676
Cu10  Cu    Cu3+1 0.499990 0.000050 0.938210 1.011788
Cu11  Cu    Cu3+1 0.000010 0.500050 0.061790 1.010990
Cu12  Cu    Cu3+1 0.999990 0.500050 0.938210 1.010603
O45   O     O_R   0.499990 0.059890 0.052110 -0.565462
O46   O     O_R   0.500010 0.059890 0.947890 -0.564899
O47   O     O_R   0.999990 0.559890 0.052110 -0.565200
O48   O     O_R   0.000010 0.559890 0.947890 -0.565273
C135  C     C_R   0.500000 0.079426 0.000003 0.814762
C136  C     C_R   0.000000 0.579425 0.000003 0.814699
C137  C     C_R   0.464502 0.228121 0.984409 0.217859
C138  C     C_R   0.535501 0.228124 0.015606 0.216929
C139  C     C_R   0.964513 0.728120 0.984475 0.216943
C140  C     C_R   0.035509 0.728123 0.015658 0.217095
C141  C     C_R   0.500002 0.206327 0.000010 -0.197786
C142  C     C_R   0.000009 0.706326 0.000054 -0.197795
C143  C     C_R   0.035462 0.771918 0.015391 0.217009
C144  C     C_R   0.964566 0.771915 0.984770 0.217357
C145  C     C_R   0.535450 0.271920 0.015324 0.217270
C146  C     C_R   0.464551 0.271917 0.984684 0.217587
C147  C     C_R   0.000014 0.793697 0.000078 -0.217943
C148  C     C_R   0.500000 0.293698 0.000003 -0.217731
C149  C     C_1   0.500002 0.161398 0.000011 0.180402
C150  C     C_1   0.000005 0.661397 0.000031 0.180001
C151  C     C_1   0.000009 0.838579 0.000059 0.188452
C152  C     C_1   0.499998 0.338580 1.000000 0.188988
C153  C     C_1   0.000002 0.875984 0.000033 -0.039731
C154  C     C_1   0.499997 0.375985 0.999998 -0.039749
C155  C     C_1   0.500002 0.123966 0.000009 -0.079506
C156  C     C_1   0.000002 0.623965 0.000015 -0.079654
H57   H     H_    0.933937 0.211081 0.922238 0.149181
H58   H     H_    0.066071 0.211094 0.077752 0.149376
H59   H     H_    0.433675 0.711092 0.925928 0.149136
H60   H     H_    0.566318 0.711084 0.074296 0.149210
C157  C     C_R   0.462088 0.771699 0.958130 0.000842
C158  C     C_R   0.537921 0.771694 0.042144 0.000804
C159  C     C_R   0.962220 0.271692 0.955929 0.000815
C160  C     C_R   0.037785 0.271700 0.044055 0.000790
C161  C     C_R   0.500009 0.793765 0.000117 0.054982
C162  C     C_R   0.000002 0.293765 0.999991 0.055010
C163  C     C_R   0.037251 0.228133 0.044028 -0.213871
C164  C     C_R   0.962756 0.228125 0.955960 -0.214004
C165  C     C_R   0.537396 0.728127 0.042127 -0.213990
C166  C     C_R   0.462603 0.728131 0.958078 -0.214070
C167  C     C_R   0.000004 0.206404 0.999995 0.115991
C168  C     C_R   0.499999 0.706404 0.000072 0.116042
C169  C     C_1   0.500014 0.838744 0.000069 -0.055562
C170  C     C_1   0.000001 0.338744 0.999991 -0.055516
C171  C     C_1   0.000005 0.161636 0.999998 -0.042794
C172  C     C_1   0.499998 0.661636 0.000042 -0.042990
C173  C     C_1   0.000004 0.124177 0.000000 -0.166841
C174  C     C_1   0.500001 0.624177 0.000023 -0.167090
C175  C     C_1   0.500011 0.876165 0.000024 -0.149769
C176  C     C_1   0.000001 0.376165 0.999992 -0.149766
N1    N     N_R   0.012545 0.890857 0.838318 0.116208
O49   O     O_R   0.034235 0.907982 0.816448 -0.328291
O50   O     O_R   0.029988 0.862200 0.889055 -0.320086
N2    N     N_R   0.988059 0.890830 0.162350 0.116281
O51   O     O_R   0.966315 0.907852 0.184199 -0.327647
O52   O     O_R   0.970753 0.862031 0.111851 -0.320495
N3    N     N_R   0.512033 0.390866 0.837769 0.116288
O53   O     O_R   0.533765 0.407884 0.815894 -0.327450
O54   O     O_R   0.529364 0.362111 0.888335 -0.320467
N4    N     N_R   0.488043 0.390843 0.162306 0.116147
O55   O     O_R   0.466303 0.407857 0.184172 -0.327765
O56   O     O_R   0.470730 0.362059 0.111780 -0.320823
N5    N     N_R   0.792048 0.078848 0.282128 0.107720
O57   O     O_R   0.773810 0.109613 0.236114 -0.340680
O58   O     O_R   0.827428 0.085525 0.344632 -0.360007
N6    N     N_R   0.208231 0.075649 0.671613 0.126917
O59   O     O_R   0.227398 0.102449 0.656222 -0.330386
O60   O     O_R   0.171812 0.085263 0.656622 -0.367954
N7    N     N_R   0.292046 0.578833 0.282028 0.107705
O61   O     O_R   0.273811 0.609572 0.235952 -0.340823
O62   O     O_R   0.327418 0.585535 0.344534 -0.359903
N8    N     N_R   0.707968 0.578934 0.716836 0.108142
O63   O     O_R   0.726286 0.609920 0.762286 -0.340107
O64   O     O_R   0.672497 0.585392 0.654392 -0.359741
N9    N     N_R   0.929005 0.794125 0.971793 0.190886
O65   O     O_R   0.912800 0.824159 0.923635 -0.349185
O66   O     O_R   0.912554 0.784224 0.007968 -0.230434
N10   N     N_R   0.071033 0.794131 0.028411 0.190832
O67   O     O_R   0.087228 0.824165 0.076584 -0.349182
O68   O     O_R   0.087508 0.784226 0.992276 -0.230823
N11   N     N_R   0.428982 0.294128 0.971670 0.190797
O69   O     O_R   0.412778 0.324147 0.923481 -0.349411
O70   O     O_R   0.412522 0.284240 0.007835 -0.231977
N12   N     N_R   0.571017 0.294134 0.028333 0.190849
O71   O     O_R   0.587220 0.324162 0.076517 -0.349339
O72   O     O_R   0.587477 0.284239 0.992169 -0.230342
N13   N     N_R   0.427851 0.205890 0.966017 0.166819
O73   O     O_R   0.430104 0.176288 0.008807 -0.324727
O74   O     O_R   0.391969 0.215449 0.906604 -0.278821
N14   N     N_R   0.572153 0.205896 0.034000 0.167079
O75   O     O_R   0.569901 0.176285 0.991216 -0.322729
O76   O     O_R   0.608035 0.215468 0.093408 -0.277836
N15   N     N_R   0.927862 0.705889 0.966084 0.167077
O77   O     O_R   0.930118 0.676277 0.008862 -0.322918
O78   O     O_R   0.891978 0.715457 0.906686 -0.277849
N16   N     N_R   0.072159 0.705893 0.034046 0.167085
O79   O     O_R   0.069906 0.676293 0.991244 -0.323134
O80   O     O_R   0.108040 0.715450 0.093471 -0.277730
C177  C     C_R   0.421540 0.793360 0.913675 0.112899
C178  C     C_R   0.394688 0.785672 0.837140 -0.148784
C179  C     C_R   0.356626 0.806314 0.795004 -0.115683
C180  C     C_R   0.344995 0.834592 0.828924 -0.102257
C181  C     C_R   0.371300 0.842101 0.905133 -0.136218
C182  C     C_R   0.409341 0.821465 0.947504 -0.129660
H61   H     H_    0.403421 0.764048 0.810026 0.133547
H62   H     H_    0.336181 0.800453 0.735995 0.140004
H63   H     H_    0.315569 0.850614 0.796204 0.129577
H64   H     H_    0.362186 0.863874 0.931407 0.136239
H65   H     H_    0.429233 0.827329 0.006631 0.135994
C183  C     C_R   0.578466 0.793344 0.086828 0.112977
C184  C     C_R   0.605188 0.785631 0.163377 -0.148447
C185  C     C_R   0.643246 0.806262 0.205751 -0.116798
C186  C     C_R   0.655004 0.834554 0.172060 -0.103303
C187  C     C_R   0.628829 0.842092 0.095842 -0.134104
C188  C     C_R   0.590790 0.821467 0.053231 -0.130696
H66   H     H_    0.596354 0.763995 0.190316 0.133392
H67   H     H_    0.663589 0.800379 0.264767 0.139313
H68   H     H_    0.684431 0.850559 0.204967 0.125878
H69   H     H_    0.638042 0.863877 0.069744 0.139209
H70   H     H_    0.571000 0.827353 0.994103 0.136371
C189  C     C_R   0.921806 0.293342 0.909146 0.113180
C190  C     C_R   0.896338 0.285612 0.832431 -0.148683
C191  C     C_R   0.858407 0.306231 0.788111 -0.116207
C192  C     C_R   0.845526 0.334530 0.820000 -0.102981
C193  C     C_R   0.870443 0.342086 0.896348 -0.134916
C194  C     C_R   0.908346 0.321471 0.940898 -0.130185
H71   H     H_    0.906054 0.263969 0.806887 0.133184
H72   H     H_    0.839036 0.300333 0.728988 0.139403
H73   H     H_    0.816202 0.350527 0.785592 0.126027
H74   H     H_    0.860358 0.363878 0.921041 0.138388
H75   H     H_    0.927145 0.327369 0.000088 0.136226
C195  C     C_R   0.078198 0.293358 0.090841 0.112863
C196  C     C_R   0.103664 0.285639 0.167556 -0.148042
C197  C     C_R   0.141593 0.306267 0.211880 -0.115491
C198  C     C_R   0.154475 0.334563 0.179993 -0.103277
C199  C     C_R   0.129560 0.342108 0.103644 -0.135249
C200  C     C_R   0.091659 0.321484 0.059091 -0.130663
H76   H     H_    0.093948 0.263999 0.193099 0.134129
H77   H     H_    0.160963 0.300378 0.271003 0.140420
H78   H     H_    0.183798 0.350565 0.214402 0.126146
H79   H     H_    0.139646 0.363896 0.078953 0.138280
H80   H     H_    0.072861 0.327373 0.999901 0.135978

loop_
_geom_bond_atom_site_label_1
_geom_bond_atom_site_label_2
_geom_bond_distance
_ccdc_geom_bond_type
C51   C55   1.412563 A    
C184  C185  1.398644 A    
C43   C47   1.391977 A    
O20   Cu8   1.940826 S    
C143  N10   1.438574 S    
C10   C14   1.398501 A    
O18   Cu6   1.940826 S    
N3    O54   1.301260 A    
N13   O73   1.301210 A    
C147  C151  1.447437 S    
O21   Cu5   1.970774 S    
C23   H15   1.083197 S    
C187  H69   1.082394 S    
O48   C136  1.296338 A    
C140  C143  1.412422 A    
C52   C56   1.412508 A    
C26   C30   1.397146 A    
C129  C175  1.435894 S    
C81   H49   1.083644 S    
C117  C131  1.438278 S    
C157  C161  1.417086 A    
C84   H52   1.083650 S    
C138  C145  1.412427 A    
N10   O67   1.301103 A    
C189  C194  1.406394 A    
C106  C118  1.207744 T    
C83   H51   1.083664 S    
O4    C4    1.285673 A    
C64   C68   1.393374 A    
C9    C29   1.397646 A    
C96   N8    1.441787 S    
O24   C126  1.280898 A    
C33   C53   1.393494 A    
C11   C31   1.397716 A    
Cu11  Cu12  2.685841 S    
C35   C55   1.393559 A    
C70   H42   1.082258 S    
C1    C113  1.437554 S    
C33   C37   1.397239 A    
C190  C191  1.398653 A    
C58   C78   1.403948 A    
H1    C29   1.082341 S    
H60   C165  1.084530 S    
C164  C167  1.397810 A    
Cu7   O31   1.941113 S    
C4    C116  1.437541 S    
C63   C67   1.393374 A    
N12   O71   1.301104 A    
C92   H56   1.083719 S    
C141  C149  1.448968 S    
C42   C46   1.392002 A    
N16   O79   1.301217 A    
O16   Cu4   1.969959 S    
C50   C54   1.412512 A    
O27   C125  1.280653 A    
O7    Cu4   1.939598 S    
C84   C104  1.397512 A    
O15   C7    1.282747 A    
Cu5   Cu6   2.645234 S    
C5    C49   1.454842 S    
C83   C103  1.397550 A    
N3    O53   1.300797 A    
O26   C124  1.280638 A    
O22   C124  1.280901 A    
C160  C195  1.484433 S    
N4    O55   1.300798 A    
O9    C5    1.281413 A    
C69   H41   1.082245 S    
C37   C123  1.450779 S    
C27   C31   1.397141 A    
C198  C199  1.397220 A    
O8    Cu4   1.939567 S    
C12   C16   1.398502 A    
O33   Cu9   1.941308 S    
C74   N2    1.444425 S    
C70   C74   1.408526 A    
C168  C172  1.443770 S    
C67   H39   1.082278 S    
C60   C80   1.403948 A    
N2    O51   1.300798 A    
C94   C98   1.419051 A    
C8    C52   1.454602 S    
O3    Cu2   1.940178 S    
C40   C44   1.407915 A    
N14   O75   1.301215 A    
C146  C148  1.411323 A    
C167  C171  1.443770 S    
C143  C147  1.411337 A    
C172  C174  1.208060 T    
C166  C168  1.397836 A    
O39   Cu11  1.940529 S    
C196  H76   1.083151 S    
C144  N9    1.438572 S    
C17   C21   1.404671 A    
C127  C173  1.438623 S    
O44   Cu11  1.940797 S    
O25   Cu6   1.972400 S    
C19   C23   1.404674 A    
C122  C154  1.434330 S    
O3    C3    1.285659 A    
C191  H72   1.082330 S    
C25   H17   1.081269 S    
C69   C73   1.408506 A    
O20   C122  1.284414 A    
C193  H74   1.082406 S    
C140  N16   1.438204 S    
C186  C187  1.397236 A    
C33   H21   1.085041 S    
C118  C132  1.438118 S    
C195  C196  1.405296 A    
C15   H11   1.083169 S    
C89   H53   1.083723 S    
Cu9   Cu10  2.685841 S    
C197  C198  1.397598 A    
C76   N4    1.444420 S    
C188  H70   1.083043 S    
C181  C182  1.398344 A    
C6    C50   1.454602 S    
C158  C165  1.405189 A    
C73   N1    1.444362 S    
C15   C19   1.404472 A    
C192  C193  1.397221 A    
C178  H61   1.083146 S    
O5    C1    1.285384 A    
C97   C109  1.446052 S    
C183  C188  1.406359 A    
C169  C175  1.206828 T    
C170  C176  1.206831 T    
C28   H20   1.081022 S    
C57   C61   1.394641 A    
C171  C173  1.208063 T    
O36   Cu12  1.941348 S    
C48   H28   1.084853 S    
N6    O59   1.301609 A    
C68   C72   1.395856 A    
C145  N12   1.438569 S    
C200  H80   1.083041 S    
C180  C181  1.397204 A    
N8    O64   1.301175 A    
C179  H62   1.082328 S    
O5    Cu3   1.939598 S    
C75   C79   1.421729 A    
C198  H78   1.082445 S    
C162  C170  1.450591 S    
C44   C80   1.478636 S    
C140  C142  1.411330 A    
O19   C122  1.284396 A    
C24   C28   1.398175 A    
C186  H68   1.082439 S    
C11   C15   1.398495 A    
C75   N3    1.444412 S    
O8    C4    1.285358 A    
C89   C93   1.408792 A    
C16   C20   1.404452 A    
H3    C31   1.082389 S    
O25   C123  1.280562 A    
N1    O50   1.301259 A    
O21   C123  1.280845 A    
C187  C188  1.398365 A    
C38   C124  1.451040 S    
N5    O58   1.301189 A    
C146  N11   1.438564 S    
C158  C183  1.484382 S    
C194  H75   1.083043 S    
C26   H18   1.081029 S    
O13   Cu3   1.969922 S    
C41   C77   1.478609 S    
N11   O70   1.301232 A    
C138  C141  1.411345 A    
Cu7   Cu8   2.645234 S    
C66   C70   1.395855 A    
C64   H36   1.082330 S    
C83   C87   1.398162 A    
C65   H37   1.082273 S    
H47   C103  1.083707 S    
N4    O56   1.301261 A    
C95   N7    1.441674 S    
C72   H44   1.082256 S    
C121  C153  1.434340 S    
O32   C128  1.285606 A    
O15   Cu4   1.969922 S    
O40   C134  1.298057 A    
C61   H33   1.082328 S    
C14   C18   1.404452 A    
N9    O65   1.301102 A    
O26   Cu5   1.972400 S    
C63   H35   1.082331 S    
C92   C96   1.408854 A    
C142  C150  1.448959 S    
C105  C117  1.207846 T    
Cu11  O47   1.941261 S    
C139  C144  1.412420 A    
O47   C136  1.296330 A    
C13   H9    1.083177 S    
O14   C6    1.282747 A    
H57   C164  1.084529 S    
C59   H31   1.083481 S    
H58   C163  1.084530 S    
C36   H24   1.085024 S    
C145  C148  1.411320 A    
C109  C113  1.207881 T    
O45   C135  1.296342 A    
O22   Cu6   1.970777 S    
C68   H40   1.082278 S    
C112  C116  1.207876 T    
O10   C6    1.281397 A    
C93   N5    1.441683 S    
C35   H23   1.085026 S    
C182  H65   1.083046 S    
C137  N13   1.438209 S    
C3    C115  1.437564 S    
C45   H25   1.084852 S    
C71   C75   1.408514 A    
C99   C111  1.446060 S    
C16   H12   1.083170 S    
C100  C104  1.402957 A    
C24   H16   1.083204 S    
N10   O68   1.301246 A    
C93   C97   1.418024 A    
C47   C51   1.399529 A    
C181  H64   1.082411 S    
O30   C127  1.285620 A    
C37   C41   1.407792 A    
C12   C32   1.397726 A    
C36   C56   1.393511 A    
C39   C43   1.407883 A    
C199  C200  1.398366 A    
O19   Cu7   1.940799 S    
C160  C163  1.405209 A    
C36   C40   1.397397 A    
O36   C130  1.297855 A    
C196  C197  1.398653 A    
H4    C32   1.082389 S    
C18   C22   1.404620 A    
O28   Cu7   1.972400 S    
N12   O72   1.301241 A    
C88   C92   1.400290 A    
O42   Cu9   1.940797 S    
C139  N15   1.438216 S    
O31   C128  1.285642 A    
C17   C53   1.480034 S    
N16   O80   1.301255 A    
C19   C55   1.480147 S    
C193  C194  1.398365 A    
C14   H10   1.083166 S    
C13   C17   1.404469 A    
C195  C200  1.406395 A    
C45   C49   1.399596 A    
C57   H29   1.083482 S    
C90   H54   1.083683 S    
C158  C161  1.417073 A    
C107  C119  1.207843 T    
C100  C112  1.446050 S    
C87   C91   1.400291 A    
C91   C95   1.408783 A    
C98   C102  1.403103 A    
C192  H73   1.082444 S    
C34   C54   1.393510 A    
C119  C133  1.438275 S    
C139  C142  1.411327 A    
O23   C125  1.280874 A    
N7    O61   1.301508 A    
H48   C104  1.083708 S    
C85   C105  1.443341 S    
C34   C38   1.397402 A    
C144  C147  1.411340 A    
H2    C30   1.082389 S    
N2    O52   1.301258 A    
C46   H26   1.084857 S    
N13   O74   1.301251 A    
O12   Cu2   1.970756 S    
C163  C167  1.397812 A    
Cu6   O30   1.941086 S    
O1    C1    1.285652 A    
N14   O76   1.301255 A    
C74   C78   1.421742 A    
C179  C180  1.397627 A    
C41   C45   1.391991 A    
C22   C26   1.398184 A    
C94   N6    1.442881 S    
C38   C42   1.407913 A    
O33   C129  1.297802 A    
Cu10  O46   1.941221 S    
C120  C134  1.438278 S    
C11   H7    1.082304 S    
Cu5   O29   1.941113 S    
O35   Cu11  1.941308 S    
N15   O77   1.301211 A    
C90   C94   1.409236 A    
O23   Cu7   1.970774 S    
C159  C164  1.405209 A    
C18   C54   1.480042 S    
Cu9   O45   1.941261 S    
C85   C89   1.400291 A    
C42   C78   1.478634 S    
C9    H5    1.082309 S    
C73   C77   1.421678 A    
C20   C56   1.480037 S    
C21   H13   1.083204 S    
C82   C86   1.397817 A    
C67   C71   1.395855 A    
O38   Cu10  1.940529 S    
O41   C131  1.297856 A    
C76   C80   1.421741 A    
C65   C69   1.395851 A    
O6    C2    1.285492 A    
O4    Cu2   1.940202 S    
O43   C133  1.297870 A    
C72   C76   1.408524 A    
C159  C189  1.484436 S    
C9    C13   1.398365 A    
C60   C64   1.394648 A    
Cu12  O48   1.941221 S    
C149  C155  1.207192 T    
N11   O69   1.301106 A    
C150  C156  1.207186 T    
O40   Cu12  1.940529 S    
C151  C153  1.206334 T    
C35   C39   1.397418 A    
N6    O60   1.300994 A    
O43   Cu12  1.940800 S    
O2    Cu1   1.940202 S    
O10   Cu1   1.970756 S    
O13   C5    1.282860 A    
O41   Cu10  1.940800 S    
O29   C127  1.285628 A    
C60   H32   1.083483 S    
C34   H22   1.085024 S    
H59   C166  1.084526 S    
C81   C85   1.398155 A    
C137  C146  1.412419 A    
C7    C51   1.454615 S    
C84   C88   1.398131 A    
C110  C114  1.207902 T    
C10   C30   1.397727 A    
N1    O49   1.300796 A    
C189  C190  1.405295 A    
C157  C177  1.484427 S    
N5    O57   1.301510 A    
O24   Cu8   1.970777 S    
O7    C3    1.285380 A    
H46   C102  1.083739 S    
C2    C114  1.437530 S    
C58   C62   1.394645 A    
O27   Cu8   1.972400 S    
C199  H79   1.082409 S    
C160  C162  1.417098 A    
C165  C168  1.397810 A    
C71   H43   1.082255 S    
C57   C77   1.403956 A    
C190  H71   1.083152 S    
C177  C182  1.406401 A    
O37   C131  1.298066 A    
C159  C162  1.417097 A    
C108  C120  1.207828 T    
O34   Cu10  1.941348 S    
O16   C8    1.282742 A    
C138  N14   1.438206 S    
N9    O66   1.301232 A    
C130  C176  1.435891 S    
O17   C121  1.284380 A    
C111  C115  1.207887 T    
O17   Cu5   1.940799 S    
O46   C135  1.296332 A    
C82   C102  1.397340 A    
O11   C7    1.281407 A    
O12   C8    1.281403 A    
O1    Cu1   1.940178 S    
O9    Cu1   1.970793 S    
C21   C25   1.398249 A    
C39   C125  1.451026 S    
C40   C126  1.451040 S    
C180  H63   1.082473 S    
Cu8   O32   1.941086 S    
C27   H19   1.081070 S    
N7    O62   1.301190 A    
C44   C48   1.392004 A    
C12   H8    1.082304 S    
C135  C155  1.436430 S    
C136  C156  1.436420 S    
O11   Cu2   1.970793 S    
C99   C103  1.402964 A    
O28   C126  1.280640 A    
C95   C99   1.418014 A    
O42   C132  1.297901 A    
C23   C27   1.398234 A    
C66   H38   1.082276 S    
C91   H55   1.083725 S    
N8    O63   1.301573 A    
C137  C141  1.411332 A    
O6    Cu3   1.939567 S    
C97   C101  1.402957 A    
C148  C152  1.447427 S    
O18   C121  1.284437 A    
C81   C101  1.397536 A    
C61   C65   1.393363 A    
C185  H67   1.082328 S    
C86   C106  1.443214 S    
C59   C63   1.394646 A    
C62   H34   1.082330 S    
O39   C133  1.298049 A    
N15   O78   1.301249 A    
C128  C174  1.438623 S    
O2    C2    1.285539 A    
C48   C52   1.399521 A    
C191  C192  1.397595 A    
C22   H14   1.083201 S    
C25   C29   1.397250 A    
C184  H66   1.083154 S    
C10   H6    1.082305 S    
O14   Cu3   1.969959 S    
C152  C154  1.206328 T    
Cu1   Cu3   2.645479 S    
O34   C129  1.297904 A    
C157  C166  1.405219 A    
O44   C134  1.297860 A    
Cu2   Cu4   2.645479 S    
C43   C79   1.478635 S    
C98   C110  1.446075 S    
C178  C179  1.398676 A    
C183  C184  1.405298 A    
C46   C50   1.399511 A    
C197  H77   1.082328 S    
C28   C32   1.397147 A    
C185  C186  1.397581 A    
C86   C90   1.400005 A    
C62   C66   1.393373 A    
C96   C100  1.418089 A    
O37   Cu9   1.940529 S    
O35   C130  1.297848 A    
C47   H27   1.084859 S    
C58   H30   1.083484 S    
C82   H50   1.083688 S    
H45   C101  1.083705 S    
O38   C132  1.297940 A    
C87   C107  1.443336 S    
C177  C178  1.405283 A    
C59   C79   1.403950 A    
C88   C108  1.443343 S    
C49   C53   1.412683 A    
C20   C24   1.404616 A    
C161  C169  1.450601 S    
