data_mof_unit_6339.cif
_audit_creation_date              2012-12-11T18:11:08-0500
_audit_creation_method            fapswitch 2.2
_symmetry_space_group_name_H-M    P1
_symmetry_Int_Tables_number       1
_space_group_crystal_system       triclinic
_cell_length_a                    8.198442
_cell_length_b                    12.764791
_cell_length_c                    18.705037
_cell_angle_alpha                 99.110421
_cell_angle_beta                  90.918907
_cell_angle_gamma                 98.812269
_cell_volume                      1908.36929993

loop_
_atom_site_label
_atom_site_type_symbol
_atom_type_description
_atom_site_fract_x
_atom_site_fract_y
_atom_site_fract_z
_atom_type_partial_charge
Ba1   Ba    Ba6+2 0.852780 0.548340 0.465070 1.647873
Ba2   Ba    Ba6+2 0.337060 0.451750 0.534940 1.680420
C1    C     C_3   0.699906 0.884186 0.200314 -0.359176
C2    C     C_3   0.636328 0.804040 0.249581 0.308476
C3    C     C_3   0.462320 0.294201 0.316374 0.304313
C4    C     C_3   0.450321 0.266354 0.234029 -0.386009
C5    C     C_3   0.993667 0.163061 0.728959 0.554247
C6    C     C_3   0.912881 0.054102 0.745267 -0.390121
C7    C     C_3   0.563850 0.195098 0.745201 0.324750
C8    C     C_3   0.488100 0.096080 0.776304 0.013854
C9    C     C_R   0.989330 0.450503 0.048995 0.017316
C10   C     C_R   0.897596 0.390414 0.096402 -0.076023
C11   C     C_R   0.759234 0.419669 0.956346 -0.066175
C12   C     C_3   0.121529 0.748798 0.262825 0.410985
C13   C     C_R   0.925623 0.458565 0.978969 0.028002
C14   C     C_R   0.702182 0.419636 0.885975 -0.080003
C15   C     C_R   0.808208 0.458247 0.834758 -0.031999
C16   C     C_R   0.970649 0.508844 0.857749 0.037485
C17   C     C_R   0.029691 0.509350 0.930225 0.046408
C18   C     C_R   0.757275 0.447149 0.761089 -0.047007
C19   C     C_R   0.867151 0.486238 0.711530 -0.267186
C20   C     C_R   0.022299 0.545123 0.733846 0.052617
C21   C     C_R   0.074605 0.557737 0.808109 -0.020453
C22   C     C_R   0.152804 0.499825 0.071542 0.030210
C23   C     C_3   0.122370 0.775443 0.186250 -0.371607
C24   C     C_R   0.212724 0.498783 0.143659 0.001537
C25   C     C_R   0.110293 0.447726 0.192807 -0.046034
C26   C     C_R   0.957955 0.387829 0.166036 -0.019318
C27   C     C_R   0.227412 0.617244 0.834534 -0.023430
C28   C     C_R   0.286277 0.616797 0.904697 -0.081422
C29   C     C_R   0.193297 0.558526 0.952712 0.024547
C30   C     C_R   0.256719 0.550917 0.022868 0.030207
C31   C     C_R   0.423243 0.589488 0.045376 -0.096309
C32   C     C_R   0.375713 0.548235 0.166426 -0.029730
C33   C     C_R   0.481092 0.587827 0.115312 -0.104111
C34   C     C_3   0.233436 0.781918 0.614371 0.290336
C35   C     C_R   0.428172 0.556563 0.239698 -0.016911
C36   C     C_R   0.319600 0.516153 0.289111 -0.289854
C37   C     C_R   0.164376 0.457943 0.266761 0.036864
C38   C     C_R   0.760572 0.180252 0.526314 -0.271575
C39   C     C_R   0.430713 0.804891 0.466730 -0.348811
C40   C     C_R   0.413599 0.975932 0.430363 0.352758
C41   C     C_R   0.342978 0.870579 0.433723 -0.045097
C42   C     C_R   0.579244 0.846695 0.506131 0.077574
C43   C     C_R   0.643691 0.958277 0.511327 -0.085644
C44   C     C_R   0.558207 0.024546 0.473737 -0.104073
C45   C     C_3   0.275296 0.903614 0.628314 -0.376434
C46   C     C_R   0.619215 0.136812 0.482449 0.059261
C47   C     C_R   0.852919 0.115003 0.556958 -0.046161
C48   C     C_R   0.793069 0.005137 0.551110 -0.085802
C49   C     C_3   0.960793 0.212403 0.379540 0.292661
C50   C     C_3   0.929250 0.090568 0.360765 -0.338604
C51   C     C_3   0.728609 0.707780 0.682976 0.310507
C52   C     C_3   0.741454 0.743527 0.764707 -0.384764
H1    H     H_    0.637141 0.846054 0.306391 0.011559
H2    H     H_    0.397143 0.927859 0.657473 0.098049
H3    H     H_    0.281215 0.935398 0.576560 0.085739
H4    H     H_    0.178915 0.938616 0.660710 0.141543
H5    H     H_    0.848180 0.241314 0.400451 -0.009956
H6    H     H_    0.061957 0.236272 0.421538 0.081930
H7    H     H_    0.818639 0.064690 0.323767 0.085054
H8    H     H_    0.908426 0.054172 0.410346 0.099001
H9    H     H_    0.037201 0.061483 0.333784 0.169870
H10   H     H_    0.849061 0.687902 0.664316 0.001032
H11   H     H_    0.632044 0.635620 0.670427 0.065844
H12   H     H_    0.615986 0.944275 0.199281 0.060305
H13   H     H_    0.841623 0.813318 0.779083 0.129411
H14   H     H_    0.769239 0.677304 0.792361 0.049758
H15   H     H_    0.622715 0.766893 0.784090 0.131414
H16   H     H_    0.508147 0.768666 0.230180 -0.034804
H17   H     H_    0.705947 0.841367 0.144120 0.115580
H18   H     H_    0.339736 0.307596 0.336361 0.012107
H19   H     H_    0.553771 0.368432 0.331765 0.072648
H20   H     H_    0.352556 0.195988 0.216840 0.115324
H21   H     H_    0.419586 0.334689 0.209595 0.070550
H22   H     H_    0.570309 0.247006 0.213409 0.125673
H23   H     H_    0.825412 0.926096 0.219444 0.137451
H24   H     H_    0.167363 0.711396 0.148419 0.072651
H25   H     H_    0.899908 0.207906 0.710168 -0.129782
H26   H     H_    0.008561 0.005888 0.757475 0.138433
H27   H     H_    0.835677 0.065011 0.793181 0.130060
H28   H     H_    0.832987 0.009425 0.698720 0.079230
H29   H     H_    0.681183 0.229757 0.776256 -0.000412
H30   H     H_    0.587502 0.170642 0.686973 -0.041863
H31   H     H_    0.555117 0.028251 0.757928 0.024133
H32   H     H_    0.356541 0.071856 0.757802 0.138325
H33   H     H_    0.031702 0.674683 0.263927 0.097238
H34   H     H_    0.827297 0.476325 0.655111 0.061545
H35   H     H_    0.574003 0.387190 0.872216 0.139394
H36   H     H_    0.881503 0.339210 0.198732 0.103592
H37   H     H_    0.305441 0.663785 0.801158 0.097357
H38   H     H_    0.609718 0.619142 0.128604 0.101848
H39   H     H_    0.360980 0.523902 0.345189 0.068832
H40   H     H_    0.668699 0.389280 0.992211 0.097862
H41   H     H_    0.778823 0.342334 0.080751 0.080306
H42   H     H_    0.405408 0.664535 0.920018 0.063218
H43   H     H_    0.246445 0.732565 0.276803 -0.122016
H44   H     H_    0.513695 0.620387 0.009683 0.068853
H45   H     H_    0.867260 0.957550 0.576465 0.099760
H46   H     H_    0.806344 0.265480 0.532272 0.052801
H47   H     H_    0.377701 0.721545 0.465270 0.083474
H48   H     H_    0.996078 0.782381 0.167633 0.142903
H49   H     H_    0.205090 0.852288 0.184427 0.098511
H50   H     H_    0.341804 0.747504 0.593148 0.010274
H51   H     H_    0.129453 0.758776 0.573690 0.080937
O1    O     O_2   0.873090 0.425890 0.325140 -0.459541
O2    O     O_3   0.687847 0.792218 0.650401 -0.641444
O3    O     O_3   0.076728 0.835337 0.310957 -0.577028
O4    O     O_2   0.316610 0.574140 0.674900 -0.459162
O5    O     O_3   0.067290 0.565720 0.585630 -0.504951
O6    O     O_3   0.530210 0.372990 0.631200 -0.466520
O7    O     O_3   0.191205 0.745872 0.679419 -0.639751
O8    O     O_3   0.611340 0.366290 0.463630 -0.491795
O9    O     O_3   0.108550 0.314140 0.595200 -0.458109
O10   O     O_2   0.189291 0.122459 0.545868 -0.459429
O11   O     O_3   0.120596 0.149246 0.680276 -0.572691
O12   O     O_3   0.122420 0.434370 0.414380 -0.503953
O13   O     O_3   0.578370 0.633800 0.536380 -0.490839
O14   O     O_2   0.341510 0.231850 0.465510 -0.428950
O15   O     O_3   0.512533 0.207944 0.343772 -0.630979
O16   O     O_2   0.428632 0.467190 0.754856 -0.458476
O17   O     O_3   0.452879 0.268822 0.752214 -0.527767
O18   O     O_3   0.659500 0.627100 0.368810 -0.466634
O19   O     O_2   0.749563 0.526897 0.244926 -0.491744
O20   O     O_3   0.002316 0.254413 0.316658 -0.640920
O21   O     O_3   0.741563 0.726838 0.245615 -0.586076
O22   O     O_2   0.848200 0.768190 0.534530 -0.479819
O23   O     O_3   0.081160 0.685950 0.404810 -0.493961
O24   O     O_2   0.004559 0.877393 0.447268 -0.468870
P1    P     P_3+3 0.041040 0.394770 0.336330 0.966001
P2    P     P_3+3 0.672880 0.754030 0.556100 0.972324
P3    P     P_3+3 0.127762 0.820537 0.399709 1.009375
P4    P     P_3+3 0.148670 0.605320 0.663680 0.973375
P5    P     P_3+3 0.063590 0.174467 0.594615 0.989572
P6    P     P_3+3 0.641137 0.610923 0.274443 0.941425
P7    P     P_3+3 0.522293 0.232793 0.438429 1.009542
P8    P     P_3+3 0.545677 0.388382 0.725577 0.998309
I1    I     I_    0.100653 0.254834 0.828472 -0.386552
I2    I     I_    0.502581 0.125984 0.892230 -0.446042
O25   O     O_3   0.339923 0.028559 0.382967 -0.630567
C53   C     C_3   0.394182 0.995290 0.312842 0.244299
H52   H     H_    0.371606 0.907535 0.296552 -0.039657
H53   H     H_    0.528629 0.022186 0.309813 0.026224
H54   H     H_    0.326872 0.030389 0.273013 0.075867

loop_
_geom_bond_atom_site_label_1
_geom_bond_atom_site_label_2
_ccdc_geom_bond_type
C5    O11   S    
C47   P5    S    
Ba2   O4    S    
C32   C35   A    
Ba1   O23   S    
O7    P4    S    
C17   C29   A    
C2    H16   S    
Ba2   O13   S    
C5    C6    S    
C8    H31   S    
C43   C44   A    
C42   P2    S    
C13   C17   A    
C24   C25   A    
C35   C36   A    
C10   C26   A    
C6    H28   S    
C21   C27   A    
C41   P3    S    
C22   C24   A    
C12   H33   S    
C16   C17   A    
C3    H18   S    
C50   H7    S    
C53   H53   S    
C36   C37   A    
C51   H10   S    
C23   H48   S    
C52   H14   S    
C38   C47   A    
C9    C22   A    
C15   C18   A    
C34   C45   S    
C15   C16   A    
C32   C33   A    
C40   C44   A    
O16   P8    D    
C6    H27   S    
C28   H42   S    
O13   P2    S    
C31   C33   A    
C9    C13   A    
O20   P1    S    
C24   C32   A    
Ba2   O5    S    
C31   H44   S    
C25   C37   A    
C14   C15   A    
O8    P7    S    
C34   O7    S    
Ba1   O18   S    
C35   P6    S    
C10   H41   S    
C51   H11   S    
C7    C8    S    
Ba1   O1    S    
O24   P3    D    
C33   H38   S    
C12   O3    S    
C19   H34   S    
C14   H35   S    
C19   C20   A    
C39   C41   A    
Ba1   O8    S    
O23   P3    S    
Ba2   O12   S    
C4    H20   S    
O9    P5    S    
C44   C46   A    
Ba2   O6    S    
Ba2   P4    S    
C20   P4    S    
O4    P4    D    
C16   C21   A    
C49   O20   S    
C4    H21   S    
O25   C53   S    
O2    P2    S    
Ba1   P1    S    
C53   H54   S    
O1    P1    D    
C23   H49   S    
C52   H13   S    
C3    O15   S    
C51   C52   S    
C40   O25   S    
C23   H24   S    
O18   P6    S    
O15   P7    S    
C18   P8    S    
C1    H17   S    
C22   C30   A    
C27   C28   A    
Ba1   O5    S    
C45   H3    S    
C51   O2    S    
C29   C30   A    
C28   C29   A    
Ba2   O14   S    
C7    O17   S    
C48   H45   S    
Ba1   O12   S    
O12   P1    S    
C7    H29   S    
O10   P5    D    
O21   P6    S    
C11   C13   A    
C2    H1    S    
C39   C42   A    
C1    H12   S    
C49   H5    S    
C8    I2    S    
C1    C2    S    
C1    H23   S    
C27   H37   S    
C42   C43   A    
O6    P8    S    
C12   H43   S    
C5    H25   S    
C38   C46   A    
C8    H32   S    
O19   P6    D    
C34   H51   S    
C46   P7    S    
Ba1   O22   S    
O17   P8    S    
Ba1   P2    S    
C50   H9    S    
C38   H46   S    
C5    I1    S    
C9    C10   A    
C4    H22   S    
C37   P1    S    
O14   P7    D    
C2    O21   S    
C11   H40   S    
C34   H50   S    
C30   C31   A    
C49   C50   S    
C50   H8    S    
C53   H52   S    
C45   H4    S    
Ba2   O9    S    
C3    C4    S    
C52   H15   S    
C43   C48   A    
Ba1   Ba2   S    
C36   H39   S    
Ba2   O8    S    
C39   H47   S    
Ba1   O13   S    
C12   C23   S    
C3    H19   S    
O22   P2    D    
O3    P3    S    
C7    H30   S    
O11   P5    S    
C18   C19   A    
C47   C48   A    
C40   C41   A    
C11   C14   A    
C25   C26   A    
C6    H26   S    
C20   C21   A    
O5    P4    S    
C26   H36   S    
C49   H6    S    
C45   H2    S    
