data_mof_unit_39654.cif
_audit_creation_date              2012-12-10T17:00:00-0500
_audit_creation_method            fapswitch 2.2
_symmetry_space_group_name_H-M    P1
_symmetry_Int_Tables_number       1
_space_group_crystal_system       triclinic
_cell_length_a                    23.456656
_cell_length_b                    10.969159
_cell_length_c                    9.713027
_cell_angle_alpha                 90.016001
_cell_angle_beta                  89.898148
_cell_angle_gamma                 90.992374
_cell_volume                      2498.780924

loop_
_atom_site_label
_atom_site_type_symbol
_atom_type_description
_atom_site_fract_x
_atom_site_fract_y
_atom_site_fract_z
_atom_type_partial_charge
C1    C     C_R   0.500665 0.265419 0.499777 0.817463
C2    C     C_R   0.968761 0.311733 0.681863 0.157249
C3    C     C_R   0.028370 0.319134 0.684119 -0.220574
C4    C     C_R   0.058626 0.391466 0.589024 -0.029003
C5    C     C_R   0.028859 0.456953 0.488146 -0.066681
C6    C     C_R   0.059286 0.529252 0.390976 -0.011594
C7    C     C_R   0.028629 0.593650 0.289421 0.163414
C8    C     C_R   0.969065 0.586747 0.287639 -0.229862
C9    C     C_R   0.118340 0.399189 0.592226 0.545696
C10   C     C_R   0.119405 0.534247 0.399434 0.554805
C11   C     C_R   0.237674 0.531548 0.608586 -0.100994
C12   C     C_R   0.390953 0.496151 0.500009 0.809221
C13   C     C_R   0.297122 0.537644 0.608163 -0.270745
C14   C     C_R   0.328205 0.486051 0.499630 -0.050620
C15   C     C_R   0.298810 0.424043 0.392548 0.137357
C16   C     C_R   0.239050 0.419141 0.394073 -0.134657
C17   C     C_R   0.208496 0.473222 0.500945 0.317315
C18   C     C_R   0.753658 0.375042 0.425159 0.197509
C19   C     C_R   0.694686 0.390274 0.428065 -0.290672
C20   C     C_R   0.670970 0.489177 0.497430 -0.091361
C21   C     C_R   0.706606 0.576031 0.563242 -0.079908
C22   C     C_R   0.766250 0.560342 0.561612 -0.064100
C23   C     C_R   0.498476 0.734056 0.500117 0.849528
C24   C     C_R   0.789449 0.459542 0.492325 0.321781
C25   C     C_2   0.504020 0.931768 0.390678 -0.208556
C26   C     C_2   0.491612 0.864314 0.501431 -0.287807
C27   C     C_2   0.495544 0.063932 0.389811 0.168962
C28   C     C_2   0.508473 0.133995 0.501046 -0.006896
C29   C     C_2   0.463865 0.435610 0.921774 0.230399
C30   C     C_2   0.458790 0.454752 0.075631 -0.140280
C31   C     C_R   0.608790 0.498757 0.499556 0.811237
C32   C     C_R   0.879175 0.513866 0.385684 0.569168
C33   C     C_R   0.877844 0.378534 0.578210 0.566920
C34   C     C_R   0.938073 0.378562 0.582526 -0.014697
C35   C     C_R   0.968575 0.450502 0.485076 -0.064829
C36   C     C_R   0.938846 0.516839 0.384859 -0.026638
Cu1   Cu    Cu3+1 0.500010 0.500020 0.638630 0.967169
Cu2   Cu    Cu3+1 0.499990 0.499980 0.361370 0.956810
H1    H     H_    0.667219 0.324217 0.376472 0.151919
H2    H     H_    0.517602 0.889030 0.295413 0.154211
H3    H     H_    0.474235 0.904140 0.594342 0.173668
H4    H     H_    0.518289 0.574118 0.891362 0.182655
H5    H     H_    0.418660 0.429186 0.123597 0.188268
H6    H     H_    0.050850 0.267729 0.761625 0.185866
H7    H     H_    0.946575 0.637587 0.209640 0.176501
H8    H     H_    0.214213 0.573381 0.691723 0.154214
H9    H     H_    0.318850 0.584550 0.691609 0.167085
H10   H     H_    0.215946 0.372568 0.312533 0.139189
N1    N     N_R   0.850208 0.447850 0.483191 -0.447834
N2    N     N_R   0.147291 0.469649 0.498493 -0.472238
N3    N     N_2   0.499380 0.498660 0.846910 -0.265815
N4    N     N_2   0.499370 0.498630 0.153040 -0.229461
O1    O     O_R   0.500010 0.321960 0.617040 -0.561118
O2    O     O_2   0.846829 0.312188 0.669166 -0.520972
O3    O     O_2   0.147389 0.335836 0.687468 -0.541134
O4    O     O_2   0.150079 0.603429 0.310448 -0.495729
O5    O     O_R   0.499990 0.321920 0.382900 -0.557108
O6    O     O_R   0.417890 0.499980 0.617100 -0.562973
O7    O     O_R   0.417870 0.499940 0.382950 -0.553909
O8    O     O_R   0.500010 0.678080 0.617100 -0.578676
O9    O     O_R   0.499990 0.678040 0.382960 -0.584436
O10   O     O_R   0.582130 0.500060 0.617050 -0.564503
O11   O     O_R   0.582110 0.500020 0.382900 -0.579999
O12   O     O_2   0.850086 0.578068 0.291199 -0.567622
N5    N     N_3   0.940063 0.236459 0.781730 -0.520340
H11   H     H_    0.951682 0.267242 0.879819 0.218892
H12   H     H_    0.954490 0.147316 0.770610 0.209564
C37   C     C_R   0.682332 0.687598 0.623875 0.127596
C38   C     C_R   0.658127 0.775344 0.537824 -0.179027
C39   C     C_R   0.639488 0.885290 0.592825 -0.120623
C40   C     C_R   0.644018 0.907491 0.734204 -0.087067
C41   C     C_R   0.667569 0.819951 0.820522 -0.145296
C42   C     C_R   0.686975 0.710451 0.765526 -0.095244
H13   H     H_    0.655049 0.759779 0.427910 0.121336
H14   H     H_    0.622246 0.953566 0.525169 0.153980
H15   H     H_    0.629865 0.992825 0.777030 0.125286
H16   H     H_    0.671512 0.837877 0.929647 0.117562
H17   H     H_    0.706555 0.644365 0.832276 0.128058
C43   C     C_R   0.805042 0.651827 0.626068 0.104039
C44   C     C_R   0.832949 0.624966 0.749842 -0.166020
C45   C     C_R   0.869683 0.711226 0.810180 -0.131583
C46   C     C_R   0.878614 0.824714 0.747544 -0.102220
C47   C     C_R   0.850803 0.852109 0.624482 -0.126471
C48   C     C_R   0.814116 0.765985 0.563711 -0.094394
H18   H     H_    0.825983 0.537719 0.799773 0.163308
H19   H     H_    0.891134 0.690193 0.905633 0.142894
H20   H     H_    0.907020 0.891475 0.794427 0.131108
H21   H     H_    0.857707 0.940056 0.576170 0.148901
H22   H     H_    0.792872 0.787921 0.468177 0.143283
N6    N     N_3   0.473199 0.116602 0.266159 -0.587621
H23   H     H_    0.500963 0.096691 0.185203 0.200539
H24   H     H_    0.433940 0.074078 0.245151 0.215386
N7    N     N_3   0.534828 0.083013 0.620936 -0.627739
H25   H     H_    0.573300 0.130227 0.637710 0.206913
H26   H     H_    0.508420 0.098583 0.705770 0.226824
N8    N     N_3   0.427124 0.347491 0.856960 -0.509934
H27   H     H_    0.385030 0.371320 0.877876 0.204572
H28   H     H_    0.434219 0.263199 0.903492 0.188671
C49   C     C_R   0.556858 0.490049 0.106129 0.320249
C50   C     C_R   0.592707 0.593798 0.110495 -0.150322
C51   C     C_R   0.651098 0.583627 0.084941 -0.167061
C52   C     C_R   0.673987 0.470407 0.052379 -0.093907
C53   C     C_R   0.638626 0.366715 0.047127 -0.179414
C54   C     C_R   0.580419 0.375919 0.075625 -0.139897
H29   H     H_    0.575595 0.681518 0.138248 0.119652
H30   H     H_    0.678762 0.663308 0.091900 0.130864
H31   H     H_    0.719213 0.462875 0.032536 0.143669
H32   H     H_    0.656515 0.278814 0.023639 0.133262
H33   H     H_    0.553848 0.294229 0.076529 0.124092
N9    N     N_3   0.057281 0.666610 0.187344 -0.509483
H34   H     H_    0.045599 0.633577 0.090216 0.215536
H35   H     H_    0.042826 0.755951 0.195824 0.217610
N10   N     N_3   0.329598 0.363764 0.284875 -0.586212
H36   H     H_    0.350140 0.289562 0.329088 0.215742
H37   H     H_    0.301582 0.328017 0.210972 0.214143
N11   N     N_3   0.777596 0.274524 0.352504 -0.571312
H38   H     H_    0.760501 0.194027 0.394391 0.217892
H39   H     H_    0.764449 0.279514 0.249871 0.218187

loop_
_geom_bond_atom_site_label_1
_geom_bond_atom_site_label_2
_ccdc_geom_bond_type
N7    H25   S    
C19   C20   A    
C2    N5    S    
C16   H10   S    
Cu2   O11   S    
Cu1   O10   S    
C7    C8    A    
C50   H29   S    
C44   H18   S    
C18   C24   A    
C5    C6    A    
C32   C36   A    
Cu1   Cu2   S    
C22   C43   S    
C18   C19   A    
C25   H2    S    
C43   C48   A    
Cu1   N3    S    
Cu2   N4    S    
C33   N1    A    
C15   C16   A    
C51   H30   S    
N11   H38   S    
C27   N6    S    
C34   C35   A    
C8    C36   A    
C23   C26   S    
C1    O1    A    
C8    H7    S    
C41   H16   S    
N9    H34   S    
C12   O7    A    
C47   C48   A    
C16   C17   A    
N5    H12   S    
N8    H28   S    
C1    C28   S    
C42   H17   S    
C15   N10   S    
C39   C40   A    
C9    O3    S    
C10   O4    S    
C45   H19   S    
H4    N3    S    
C33   O2    S    
Cu2   O9    S    
Cu1   O1    S    
C2    C34   A    
C47   H21   S    
N7    H26   S    
C21   C22   A    
C31   O10   A    
C38   C39   A    
C45   C46   A    
C23   O8    A    
C3    H6    S    
C51   C52   A    
C31   O11   A    
C38   H13   S    
C32   O12   S    
C41   C42   A    
C18   N11   S    
C13   H9    S    
C44   C45   A    
C37   C42   A    
C43   C44   A    
C28   N7    S    
C35   C36   A    
C29   C30   S    
C1    O5    A    
Cu2   O5    S    
N6    H24   S    
C49   C50   A    
N8    H27   S    
C33   C34   A    
C52   H31   S    
C53   H32   S    
C19   H1    S    
C12   C14   S    
N5    H11   S    
C21   C37   S    
C22   C24   A    
C30   H5    S    
C48   H22   S    
C3    C4    A    
C10   N2    A    
C40   H15   S    
C53   C54   A    
N10   H36   S    
C29   N3    D    
C24   N1    S    
C30   N4    D    
C11   C17   A    
C37   C38   A    
C9    N2    A    
Cu1   O6    S    
C4    C5    A    
C17   N2    S    
C6    C10   A    
C29   N8    S    
C6    C7    A    
C25   C27   S    
N4    C49   S    
C7    N9    S    
C2    C3    A    
C25   C26   D    
C12   O6    A    
C40   C41   A    
C11   C13   A    
N6    H23   S    
C54   H33   S    
C5    C35   A    
C50   C51   A    
N11   H39   S    
C49   C54   A    
C52   C53   A    
N9    H35   S    
C32   N1    A    
Cu1   O8    S    
Cu2   O7    S    
C23   O9    A    
C20   C21   A    
C39   H14   S    
C46   C47   A    
C27   C28   D    
C14   C15   A    
C11   H8    S    
C4    C9    A    
C13   C14   A    
C46   H20   S    
C26   H3    S    
N10   H37   S    
C20   C31   S    
