data_mof_unit_40096.cif
_audit_creation_date              2012-12-10T18:49:26-0500
_audit_creation_method            fapswitch 2.2
_symmetry_space_group_name_H-M    P1
_symmetry_Int_Tables_number       1
_space_group_crystal_system       triclinic
_cell_length_a                    10.133023
_cell_length_b                    10.585658
_cell_length_c                    13.542224
_cell_angle_alpha                 93.996746
_cell_angle_beta                  81.83277
_cell_angle_gamma                 90.146354
_cell_volume                      1434.33340487

loop_
_atom_site_label
_atom_site_type_symbol
_atom_type_description
_atom_site_fract_x
_atom_site_fract_y
_atom_site_fract_z
_atom_type_partial_charge
C1    C     C_R   0.500938 0.738250 0.496113 0.963918
C2    C     C_R   0.914202 0.568739 0.573963 -0.072757
C3    C     C_1   0.544600 0.479002 0.210506 -0.035308
C4    C     C_1   0.454157 0.503275 0.790487 -0.028628
C5    C     C_2   0.544712 0.446164 0.018642 0.060376
C6    C     C_2   0.441128 0.501424 0.984321 0.079076
C7    C     C_1   0.443179 0.502814 0.879069 0.015596
C8    C     C_1   0.551717 0.462557 0.122508 -0.022949
C9    C     C_R   0.492557 0.938285 0.587758 -0.287140
C10   C     C_R   0.511713 0.060932 0.410010 -0.307447
C11   C     C_R   0.491380 0.068613 0.592602 0.401583
C12   C     C_R   0.499460 0.261398 0.502467 0.960745
C13   C     C_R   0.510985 0.930452 0.405127 0.479249
C14   C     C_3   0.169122 0.325513 0.364520 -0.276157
C15   C     C_3   0.126627 0.189765 0.388445 -0.349057
C16   C     C_3   0.195148 0.091536 0.309935 -0.727908
C17   C     C_3   0.824884 0.652749 0.651290 -0.234824
C18   C     C_3   0.798656 0.600702 0.756495 -0.300677
C19   C     C_3   0.719215 0.696107 0.831740 -0.859905
C20   C     C_3   0.334968 0.579083 0.054460 -0.383575
C21   C     C_3   0.208851 0.605820 0.008553 -0.391146
C22   C     C_3   0.103765 0.675495 0.084833 -0.725300
C23   C     C_R   0.499809 0.128441 0.502711 -0.211287
C24   C     C_3   0.656230 0.369635 0.954771 -0.415522
C25   C     C_3   0.653740 0.231354 0.982545 -0.284633
C26   C     C_3   0.770143 0.155233 0.923378 -0.753397
C27   C     C_R   0.501382 0.870874 0.495249 -0.207961
C28   C     C_R   0.474688 0.502313 0.685523 0.966709
C29   C     C_R   0.525138 0.495985 0.314837 0.958658
C30   C     C_R   0.943766 0.433482 0.424689 0.433623
C31   C     C_R   0.058015 0.571040 0.573975 0.437390
C32   C     C_R   0.084662 0.424622 0.431060 -0.048854
H1    H     H_    0.486615 0.888523 0.655588 0.198920
H2    H     H_    0.175254 0.345499 0.285162 0.238355
H3    H     H_    0.272713 0.330211 0.373522 0.231235
H4    H     H_    0.777132 0.784398 0.840379 0.296111
H5    H     H_    0.623300 0.719883 0.806484 0.250962
H6    H     H_    0.698113 0.655560 0.905715 0.250668
H7    H     H_    0.745717 0.509656 0.754758 0.231107
H8    H     H_    0.890422 0.576823 0.785736 0.257346
H9    H     H_    0.862721 0.750783 0.652205 0.212386
H10   H     H_    0.729564 0.670659 0.627615 0.227275
H11   H     H_    0.074491 0.617453 0.149551 0.289468
H12   H     H_    0.521825 0.110771 0.342127 0.202124
H13   H     H_    0.143075 0.767713 0.111770 0.268743
H14   H     H_    0.013892 0.693495 0.049418 0.256181
H15   H     H_    0.234325 0.665503 0.944273 0.252671
H16   H     H_    0.166453 0.514720 0.982162 0.244023
H17   H     H_    0.303799 0.527026 0.122424 0.221281
H18   H     H_    0.379648 0.670459 0.077833 0.234402
H19   H     H_    0.766228 0.155207 0.841944 0.282128
H20   H     H_    0.866392 0.196065 0.939862 0.253837
H21   H     H_    0.764744 0.055778 0.944799 0.254735
H22   H     H_    0.660140 0.227168 0.063545 0.233413
H23   H     H_    0.942480 0.266790 0.168496 0.387657
H24   H     H_    0.558530 0.187071 0.967120 0.273108
H25   H     H_    0.650328 0.370710 0.874001 0.247731
H26   H     H_    0.753128 0.412997 0.967217 0.206070
H27   H     H_    0.693691 0.194473 0.677445 0.343570
H28   H     H_    0.533328 0.890223 0.132679 0.380025
H29   H     H_    0.102412 0.567607 0.826589 0.350874
H30   H     H_    0.157838 0.098835 0.237382 0.289539
H31   H     H_    0.174175 0.994893 0.334919 0.265071
H32   H     H_    0.304377 0.105806 0.298572 0.256447
H33   H     H_    0.154209 0.170567 0.462626 0.229513
H34   H     H_    0.017158 0.177641 0.393334 0.269180
N1    N     N_R   0.142790 0.500030 0.500020 -0.164440
N2    N     N_R   0.857210 0.499970 0.499980 -0.165123
O1    O     O_R   0.385380 0.683250 0.500010 -0.538796
O2    O     O_2   0.855977 0.486707 0.255174 -0.297515
O3    O     O_3   0.988788 0.281108 0.227966 -0.601949
O4    O     O_2   0.252822 0.712851 0.659030 -0.265825
O5    O     O_2   0.034352 0.749506 0.740077 -0.354612
O6    O     O_3   0.141195 0.533203 0.759014 -0.564172
O7    O     O_2   0.358745 0.232732 0.729093 -0.264992
O8    O     O_2   0.482331 0.065014 0.792661 -0.309174
O9    O     O_3   0.617151 0.247909 0.709346 -0.600878
O10   O     O_2   0.645580 0.763370 0.271518 -0.297684
O11   O     O_2   0.401500 0.764057 0.283973 -0.353148
O12   O     O_R   0.614620 0.316750 0.499990 -0.558361
O13   O     O_3   0.531970 0.945506 0.194951 -0.577995
O14   O     O_R   0.614710 0.683220 0.500000 -0.650669
O15   O     O_R   0.385290 0.316780 0.500000 -0.647234
O16   O     O_R   0.368830 0.499990 0.640350 -0.496588
O17   O     O_R   0.631170 0.500010 0.359650 -0.495786
O18   O     O_R   0.598160 0.499960 0.640350 -0.650807
O19   O     O_R   0.401840 0.500040 0.359650 -0.661530
O20   O     O_2   0.762505 0.295972 0.332767 -0.307369
S1    S     S_3+6 0.885319 0.373782 0.310106 0.008745
S2    S     S_3+6 0.122567 0.648216 0.682114 0.020818
S3    S     S_3+6 0.483656 0.153417 0.710344 0.002346
S4    S     S_3+6 0.522694 0.845563 0.286956 -0.014951
Zn1   Zn    Zn3+2 0.346870 0.500020 0.500000 1.050171
Zn2   Zn    Zn3+2 0.653130 0.499980 0.500000 1.038871

loop_
_geom_bond_atom_site_label_1
_geom_bond_atom_site_label_2
_ccdc_geom_bond_type
O14   Zn2   S    
C28   O16   A    
C25   H24   S    
H27   O9    S    
C31   N1    A    
C12   C23   S    
O5    S2    D    
O1    Zn1   S    
C19   H4    S    
C30   S1    S    
C5    C6    D    
C15   C16   S    
O15   Zn1   S    
O19   Zn1   S    
C18   C19   S    
O17   Zn2   S    
C3    C29   S    
C18   H8    S    
C17   H10   S    
C20   H18   S    
C19   H5    S    
O13   S4    S    
C24   H25   S    
H23   O3    S    
C16   H31   S    
O18   Zn2   S    
C29   O17   A    
O7    S3    D    
C21   H16   S    
C21   C22   S    
C2    C17   S    
C9    H1    S    
C16   H30   S    
C4    C7    T    
C4    C28   S    
C10   H12   S    
C24   C25   S    
C3    C8    T    
C14   H3    S    
O10   S4    D    
C25   C26   S    
C15   H34   S    
C1    O1    A    
C12   O15   A    
C2    C31   A    
C18   H7    S    
C20   H17   S    
C19   H6    S    
C26   H20   S    
O4    S2    D    
H28   O13   S    
C22   H11   S    
O3    S1    S    
C31   S2    S    
C20   C21   S    
C17   C18   S    
C25   H22   S    
C9    C11   A    
O11   S4    D    
C32   N1    A    
C22   H14   S    
C13   S4    S    
C28   O18   A    
C10   C23   A    
O2    S1    D    
O12   Zn2   S    
C26   H21   S    
C9    C27   A    
C1    C27   S    
O9    S3    S    
C14   C32   S    
C10   C13   A    
C14   H2    S    
C5    C8    S    
C6    C7    S    
H29   O6    S    
C6    C20   S    
C2    N2    A    
O6    S2    S    
C1    O14   A    
C26   H19   S    
C30   C32   A    
C5    C24   S    
C12   O12   A    
C11   C23   A    
O16   Zn1   S    
C17   H9    S    
C29   O19   A    
O8    S3    D    
C11   S3    S    
C22   H13   S    
O20   S1    D    
C24   H26   S    
N2    Zn2   S    
N1    Zn1   S    
C14   C15   S    
C13   C27   A    
C16   H32   S    
C30   N2    A    
C21   H15   S    
C15   H33   S    
