data_mof_unit_43992.cif
_audit_creation_date              2012-10-26T19:09:28-0400
_audit_creation_method            fapswitch 2.2
_symmetry_space_group_name_H-M    P1
_symmetry_Int_Tables_number       1
_space_group_crystal_system       triclinic
_cell_length_a                    10.772965
_cell_length_b                    9.573182
_cell_length_c                    19.440778
_cell_angle_alpha                 89.96175
_cell_angle_beta                  92.318017
_cell_angle_gamma                 90.10998
_cell_volume                      2003.31301376

loop_
_atom_site_label
_atom_site_type_symbol
_atom_type_description
_atom_site_fract_x
_atom_site_fract_y
_atom_site_fract_z
_atom_type_partial_charge
C1    C     C_R   0.262702 0.499837 0.499526 0.558304
C2    C     C_R   0.069964 0.521856 0.562183 -0.011706
C3    C     C_R   0.871211 0.500220 0.500196 -0.028258
C4    C     C_R   0.128456 0.499389 0.499497 -0.009952
C5    C     C_R   0.417605 0.074023 0.458358 0.354636
C6    C     C_R   0.582502 0.926081 0.541595 0.359134
C7    C     C_R   0.582560 0.074312 0.541581 0.361812
C8    C     C_R   0.417502 0.925818 0.458411 0.356394
C9    C     C_R   0.522000 0.627779 0.252996 0.224597
C10   C     C_R   0.480153 0.372276 0.747187 0.225692
C11   C     C_R   0.477614 0.627984 0.746782 0.228206
C12   C     C_R   0.737155 0.500064 0.500317 0.488704
C13   C     C_R   0.524545 0.372071 0.253364 0.232492
C14   C     C_R   0.517834 0.626510 0.180760 0.231680
C15   C     C_R   0.485006 0.373600 0.819429 0.234175
C16   C     C_R   0.482936 0.627501 0.819018 0.234958
C17   C     C_R   0.519913 0.372604 0.181129 0.231082
C18   C     C_R   0.514026 0.499369 0.145006 -0.048736
C19   C     C_R   0.489089 0.500767 0.855156 -0.047128
C20   C     C_R   0.517422 0.499988 0.290625 -0.064510
C21   C     C_R   0.484342 0.500037 0.709506 -0.081106
C22   C     C_2   0.123914 0.456122 0.371251 0.336836
C23   C     C_R   0.495789 0.500887 0.930578 0.401158
C24   C     C_2   0.873155 0.516083 0.629148 0.369920
C25   C     C_2   0.851172 0.464220 0.372719 0.270513
C26   C     C_2   0.146751 0.554772 0.625586 0.341421
C27   C     C_R   0.507455 0.499329 0.069584 0.400944
C28   C     C_R   0.506265 0.500028 0.367264 0.599970
C29   C     C_R   0.494661 0.499965 0.632803 0.539386
C30   C     C_R   0.059762 0.475761 0.437094 0.017353
C31   C     C_R   0.939584 0.515679 0.563107 0.017392
C32   C     C_R   0.929314 0.477729 0.437471 -0.022078
Cl1   Cl    Cl    0.542650 0.792744 0.293254 -0.338622
Cl2   Cl    Cl    0.691030 0.838928 0.596471 -0.406824
Cl3   Cl    Cl    0.691521 0.162170 0.596236 -0.370537
Cl4   Cl    Cl    0.308622 0.838355 0.403705 -0.332714
Cl5   Cl    Cl    0.458972 0.207293 0.707028 -0.330734
Cl6   Cl    Cl    0.453465 0.792071 0.706124 -0.320409
Cl7   Cl    Cl    0.548180 0.207960 0.294083 -0.316674
Cl8   Cl    Cl    0.522395 0.786141 0.134538 -0.283784
Cl9   Cl    Cl    0.480849 0.214003 0.865702 -0.278634
Cl10  Cl    Cl    0.486158 0.787954 0.864619 -0.275721
Cl11  Cl    Cl    0.517116 0.212184 0.135506 -0.281301
Cl12  Cl    Cl    0.309483 0.161473 0.403296 -0.406136
Cu1   Cu    Cu3+1 0.500000 0.640660 0.500000 1.176311
Cu2   Cu    Cu3+1 0.500000 0.359340 0.500000 1.178328
H1    H     H_    0.092787 0.377072 0.334676 0.204940
H2    H     H_    0.779323 0.556129 0.630920 0.143653
H3    H     H_    0.772217 0.532918 0.363843 0.117108
H4    H     H_    0.234888 0.502753 0.635412 0.092289
N1    N     N_R   0.500000 0.852070 0.500000 -0.283753
N2    N     N_R   0.500000 0.147930 0.500000 -0.281331
N3    N     N_R   0.599158 0.440053 0.033841 -0.110964
N4    N     N_R   0.404092 0.560160 0.966323 -0.109636
N5    N     N_R   0.593352 0.440705 0.965386 -0.111460
N6    N     N_R   0.409898 0.559509 0.034774 -0.112847
O1    O     O_R   0.319640 0.618740 0.500000 -0.452965
O2    O     O_2   0.919881 0.464706 0.681519 -0.385585
O3    O     O_2   0.870152 0.373015 0.330644 -0.445470
O4    O     O_2   0.114435 0.644192 0.665857 -0.371240
O5    O     O_R   0.680360 0.381260 0.500000 -0.464281
O6    O     O_R   0.680360 0.618740 0.500000 -0.489313
O7    O     O_R   0.319640 0.381260 0.500000 -0.474509
O8    O     O_R   0.499980 0.618820 0.400140 -0.426839
O9    O     O_R   0.500020 0.381180 0.599860 -0.442439
O10   O     O_R   0.500020 0.618820 0.599860 -0.447613
O11   O     O_R   0.499980 0.381180 0.400140 -0.428971
O12   O     O_2   0.211924 0.529418 0.356820 -0.434610

loop_
_geom_bond_atom_site_label_1
_geom_bond_atom_site_label_2
_ccdc_geom_bond_type
C5    C8    A    
C2    C4    A    
C9    C14   A    
C27   N3    A    
C5    N2    A    
C23   N5    A    
C6    C7    A    
C1    O1    A    
C6    N1    A    
C11   Cl6   S    
C22   C30   S    
C11   C16   A    
C14   C18   A    
Cu1   O8    S    
C19   C23   S    
C13   C17   A    
Cu2   O7    S    
C3    C31   A    
C1    C4    S    
Cu1   O1    S    
C25   C32   S    
C17   Cl11  S    
C17   C18   A    
C24   C31   S    
Cu2   O11   S    
C2    C26   S    
C26   H4    S    
Cu1   Cu2   S    
C30   C32   A    
C12   O5    A    
C8    N1    A    
C22   O12   D    
C26   O4    D    
C9    Cl1   S    
C10   Cl5   S    
C29   O9    A    
C1    O7    A    
C7    Cl3   S    
C5    Cl12  S    
C7    N2    A    
C22   H1    S    
N4    N6    A    
C10   C15   A    
N3    N5    A    
C10   C21   A    
C16   C19   A    
C3    C32   A    
C9    C20   A    
C25   H3    S    
C13   Cl7   S    
C28   O8    A    
Cu1   N1    S    
Cu2   O9    S    
C14   Cl8   S    
C29   O10   A    
C24   H2    S    
C20   C28   S    
Cu2   N2    S    
Cu1   O6    S    
C28   O11   A    
C12   O6    A    
C15   Cl9   S    
C23   N4    A    
C24   O2    D    
C8    Cl4   S    
Cu1   O10   S    
C27   N6    A    
C3    C12   S    
C25   O3    D    
C13   C20   A    
C15   C19   A    
C16   Cl10  S    
C21   C29   S    
C11   C21   A    
C4    C30   A    
C18   C27   S    
C6    Cl2   S    
C2    C31   A    
Cu2   O5    S    
