data_mof_unit_49567.cif
_audit_creation_date              2012-12-10T19:16:19-0500
_audit_creation_method            fapswitch 2.2
_symmetry_space_group_name_H-M    P1
_symmetry_Int_Tables_number       1
_space_group_crystal_system       triclinic
_cell_length_a                    10.617275
_cell_length_b                    9.6807
_cell_length_c                    27.75515
_cell_angle_alpha                 90.056664
_cell_angle_beta                  89.918896
_cell_angle_gamma                 89.985317
_cell_volume                      2852.74363388

loop_
_atom_site_label
_atom_site_type_symbol
_atom_type_description
_atom_site_fract_x
_atom_site_fract_y
_atom_site_fract_z
_atom_type_partial_charge
C1    C     C_R   0.257580 0.500293 0.499936 0.847475
C2    C     C_R   0.507680 0.624310 0.277918 -0.110807
C3    C     C_R   0.503931 0.498817 0.253101 0.324318
C4    C     C_R   0.503848 0.498666 0.101988 -0.122302
C5    C     C_R   0.389606 0.495281 0.127943 0.008077
C6    C     C_R   0.275323 0.490783 0.103447 -0.146145
C7    C     C_R   0.619345 0.500687 0.127331 -0.143371
C8    C     C_R   0.501335 0.499620 0.353358 -0.044496
C9    C     C_R   0.498972 0.500354 0.646613 -0.044250
C10   C     C_R   0.383119 0.499781 0.974980 -0.026962
C11   C     C_R   0.615757 0.502226 0.973856 0.098110
C12   C     C_R   0.500327 0.499919 0.405951 0.875875
C13   C     C_R   0.498446 0.500549 0.949140 0.070082
C14   C     C_R   0.269277 0.502880 0.948653 -0.322660
C15   C     C_R   0.267155 0.498095 0.898504 0.565299
C16   C     C_R   0.381167 0.499447 0.872648 -0.143368
C17   C     C_R   0.496676 0.501259 0.897984 -0.122346
C18   C     C_R   0.610911 0.504409 0.872023 0.008130
C19   C     C_R   0.608489 0.504295 0.821746 0.502381
C20   C     C_R   0.383889 0.499361 0.821935 0.531474
C21   C     C_R   0.500814 0.626211 0.721937 -0.099394
C22   C     C_R   0.501947 0.626070 0.671903 -0.224730
C23   C     C_R   0.742653 0.500272 0.499904 0.847125
C24   C     C_R   0.494688 0.375002 0.672006 -0.222410
C25   C     C_R   0.493395 0.375599 0.722049 -0.110102
C26   C     C_R   0.496534 0.501093 0.746872 0.323913
C27   C     C_R   0.384792 0.497602 0.026114 0.098077
C28   C     C_R   0.502095 0.499387 0.050832 0.070057
C29   C     C_R   0.617428 0.500261 0.024994 -0.026979
C30   C     C_R   0.272607 0.491256 0.053657 -0.219707
C31   C     C_R   0.733363 0.502291 0.101478 0.565187
C32   C     C_R   0.727943 0.508209 0.946303 -0.219650
C33   C     C_R   0.725206 0.508654 0.896513 -0.146111
C34   C     C_R   0.499918 0.500077 0.594017 0.878180
C35   C     C_R   0.731267 0.497506 0.051330 -0.322503
C36   C     C_3   0.071542 0.652285 0.499270 -0.398647
C37   C     C_3   0.072205 0.427913 0.545771 -0.398601
C38   C     C_3   0.928630 0.652269 0.499226 -0.397982
C39   C     C_3   0.927692 0.427951 0.545770 -0.398263
C40   C     C_3   0.072596 0.424823 0.454507 -0.398155
C41   C     C_3   0.121337 0.501287 0.499868 0.178464
C42   C     C_3   0.878900 0.501259 0.499848 0.178293
C43   C     C_3   0.928058 0.424754 0.454507 -0.398294
C44   C     C_3   0.384696 0.081353 0.475835 -0.233895
C45   C     C_3   0.384673 0.918610 0.475857 -0.234189
C46   C     C_3   0.609563 0.081286 0.472248 -0.233799
C47   C     C_3   0.609562 0.918538 0.472250 -0.233852
C48   C     C_3   0.504996 0.081366 0.548568 -0.231353
C49   C     C_3   0.505032 0.918883 0.548567 -0.231736
C50   C     C_R   0.392012 0.495382 0.178220 0.502309
C51   C     C_R   0.616606 0.500736 0.178043 0.531302
C52   C     C_R   0.498980 0.373732 0.278043 -0.099706
C53   C     C_R   0.497782 0.373903 0.328077 -0.224854
C54   C     C_R   0.506302 0.624939 0.327961 -0.223057
H1    H     H_    0.509246 0.723140 0.346669 0.149873
H2    H     H_    0.495987 0.276779 0.258580 0.132214
H3    H     H_    0.820611 0.514501 0.961702 0.140971
H4    H     H_    0.492238 0.276791 0.653301 0.148253
H5    H     H_    0.813879 0.513264 0.877222 0.196179
H6    H     H_    0.490210 0.278921 0.741609 0.129706
H7    H     H_    0.822101 0.489663 0.034432 0.154607
H8    H     H_    0.106151 0.707514 0.466631 0.170076
H9    H     H_    0.106855 0.319409 0.547123 0.171312
H10   H     H_    0.105722 0.709782 0.531497 0.171687
H11   H     H_    0.107391 0.481712 0.578576 0.166361
H12   H     H_    0.894042 0.709894 0.531404 0.172078
H13   H     H_    0.892260 0.481844 0.578559 0.166341
H14   H     H_    0.511387 0.720961 0.258354 0.129742
H15   H     H_    0.894374 0.707367 0.466540 0.169673
H16   H     H_    0.893033 0.319469 0.547150 0.171664
H17   H     H_    0.108015 0.476457 0.421317 0.166091
H18   H     H_    0.107295 0.316271 0.453950 0.170365
H19   H     H_    0.892821 0.476285 0.421304 0.165978
H20   H     H_    0.893494 0.316171 0.453979 0.170320
H21   H     H_    0.377290 0.120088 0.438221 0.145224
H22   H     H_    0.377130 0.879563 0.438262 0.145988
H23   H     H_    0.299434 0.119032 0.495103 0.145212
H24   H     H_    0.299477 0.881251 0.495187 0.144506
H25   H     H_    0.609011 0.119935 0.434517 0.146118
H26   H     H_    0.609061 0.879649 0.434524 0.145527
H27   H     H_    0.590894 0.119851 0.567164 0.146031
H28   H     H_    0.590972 0.880490 0.567144 0.145311
H29   H     H_    0.423138 0.119625 0.569805 0.145507
H30   H     H_    0.423228 0.880722 0.569821 0.146132
H31   H     H_    0.698592 0.119014 0.488703 0.144919
H32   H     H_    0.698566 0.880954 0.488731 0.144331
H33   H     H_    0.186649 0.485938 0.122733 0.196432
H34   H     H_    0.505298 0.724033 0.653124 0.148401
H35   H     H_    0.503341 0.723167 0.741407 0.132157
H36   H     H_    0.178483 0.511089 0.965565 0.154625
H37   H     H_    0.179975 0.484599 0.038241 0.141118
H38   H     H_    0.493914 0.275970 0.346868 0.150113
N1    N     N_R   0.504222 0.498423 0.201866 -0.365903
N2    N     N_R   0.496267 0.501465 0.798107 -0.365961
N3    N     N_3   0.499750 0.138610 0.498940 -0.032562
N4    N     N_3   0.499750 0.861390 0.498940 -0.032208
O1    O     O_R   0.314910 0.616040 0.499990 -0.634958
O2    O     O_R   0.314910 0.383960 0.499990 -0.634511
O3    O     O_R   0.500140 0.616020 0.428740 -0.627869
O4    O     O_R   0.500140 0.383980 0.428740 -0.627528
O5    O     O_R   0.685320 0.616040 0.499970 -0.635197
O6    O     O_R   0.685320 0.383960 0.499970 -0.634179
O7    O     O_R   0.500090 0.616050 0.571230 -0.629934
O8    O     O_R   0.500090 0.383950 0.571230 -0.630017
O9    O     O_2   0.283223 0.492694 0.203475 -0.554806
O10   O     O_2   0.275952 0.497281 0.796333 -0.495478
O11   O     O_2   0.724533 0.502966 0.203650 -0.495758
O12   O     O_2   0.717272 0.506783 0.796485 -0.554712
Zn1   Zn    Zn3+2 0.500150 0.654960 0.499980 0.905779
Zn2   Zn    Zn3+2 0.500150 0.345040 0.499980 0.906016
O13   O     O_3   0.848192 0.496989 0.124996 -0.559367
C55   C     C_3   0.906702 0.627507 0.121675 -0.233441
H39   H     H_    0.843652 0.711735 0.134680 0.161756
H40   H     H_    0.938686 0.648793 0.084246 0.128295
H41   H     H_    0.991283 0.627444 0.145079 0.207362
O14   O     O_3   0.152339 0.503598 0.874981 -0.559253
C56   C     C_3   0.093437 0.373316 0.878430 -0.233350
H42   H     H_    0.060851 0.352781 0.915834 0.128276
H43   H     H_    0.156418 0.288641 0.865729 0.161383
H44   H     H_    0.009210 0.373265 0.854842 0.207535

loop_
_geom_bond_atom_site_label_1
_geom_bond_atom_site_label_2
_ccdc_geom_bond_type
C10   C27   A    
C43   H19   S    
C21   C26   A    
C26   N2    S    
O2    Zn2   S    
C48   N3    S    
O13   C55   S    
C55   H40   S    
C21   H35   S    
O14   C56   S    
O4    Zn2   S    
C23   C42   S    
C45   H22   S    
C5    C6    A    
C32   H3    S    
C49   H30   S    
C28   C29   A    
C40   H17   S    
C38   C42   S    
C2    H14   S    
C56   H43   S    
C46   H25   S    
C9    C22   A    
C23   O6    A    
O5    Zn1   S    
C15   C16   A    
O3    Zn1   S    
C48   H27   S    
C18   C19   A    
C14   H36   S    
C12   O3    A    
C37   H9    S    
C54   H1    S    
C40   C43   S    
C46   N3    S    
C38   H12   S    
C16   C17   A    
C37   H11   S    
C50   O9    S    
C47   N4    S    
C45   H24   S    
C25   H6    S    
C22   H34   S    
C16   C20   A    
C46   H31   S    
C19   O12   S    
C43   H20   S    
C38   H15   S    
C24   H4    S    
C33   H5    S    
C21   C22   A    
C27   C30   A    
C36   C41   S    
C47   H26   S    
C4    C7    A    
C36   H8    S    
C55   H39   S    
C4    C28   A    
C39   C42   S    
C20   O10   S    
C7    C31   A    
C47   H32   S    
C24   C25   A    
C3    N1    S    
C10   C14   A    
C56   H44   S    
C1    O1    A    
C30   H37   S    
C25   C26   A    
C10   C13   A    
C9    C24   A    
C34   O8    A    
C6    H33   S    
C49   H28   S    
C8    C53   A    
C44   H21   S    
O1    Zn1   S    
C8    C12   S    
C53   H38   S    
C17   C18   A    
C35   H7    S    
C19   N2    A    
C51   N1    A    
C1    C41   S    
C48   C49   S    
C6    C30   A    
C11   C32   A    
C2    C54   A    
C9    C34   S    
C31   C35   A    
C5    C50   A    
O6    Zn2   S    
C42   C43   S    
C8    C54   A    
C52   C53   A    
C20   N2    A    
C46   C47   S    
C44   H23   S    
C40   H18   S    
C14   C15   A    
C39   H13   S    
C44   C45   S    
C4    C5    A    
N3    Zn2   S    
C1    O2    A    
C3    C52   A    
C50   N1    A    
N4    Zn1   S    
C29   C35   A    
C34   O7    A    
C48   H29   S    
C13   C17   A    
O7    Zn1   S    
C32   C33   A    
C36   C38   S    
C2    C3    A    
C7    C51   A    
C37   C39   S    
C44   N3    S    
C56   H42   S    
O8    Zn2   S    
C11   C13   A    
C23   O5    A    
C39   H16   S    
C49   N4    S    
C37   C41   S    
C18   C33   A    
C12   O4    A    
C11   C29   A    
C51   O11   S    
C27   C28   A    
C31   O13   S    
C15   O14   S    
C40   C41   S    
C36   H10   S    
C45   N4    S    
C55   H41   S    
C52   H2    S    
