data_mof_unit_38840.cif
_audit_creation_date              2012-12-10T18:10:19-0500
_audit_creation_method            fapswitch 2.2
_symmetry_space_group_name_H-M    P1
_symmetry_Int_Tables_number       1
_space_group_crystal_system       triclinic
_cell_length_a                    10.743463
_cell_length_b                    9.534309
_cell_length_c                    15.854532
_cell_angle_alpha                 90.684633
_cell_angle_beta                  84.151876
_cell_angle_gamma                 90.088697
_cell_volume                      1615.43584705

loop_
_atom_site_label
_atom_site_type_symbol
_atom_type_description
_atom_site_fract_x
_atom_site_fract_y
_atom_site_fract_z
_atom_type_partial_charge
C1    C     C_R   0.260209 0.499902 0.497281 0.816359
C2    C     C_3   0.637558 0.495000 0.941869 -0.382005
C3    C     C_3   0.636912 0.493853 0.039634 -0.361629
C4    C     C_1   0.502576 0.501751 0.824720 -0.108956
C5    C     C_1   0.500393 0.497861 0.174971 -0.102204
C6    C     C_1   0.500376 0.497935 0.250639 -0.140280
C7    C     C_3   0.057978 0.560277 0.580383 -0.285482
C8    C     C_3   0.073064 0.348496 0.482291 -0.371823
C9    C     C_3   0.914646 0.556161 0.581386 -0.431881
C10   C     C_3   0.930585 0.348086 0.481804 -0.353224
C11   C     C_3   0.083328 0.590951 0.422145 -0.422791
C12   C     C_3   0.121904 0.499750 0.495570 0.112781
C13   C     C_3   0.878048 0.499224 0.495630 0.139571
C14   C     C_R   0.500539 0.499300 0.340419 0.812268
C15   C     C_3   0.939141 0.592412 0.423007 -0.333836
C16   C     C_3   0.597363 0.083596 0.551753 -0.265316
C17   C     C_3   0.604954 0.918290 0.544753 -0.251432
C18   C     C_3   0.374758 0.085316 0.540852 0.247090
C19   C     C_3   0.378088 0.915483 0.546941 0.264777
C20   C     C_3   0.521646 0.081655 0.414802 0.497583
C21   C     C_3   0.513768 0.915689 0.414568 0.487959
C22   C     C_R   0.739950 0.499820 0.497206 0.736440
C23   C     C_R   0.502843 0.500654 0.659390 0.911212
C24   C     C_3   0.437239 0.633793 0.054423 -0.372308
C25   C     C_3   0.428930 0.369926 0.051976 -0.383447
C26   C     C_3   0.429519 0.371168 0.954190 -0.359309
C27   C     C_3   0.437971 0.635046 0.956631 -0.374073
C28   C     C_1   0.502954 0.501797 0.749088 -0.116614
C29   C     C_3   0.500813 0.498774 0.082674 0.312696
C30   C     C_3   0.501915 0.500817 0.916949 0.310576
Cu1   Cu    Cu3+1 0.499860 0.642410 0.500040 1.030407
Cu2   Cu    Cu3+1 0.499860 0.357590 0.500040 1.025729
H1    H     H_    0.340159 0.641685 0.939636 0.174728
H2    H     H_    0.331506 0.372999 0.937236 0.171890
H3    H     H_    0.876093 0.663591 0.593995 0.176054
H4    H     H_    0.905719 0.304378 0.420270 0.196015
H5    H     H_    0.117661 0.700373 0.428629 0.174674
H6    H     H_    0.126469 0.548697 0.360240 0.153557
H7    H     H_    0.904859 0.702275 0.431603 0.194099
H8    H     H_    0.912540 0.553497 0.360859 0.164144
H9    H     H_    0.578349 0.115209 0.619495 0.218629
H10   H     H_    0.609383 0.872273 0.607900 0.220443
H11   H     H_    0.690663 0.127264 0.529777 0.201919
H12   H     H_    0.696086 0.889288 0.509183 0.206204
H13   H     H_    0.449630 0.121707 0.375554 0.022478
H14   H     H_    0.432084 0.883218 0.381066 -0.002061
H15   H     H_    0.305860 0.107621 0.494757 -0.002715
H16   H     H_    0.301289 0.879305 0.509943 0.028312
H17   H     H_    0.339047 0.639695 0.084382 0.163171
H18   H     H_    0.330629 0.371099 0.081961 0.163506
H19   H     H_    0.472975 0.271371 0.071348 0.172360
H20   H     H_    0.487265 0.728097 0.075689 0.174229
H21   H     H_    0.473731 0.273142 0.926632 0.174254
H22   H     H_    0.488474 0.729846 0.930962 0.167563
H23   H     H_    0.690600 0.585631 0.060574 0.172468
H24   H     H_    0.684696 0.397550 0.058822 0.171629
H25   H     H_    0.691600 0.587283 0.915893 0.170408
H26   H     H_    0.685578 0.399203 0.914149 0.170535
H27   H     H_    0.086640 0.671321 0.588177 0.216523
H28   H     H_    0.117380 0.303353 0.421440 0.153370
H29   H     H_    0.086575 0.500091 0.634885 0.213140
H30   H     H_    0.097776 0.279993 0.533925 0.240155
H31   H     H_    0.874215 0.488209 0.633894 0.162945
H32   H     H_    0.889123 0.277990 0.532915 0.177716
N1    N     N_3   0.500250 0.143650 0.501830 -0.264857
N2    N     N_3   0.500250 0.856350 0.501830 -0.262107
O1    O     O_R   0.317570 0.620260 0.500050 -0.574518
O2    O     O_R   0.317570 0.379740 0.500050 -0.560498
O3    O     O_R   0.499890 0.620310 0.379470 -0.539707
O4    O     O_R   0.499890 0.379690 0.379470 -0.561612
O5    O     O_R   0.682190 0.620260 0.500020 -0.580869
O6    O     O_R   0.682190 0.379740 0.500020 -0.578780
O7    O     O_R   0.499870 0.620210 0.620600 -0.508555
O8    O     O_R   0.499870 0.379790 0.620600 -0.527669
S1    S     S_3+6 0.296079 0.171091 0.638878 0.059852
O9    O     O_2   0.282262 0.326685 0.646020 -0.296300
O10   O     O_2   0.162345 0.122558 0.645683 -0.299314
O11   O     O_3   0.366408 0.123934 0.724316 -0.482181
H33   H     H_    0.308108 0.153182 0.773838 0.368182
S2    S     S_3+6 0.328886 0.839086 0.654751 0.071250
O12   O     O_2   0.216917 0.905067 0.703008 -0.222118
O13   O     O_2   0.287297 0.689832 0.650013 -0.310922
O14   O     O_3   0.445879 0.849557 0.717544 -0.530227
H34   H     H_    0.411506 0.808913 0.772262 0.358997
F1    F     F_    0.636714 0.125232 0.376223 -0.606937
F2    F     F_    0.619365 0.860640 0.368214 -0.602292

loop_
_geom_bond_atom_site_label_1
_geom_bond_atom_site_label_2
_ccdc_geom_bond_type
C24   H20   S    
Cu1   N2    S    
C18   S1    S    
C21   N2    S    
C24   C27   S    
C18   H15   S    
C2    H25   S    
Cu2   O6    S    
C27   H1    S    
C18   N1    S    
Cu1   O1    S    
C17   N2    S    
Cu2   O8    S    
C5    C6    T    
Cu1   O7    S    
C1    O2    A    
C19   N2    S    
C3    C29   S    
C18   C19   S    
C22   O6    A    
C11   H5    S    
C9    C13   S    
C17   H10   S    
C7    H29   S    
C25   H18   S    
C11   C15   S    
C26   H2    S    
O14   H34   S    
C16   C17   S    
C20   H13   S    
Cu2   O2    S    
Cu1   O5    S    
C27   C30   S    
C14   O4    A    
C1    C12   S    
C3    H23   S    
C23   O7    A    
S2    O14   S    
C7    H27   S    
C4    C28   T    
C5    C29   S    
C25   C29   S    
C7    C12   S    
C27   H22   S    
C20   N1    S    
S2    O13   D    
C19   H16   S    
Cu2   O4    S    
C25   C26   S    
C11   H6    S    
S1    O9    D    
C25   H19   S    
C6    C14   S    
C3    H24   S    
Cu1   Cu2   S    
Cu1   O3    S    
C8    C12   S    
C20   F1    S    
C23   C28   S    
S1    O10   D    
C16   H11   S    
C15   H7    S    
C26   C30   S    
C13   C15   S    
C14   O3    A    
C23   O8    A    
C26   H21   S    
C22   O5    A    
C21   H14   S    
C24   H17   S    
C7    C9    S    
C21   F2    S    
C9    H31   S    
C10   H32   S    
S2    O12   D    
C10   C13   S    
C11   C12   S    
C2    H26   S    
C2    C30   S    
C2    C3    S    
C17   H12   S    
C8    H28   S    
O11   H33   S    
C1    O1    A    
C13   C22   S    
C19   S2    S    
S1    O11   S    
C15   H8    S    
C24   C29   S    
C20   C21   S    
C8    C10   S    
C9    H3    S    
C10   H4    S    
C16   N1    S    
C16   H9    S    
C4    C30   S    
C8    H30   S    
Cu2   N1    S    
