data_mof_unit_37465.cif
_audit_creation_date              2012-12-10T17:31:04-0500
_audit_creation_method            fapswitch 2.2
_symmetry_space_group_name_H-M    P1
_symmetry_Int_Tables_number       1
_space_group_crystal_system       triclinic
_cell_length_a                    12.002673
_cell_length_b                    12.856652
_cell_length_c                    15.454345
_cell_angle_alpha                 87.238084
_cell_angle_beta                  115.54464
_cell_angle_gamma                 93.690132
_cell_volume                      2146.69306325

loop_
_atom_site_label
_atom_site_type_symbol
_atom_type_description
_atom_site_fract_x
_atom_site_fract_y
_atom_site_fract_z
_atom_type_partial_charge
C1    C     C_R   0.476544 0.299488 0.497607 0.876048
C2    C     C_R   0.627183 0.971405 0.467403 -0.228195
C3    C     C_R   0.375261 0.136255 0.523610 -0.205656
C4    C     C_R   0.624444 0.863715 0.475975 -0.205821
C5    C     C_R   0.543534 0.133138 0.475685 -0.284636
C6    C     C_R   0.456168 0.866854 0.523896 -0.284050
C7    C     C_R   0.542748 0.026291 0.485325 0.189414
C8    C     C_R   0.456895 0.973687 0.514182 0.189166
C9    C     C_R   0.994572 0.581207 0.396636 -0.426603
C10   C     C_R   0.005390 0.418816 0.603300 -0.426804
C11   C     C_R   0.118327 0.577506 0.409003 0.624940
C12   C     C_R   0.523404 0.700513 0.502301 0.873315
C13   C     C_R   0.881549 0.422230 0.590786 0.621344
C14   C     C_R   0.165671 0.467953 0.547316 -0.140992
C15   C     C_R   0.834399 0.532342 0.452833 -0.136367
C16   C     C_R   0.576479 0.497015 0.680570 0.872332
C17   C     C_R   0.424303 0.507867 0.319555 0.871500
C18   C     C_R   0.043287 0.471484 0.538226 0.042852
C19   C     C_R   0.956755 0.528777 0.461861 0.045950
C20   C     C_R   0.624823 0.512085 0.783780 -0.064604
C21   C     C_R   0.381597 0.530029 0.216922 -0.062036
C22   C     C_R   0.792285 0.539906 0.941078 -0.212699
C23   C     C_R   0.659440 0.582908 0.111342 -0.233453
C24   C     C_R   0.224187 0.574685 0.059692 -0.217862
C25   C     C_R   0.751709 0.517537 0.844340 -0.187376
C26   C     C_R   0.258063 0.549005 0.156259 -0.189974
C27   C     C_R   0.539960 0.530644 0.819982 -0.268557
C28   C     C_R   0.470651 0.539924 0.181311 -0.270340
C29   C     C_R   0.578388 0.558499 0.914841 0.094179
C30   C     C_R   0.440054 0.569578 0.086286 0.092970
C31   C     C_R   0.706282 0.558815 0.977074 0.179150
C32   C     C_R   0.313971 0.582818 0.023853 0.181700
C33   C     C_R   0.491368 0.578345 0.950425 0.067569
C34   C     C_R   0.366011 0.596794 0.889487 -0.236470
C35   C     C_R   0.530892 0.577722 0.050580 0.070589
C36   C     C_3   0.853986 0.266195 0.658664 0.090225
C37   C     C_3   0.787908 0.214617 0.715453 -0.782887
C38   C     C_3   0.145871 0.732697 0.339847 0.079451
C39   C     C_3   0.211486 0.783167 0.282281 -0.783114
C40   C     C_R   0.745819 0.575697 0.074491 -0.237682
C41   C     C_R   0.279227 0.601113 0.926285 -0.235309
C42   C     C_R   0.537412 0.811948 0.502591 -0.054544
C43   C     C_R   0.462376 0.188044 0.497093 -0.057703
C44   C     C_R   0.372455 0.028564 0.532099 -0.228047
H1    H     H_    0.843437 0.578850 0.122994 0.155189
H2    H     H_    0.127861 0.586535 0.012805 0.133228
H3    H     H_    0.695570 0.594697 0.187537 0.138778
H4    H     H_    0.333234 0.610193 0.813124 0.149833
H5    H     H_    0.390633 0.826340 0.546441 0.150185
H6    H     H_    0.609103 0.173668 0.453189 0.151178
H7    H     H_    0.687435 0.821033 0.459319 0.157692
H8    H     H_    0.312287 0.178923 0.540296 0.158044
H9    H     H_    0.305936 0.988478 0.553722 0.134866
H10   H     H_    0.693687 0.011484 0.445760 0.135442
H11   H     H_    0.767705 0.577839 0.395166 0.142206
H12   H     H_    0.183751 0.613961 0.877629 0.150341
H13   H     H_    0.232419 0.422615 0.605092 0.147983
H14   H     H_    0.952284 0.244974 0.694442 0.127052
H15   H     H_    0.810009 0.234726 0.584775 0.131928
H16   H     H_    0.689605 0.235390 0.683012 0.256508
H17   H     H_    0.791804 0.128564 0.715163 0.205376
H18   H     H_    0.833032 0.241053 0.790767 0.245819
H19   H     H_    0.190463 0.764768 0.413470 0.135400
H20   H     H_    0.047652 0.754099 0.304287 0.127145
H21   H     H_    0.164991 0.756921 0.206945 0.243057
H22   H     H_    0.208997 0.869333 0.282763 0.206807
H23   H     H_    0.928113 0.623201 0.335728 0.144138
H24   H     H_    0.309376 0.761274 0.313956 0.259494
H25   H     H_    0.071803 0.376652 0.664089 0.151873
H26   H     H_    0.563929 0.520224 0.228083 0.159773
H27   H     H_    0.442756 0.520081 0.773531 0.158583
H28   H     H_    0.188075 0.543308 0.183088 0.190858
H29   H     H_    0.818958 0.504506 0.817141 0.181967
H30   H     H_    0.890450 0.541637 0.987812 0.133981
N1    N     N_R   0.799120 0.480200 0.517090 -0.129347
N2    N     N_R   0.200880 0.519800 0.482910 -0.129099
O1    O     O_R   0.580150 0.341050 0.504560 -0.601731
O2    O     O_3   0.154582 0.623510 0.341871 -0.602852
O3    O     O_R   0.419850 0.658950 0.495440 -0.603986
O4    O     O_R   0.388090 0.353760 0.493600 -0.623699
O5    O     O_R   0.611910 0.646240 0.506400 -0.626296
O6    O     O_R   0.650890 0.490020 0.640860 -0.560849
O7    O     O_R   0.349110 0.509980 0.359140 -0.561017
O8    O     O_R   0.458830 0.502730 0.629890 -0.637590
O9    O     O_R   0.541170 0.497270 0.370110 -0.636116
O10   O     O_3   0.844915 0.375311 0.657391 -0.596584
Zn1   Zn    Zn3+2 0.628240 0.491510 0.507320 0.972128
Zn2   Zn    Zn3+2 0.371760 0.508490 0.492680 0.971396

loop_
_geom_bond_atom_site_label_1
_geom_bond_atom_site_label_2
_ccdc_geom_bond_type
C15   N1    A    
C21   C26   A    
C27   C29   A    
C1    O1    A    
C39   H24   S    
C14   C18   A    
C2    C7    A    
C36   H15   S    
C9    H23   S    
C37   H18   S    
C7    C8    A    
C15   C19   A    
C3    C43   A    
C30   C35   A    
C17   O9    A    
C36   C37   S    
C24   C26   A    
C36   H14   S    
C11   N2    A    
C38   C39   S    
C20   C25   A    
C23   C40   A    
C12   O3    A    
C29   C33   A    
C16   O8    A    
C26   H28   S    
C31   C40   A    
C18   C19   A    
C12   C42   S    
C44   H9    S    
C1    C43   S    
C13   N1    A    
C22   C25   A    
C13   O10   S    
C32   C41   A    
N2    Zn2   S    
O7    Zn2   S    
C5    C43   A    
C39   H21   S    
C34   C41   A    
O3    Zn2   S    
C9    C19   A    
C38   H20   S    
O9    Zn1   S    
C40   H1    S    
C3    C44   A    
C23   H3    S    
C22   C31   A    
C4    H7    S    
O8    Zn2   S    
C2    H10   S    
C5    C7    A    
C6    C8    A    
C38   O2    S    
C36   O10   S    
C17   C21   S    
C17   O7    A    
C15   H11   S    
C2    C4    A    
C24   C32   A    
C41   H12   S    
C11   O2    S    
C16   C20   S    
C16   O6    A    
C33   C34   A    
C9    C11   A    
O5    Zn1   S    
N1    Zn1   S    
C21   C28   A    
C23   C35   A    
C39   H22   S    
C5    H6    S    
C34   H4    S    
C22   H30   S    
C27   H27   S    
C38   H19   S    
C14   H13   S    
C28   H26   S    
C8    C44   A    
C10   C13   A    
C37   H17   S    
C3    H8    S    
C20   C27   A    
C24   H2    S    
C28   C30   A    
O4    Zn2   S    
C30   C32   A    
C4    C42   A    
C10   C18   A    
C33   C35   A    
C12   O5    A    
C25   H29   S    
C6    H5    S    
C37   H16   S    
C10   H25   S    
O1    Zn1   S    
C29   C31   A    
C6    C42   A    
C1    O4    A    
O6    Zn1   S    
C14   N2    A    
