data_mof_unit_42660.cif
_audit_creation_date              2012-12-10T17:48:50-0500
_audit_creation_method            fapswitch 2.2
_symmetry_space_group_name_H-M    P1
_symmetry_Int_Tables_number       1
_space_group_crystal_system       triclinic
_cell_length_a                    10.767728
_cell_length_b                    14.718499
_cell_length_c                    14.833502
_cell_angle_alpha                 64.375793
_cell_angle_beta                  104.056095
_cell_angle_gamma                 102.879776
_cell_volume                      2037.45092044

loop_
_atom_site_label
_atom_site_type_symbol
_atom_type_description
_atom_site_fract_x
_atom_site_fract_y
_atom_site_fract_z
_atom_type_partial_charge
C1    C     C_R   0.478174 0.120475 0.312341 0.787863
C2    C     C_3   0.876648 0.003900 0.491678 -0.091034
C3    C     C_3   0.938787 0.928014 0.597617 -0.203717
C4    C     C_3   0.953588 0.114076 0.469359 -0.203654
C5    C     C_R   0.448595 0.190315 0.205411 -0.094161
C6    C     C_R   0.523312 0.813071 0.795323 -0.030216
C7    C     C_R   0.316832 0.222215 0.039631 -0.178882
C8    C     C_R   0.359250 0.154856 0.137638 -0.180091
C9    C     C_R   0.496529 0.295120 0.173156 -0.087790
C10   C     C_R   0.436163 0.364747 0.080757 0.027829
C11   C     C_R   0.354307 0.326978 0.010717 0.161605
C12   C     C_R   0.260283 0.002271 0.496821 0.787048
C13   C     C_R   0.457544 0.471255 0.054834 0.001320
C14   C     C_R   0.427668 0.538658 0.952635 0.073533
C15   C     C_R   0.351609 0.498480 0.882531 -0.202550
C16   C     C_R   0.311634 0.394462 0.912509 -0.209293
C17   C     C_R   0.498181 0.511315 0.129572 -0.179257
C18   C     C_R   0.530662 0.615752 0.104550 -0.046867
C19   C     C_R   0.525381 0.682631 0.001307 0.062816
C20   C     C_R   0.473090 0.643844 0.924904 0.088225
C21   C     C_R   0.573738 0.786856 0.972084 -0.184598
C22   C     C_R   0.571942 0.851187 0.870330 -0.164576
C23   C     C_R   0.520005 0.880114 0.687602 0.838336
C24   C     C_R   0.474394 0.710347 0.822890 -0.151452
C25   C     C_R   0.746615 0.302325 0.635566 -0.285248
C26   C     C_R   0.698748 0.212056 0.623046 0.101148
C27   C     C_R   0.513075 0.282884 0.511424 0.075267
C28   C     C_R   0.555691 0.376802 0.521537 -0.008341
C29   C     C_R   0.676675 0.385192 0.584006 0.166258
C30   C     C_R   0.484924 0.462545 0.471704 0.109526
C31   C     C_R   0.533595 0.551835 0.491477 0.083442
C32   C     C_R   0.661436 0.560001 0.543059 -0.188242
C33   C     C_R   0.729829 0.477548 0.591082 -0.186997
C34   C     C_R   0.738542 0.003166 0.494013 0.759527
C35   C     C_R   0.370475 0.464276 0.400415 -0.188225
C36   C     C_R   0.306769 0.550339 0.351027 -0.159579
C37   C     C_R   0.348112 0.634398 0.376955 0.146085
C38   C     C_R   0.456836 0.633368 0.452720 -0.078482
C39   C     C_R   0.280200 0.718643 0.329583 -0.304702
C40   C     C_R   0.317835 0.799890 0.359645 0.062313
C41   C     C_R   0.480583 0.711938 0.489305 0.164650
C42   C     C_3   0.035118 0.959913 0.418275 -0.413185
C43   C     C_3   0.892258 0.971042 0.406899 -0.187456
C44   C     C_3   0.087140 0.938720 0.602962 -0.192068
C45   C     C_3   0.096079 0.115518 0.461300 -0.180473
C46   C     C_3   0.122393 0.003942 0.494405 -0.022168
Cu1   Cu    Cu3+1 0.465900 0.918260 0.475680 0.991605
Cu2   Cu    Cu3+1 0.534100 0.081740 0.524320 0.983526
H1    H     H_    0.047613 0.878755 0.444979 0.147050
H2    H     H_    0.138949 0.980508 0.651501 0.208227
H3    H     H_    0.249489 0.366585 0.857857 0.142329
H4    H     H_    0.441365 0.682837 0.763505 0.132099
H5    H     H_    0.610637 0.930666 0.850555 0.157668
H6    H     H_    0.251350 0.192657 0.987466 0.144767
H7    H     H_    0.321817 0.074858 0.160454 0.159619
H8    H     H_    0.066264 0.998026 0.342841 0.210714
H9    H     H_    0.315290 0.546208 0.805459 0.141892
H10   H     H_    0.497987 0.461282 0.208515 0.214637
H11   H     H_    0.616803 0.819662 0.026905 0.133999
H12   H     H_    0.826110 0.486718 0.632916 0.142594
H13   H     H_    0.222040 0.549870 0.294028 0.156732
H14   H     H_    0.839180 0.308137 0.683375 0.143724
H15   H     H_    0.865608 0.032611 0.331553 0.185607
H16   H     H_    0.712757 0.631291 0.544015 0.169343
H17   H     H_    0.330756 0.401669 0.378163 0.123110
H18   H     H_    0.198670 0.721887 0.269244 0.153331
H19   H     H_    0.158374 0.145351 0.517156 0.114583
N1    N     N_R   0.585360 0.204570 0.560800 -0.182538
N2    N     N_R   0.414550 0.795430 0.439160 -0.188695
O1    O     O_R   0.455060 0.022100 0.338110 -0.589468
O2    O     O_R   0.512640 0.160150 0.379180 -0.535342
O3    O     O_R   0.288900 0.930980 0.479450 -0.599047
O4    O     O_R   0.346480 0.069030 0.520520 -0.611087
O5    O     O_R   0.487360 0.839850 0.620820 -0.561899
O6    O     O_R   0.544940 0.977900 0.661890 -0.593101
O7    O     O_R   0.653520 0.930970 0.479480 -0.515916
O8    O     O_R   0.711100 0.069020 0.520550 -0.583588
H20   H     H_    0.957663 0.131796 0.535751 0.204989
C47   C     C_2   0.906846 0.935955 0.688002 0.384376
H21   H     H_    0.835445 0.878909 0.730155 0.083890
O9    O     O_2   0.957062 0.006431 0.712989 -0.571596
C48   C     C_2   0.570211 0.652019 0.188016 0.383005
H22   H     H_    0.558698 0.728167 0.175182 0.083575
O10   O     O_2   0.615556 0.596239 0.273208 -0.510388
C49   C     C_2   0.627466 0.328916 0.219214 0.344192
H23   H     H_    0.704561 0.358685 0.174396 0.097537
O11   O     O_2   0.648416 0.330496 0.303182 -0.477646
C50   C     C_2   0.553321 0.691280 0.592800 0.359699
H24   H     H_    0.520292 0.624268 0.655633 0.032539
O12   O     O_2   0.654735 0.743082 0.608373 -0.580151
H25   H     H_    0.267110 0.865767 0.321061 0.127878
H26   H     H_    0.754459 0.148999 0.659918 0.153183
H27   H     H_    0.424573 0.270903 0.463107 0.099253
C51   C     C_2   0.809506 0.873800 0.405160 0.440944
H28   H     H_    0.822986 0.801818 0.468973 0.076146
O13   O     O_2   0.728080 0.875211 0.331303 -0.537638
C52   C     C_2   0.131185 0.834537 0.652356 0.341031
H29   H     H_    0.094904 0.780005 0.617879 0.071690
O14   O     O_2   0.206932 0.810471 0.732172 -0.548189
H30   H     H_    0.895106 0.850076 0.603722 0.130182
C53   C     C_2   0.136958 0.187643 0.359591 0.398752
H31   H     H_    0.223187 0.242503 0.357723 0.057230
O15   O     O_2   0.076423 0.184112 0.279827 -0.564319
C54   C     C_2   0.886633 0.197454 0.380246 0.507189
H32   H     H_    0.813453 0.180262 0.323087 0.039706
O16   O     O_2   0.917012 0.285720 0.370928 -0.517020

loop_
_geom_bond_atom_site_label_1
_geom_bond_atom_site_label_2
_ccdc_geom_bond_type
C24   H4    S    
C53   H31   S    
C19   C20   A    
C16   H3    S    
C3    C47   S    
C54   O16   D    
C52   H29   S    
C43   H15   S    
C7    C8    A    
C49   H23   S    
C7    C11   A    
C1    O2    A    
C30   C35   A    
C1    C5    S    
C36   C37   A    
C19   C21   A    
Cu1   O7    S    
C21   H11   S    
C34   O8    A    
C42   C46   S    
C30   C31   A    
C35   H17   S    
C26   H26   S    
C15   C16   A    
C6    C22   A    
C29   C33   A    
C43   C51   S    
C4    H20   S    
C11   C16   A    
C20   C24   A    
Cu1   N2    S    
C27   N1    A    
C42   H8    S    
C3    H30   S    
C31   C32   A    
C45   H19   S    
C9    C10   A    
C17   H10   S    
C9    C49   S    
C2    C34   S    
C12   O3    A    
C53   O15   D    
C21   C22   A    
C15   H9    S    
Cu2   O6    S    
C8    H7    S    
C12   O4    A    
C54   H32   S    
C52   O14   D    
C44   C46   S    
C22   H5    S    
C4    C45   S    
C49   O11   D    
C25   C29   A    
C3    C44   S    
C40   N2    A    
C14   C20   A    
C32   H16   S    
C38   C41   A    
C12   C46   S    
C39   C40   A    
C47   O9    D    
C18   C19   A    
C25   C26   A    
C45   C46   S    
C35   C36   A    
Cu2   O8    S    
C2    C4    S    
Cu1   O1    S    
C5    C9    A    
C37   C38   A    
C44   C52   S    
Cu1   Cu2   S    
C2    C43   S    
C6    C24   A    
C17   C18   A    
Cu2   N1    S    
C51   O13   D    
C45   C53   S    
C50   O12   D    
C33   H12   S    
C48   O10   D    
C39   H18   S    
C27   H27   S    
C42   C43   S    
C23   O5    A    
C36   H13   S    
C41   N2    A    
C44   H2    S    
C41   C50   S    
C28   C29   A    
Cu2   O4    S    
Cu1   O5    S    
C23   O6    A    
C10   C13   A    
C5    C8    A    
C1    O1    A    
C31   C38   A    
C13   C17   A    
C26   N1    A    
C32   C33   A    
C28   C30   A    
C2    C3    S    
C37   C39   A    
C6    C23   S    
C4    C54   S    
C18   C48   S    
C25   H14   S    
C40   H25   S    
C51   H28   S    
Cu1   O3    S    
C10   C11   A    
C42   H1    S    
C47   H21   S    
C50   H24   S    
C48   H22   S    
C27   C28   A    
C14   C15   A    
Cu2   O2    S    
C7    H6    S    
C13   C14   A    
C34   O7    A    
