data_mof_unit_41645.cif
_audit_creation_date              2012-10-26T19:04:14-0400
_audit_creation_method            fapswitch 2.2
_symmetry_space_group_name_H-M    P1
_symmetry_Int_Tables_number       1
_space_group_crystal_system       triclinic
_cell_length_a                    14.769629
_cell_length_b                    15.915214
_cell_length_c                    9.620292
_cell_angle_alpha                 89.999765
_cell_angle_beta                  88.983358
_cell_angle_gamma                 90.000088
_cell_volume                      2261.0072388

loop_
_atom_site_label
_atom_site_type_symbol
_atom_type_description
_atom_site_fract_x
_atom_site_fract_y
_atom_site_fract_z
_atom_type_partial_charge
C1    C     C_R   0.385996 0.877088 0.501524 0.548965
C2    C     C_R   0.727776 0.210531 0.380709 -0.172916
C3    C     C_R   0.227770 0.289464 0.380709 -0.172914
C4    C     C_R   0.226816 0.711426 0.380131 -0.173296
C5    C     C_R   0.679551 0.808415 0.502913 -0.010315
C6    C     C_R   0.680399 0.190976 0.503487 -0.009033
C7    C     C_R   0.180398 0.309023 0.503490 -0.009017
C8    C     C_R   0.179552 0.691584 0.502913 -0.010312
C9    C     C_R   0.665682 0.996496 0.139712 -0.130495
C10   C     C_R   0.165682 0.503525 0.139710 -0.130517
C11   C     C_R   0.747055 0.989741 0.066204 -0.170504
C12   C     C_R   0.386196 0.123014 0.501465 0.549293
C13   C     C_R   0.247052 0.510311 0.066199 -0.170420
C14   C     C_R   0.747975 0.987834 0.922082 -0.000886
C15   C     C_R   0.247973 0.512197 0.922075 -0.000886
C16   C     C_R   0.666337 0.995159 0.852078 -0.071085
C17   C     C_R   0.166335 0.504848 0.852077 -0.071145
C18   C     C_R   0.581706 0.998217 0.923164 0.114974
C19   C     C_R   0.081705 0.501786 0.923164 0.114984
C20   C     C_R   0.581499 0.998381 0.072398 0.122700
C21   C     C_R   0.081499 0.501624 0.072398 0.122701
C22   C     C_R   0.422604 0.001140 0.079071 0.002586
C23   C     C_R   0.886197 0.376986 0.501465 0.549300
C24   C     C_R   0.922604 0.498855 0.079071 0.002592
C25   C     C_R   0.615405 0.121714 0.500324 0.533944
C26   C     C_R   0.615137 0.878114 0.500197 0.533231
C27   C     C_R   0.115137 0.621885 0.500197 0.533230
C28   C     C_R   0.115405 0.378286 0.500325 0.533944
C29   C     C_R   0.420447 0.000893 0.931173 0.084231
C30   C     C_R   0.920447 0.499103 0.931173 0.084232
C31   C     C_R   0.328882 0.215502 0.764115 -0.143090
C32   C     C_R   0.326757 0.785285 0.764807 -0.136832
C33   C     C_R   0.826750 0.714709 0.764809 -0.136806
C34   C     C_R   0.885995 0.622911 0.501524 0.548965
C35   C     C_R   0.828885 0.284491 0.764112 -0.143074
C36   C     C_R   0.279648 0.227808 0.887221 -0.133471
C37   C     C_R   0.276492 0.773584 0.887282 -0.130053
C38   C     C_R   0.776485 0.726412 0.887284 -0.130003
C39   C     C_R   0.779654 0.272174 0.887218 -0.133384
C40   C     C_R   0.685631 0.750391 0.881476 0.010094
C41   C     C_R   0.688987 0.247528 0.882830 0.010045
C42   C     C_R   0.188983 0.252461 0.882834 0.010023
C43   C     C_R   0.185637 0.749607 0.881476 0.010095
C44   C     C_R   0.650164 0.773128 0.752843 -0.085875
C45   C     C_R   0.295038 0.229077 0.380653 -0.168149
C46   C     C_R   0.652525 0.225279 0.754580 -0.086302
C47   C     C_R   0.152526 0.274721 0.754585 -0.086295
C48   C     C_R   0.150168 0.726870 0.752845 -0.085860
C49   C     C_R   0.703963 0.769398 0.629654 0.010376
C50   C     C_R   0.705359 0.229701 0.630392 0.010050
C51   C     C_R   0.205360 0.270300 0.630397 0.010139
C52   C     C_R   0.203967 0.730599 0.629654 0.010397
C53   C     C_R   0.287854 0.226489 0.633735 0.014781
C54   C     C_R   0.286555 0.774180 0.633760 0.016173
C55   C     C_R   0.786551 0.725816 0.633761 0.016158
C56   C     C_R   0.294318 0.771575 0.380556 -0.168040
C57   C     C_R   0.787854 0.273511 0.633733 0.014686
C58   C     C_R   0.325151 0.195789 0.506356 -0.006077
C59   C     C_R   0.324489 0.804604 0.506472 -0.007289
C60   C     C_R   0.824486 0.695394 0.506473 -0.007289
C61   C     C_R   0.825153 0.304210 0.506355 -0.006068
C62   C     C_3   0.836273 0.976716 0.842881 -0.271178
C63   C     C_3   0.891236 0.057764 0.841745 -0.448875
C64   C     C_3   0.336265 0.523357 0.842864 -0.271049
C65   C     C_3   0.391569 0.442510 0.842518 -0.448989
C66   C     C_3   0.327307 0.000975 0.863821 -0.242847
C67   C     C_R   0.794317 0.728424 0.380557 -0.168037
C68   C     C_3   0.242706 0.001355 0.959858 -0.353193
C69   C     C_3   0.156416 0.001832 0.874426 -0.458657
C70   C     C_3   0.827308 0.499016 0.863821 -0.242842
C71   C     C_3   0.742709 0.498642 0.959862 -0.353200
C72   C     C_3   0.656418 0.498166 0.874434 -0.458683
C73   C     C_3   0.629150 0.758690 0.012895 -0.251642
C74   C     C_3   0.544144 0.703342 0.012135 -0.309360
C75   C     C_3   0.485415 0.719087 0.141511 -0.447163
C76   C     C_3   0.634231 0.237701 0.015563 -0.251423
C77   C     C_3   0.547646 0.290780 0.017765 -0.312349
C78   C     C_R   0.795042 0.270920 0.380652 -0.168144
C79   C     C_3   0.492621 0.275309 0.151003 -0.446629
C80   C     C_3   0.134229 0.262284 0.015571 -0.251413
C81   C     C_3   0.047625 0.209232 0.017753 -0.312362
C82   C     C_3   0.992625 0.224676 0.151024 -0.446639
C83   C     C_3   0.129158 0.741309 0.012898 -0.251639
C84   C     C_3   0.044148 0.796651 0.012136 -0.309378
C85   C     C_3   0.985431 0.780918 0.141531 -0.447162
C86   C     C_R   0.726816 0.788574 0.380132 -0.173289
Cu1   Cu    Cu3+1 0.499990 0.000000 0.640660 0.876395
Cu2   Cu    Cu3+1 0.999990 0.500000 0.640660 0.876396
Cu3   Cu    Cu3+1 0.500010 0.000000 0.359340 0.890399
Cu4   Cu    Cu3+1 0.000010 0.500000 0.359340 0.890393
H1    H     H_    0.324204 0.209397 0.281958 0.123459
H2    H     H_    0.899237 0.301650 0.773182 0.137148
H3    H     H_    0.312043 0.216332 0.985569 0.101012
H4    H     H_    0.308047 0.785448 0.986146 0.098982
H5    H     H_    0.808039 0.714547 0.986149 0.098983
H6    H     H_    0.812052 0.283642 0.985566 0.100992
H7    H     H_    0.579997 0.791901 0.750365 0.137998
H8    H     H_    0.582398 0.206409 0.753343 0.138714
H9    H     H_    0.082400 0.293595 0.753351 0.138710
H10   H     H_    0.080001 0.708097 0.750368 0.137996
H11   H     H_    0.711265 0.819423 0.283379 0.129241
H12   H     H_    0.323583 0.791312 0.281984 0.124540
H13   H     H_    0.712490 0.179134 0.284395 0.128453
H14   H     H_    0.212480 0.320855 0.284392 0.128461
H15   H     H_    0.211263 0.680579 0.283378 0.129238
H16   H     H_    0.361704 0.001984 0.142337 0.127754
H17   H     H_    0.861705 0.498008 0.142339 0.127756
H18   H     H_    0.672364 0.999315 0.249397 0.191122
H19   H     H_    0.172366 0.500696 0.249394 0.191115
H20   H     H_    0.809866 0.985752 0.122385 0.114164
H21   H     H_    0.309858 0.514337 0.122385 0.114196
H22   H     H_    0.853182 0.108019 0.788301 0.174569
H23   H     H_    0.823583 0.708689 0.281985 0.124538
H24   H     H_    0.905862 0.077915 0.949494 0.150099
H25   H     H_    0.956383 0.047586 0.784904 0.131459
H26   H     H_    0.876221 0.925553 0.891185 0.146213
H27   H     H_    0.823929 0.957656 0.733615 0.141405
H28   H     H_    0.406501 0.422936 0.950448 0.149812
H29   H     H_    0.353620 0.391855 0.789924 0.174632
H30   H     H_    0.456560 0.452660 0.785235 0.131509
H31   H     H_    0.323908 0.541996 0.733405 0.141317
H32   H     H_    0.375979 0.574823 0.890754 0.146323
H33   H     H_    0.154102 0.058716 0.807607 0.164546
H34   H     H_    0.824210 0.290598 0.281957 0.123454
H35   H     H_    0.153270 0.944868 0.807903 0.165409
H36   H     H_    0.096327 0.002339 0.945142 0.130323
H37   H     H_    0.241831 0.944288 0.026560 0.158886
H38   H     H_    0.242386 0.058466 0.026454 0.159128
H39   H     H_    0.320473 0.056641 0.799385 0.199218
H40   H     H_    0.320339 0.945161 0.799521 0.197889
H41   H     H_    0.653275 0.555124 0.807897 0.165422
H42   H     H_    0.654096 0.441275 0.807632 0.164554
H43   H     H_    0.596333 0.497669 0.945158 0.130315
H44   H     H_    0.742387 0.441534 0.026463 0.159122
H45   H     H_    0.672756 0.998418 0.742198 0.191202
H46   H     H_    0.741837 0.555712 0.026557 0.158887
H47   H     H_    0.820339 0.554825 0.799510 0.197892
H48   H     H_    0.820473 0.443345 0.799398 0.199211
H49   H     H_    0.523566 0.704172 0.236908 0.163790
H50   H     H_    0.463802 0.785926 0.145094 0.168800
H51   H     H_    0.424181 0.678643 0.138586 0.130439
H52   H     H_    0.502922 0.716380 0.919283 0.146339
H53   H     H_    0.564305 0.636314 0.009958 0.165616
H54   H     H_    0.669830 0.740083 0.103538 0.134670
H55   H     H_    0.609426 0.825504 0.025885 0.161465
H56   H     H_    0.172748 0.501581 0.742199 0.191180
H57   H     H_    0.472745 0.208096 0.158023 0.175785
H58   H     H_    0.532772 0.292209 0.243494 0.163724
H59   H     H_    0.430347 0.314395 0.150616 0.129201
H60   H     H_    0.565768 0.358260 0.011968 0.165109
H61   H     H_    0.504617 0.275269 0.927983 0.148477
H62   H     H_    0.616779 0.170385 0.029151 0.160464
H63   H     H_    0.675509 0.257638 0.104696 0.134640
H64   H     H_    0.032787 0.207742 0.243487 0.163720
H65   H     H_    0.972765 0.291891 0.158100 0.175806
H66   H     H_    0.930342 0.185601 0.150633 0.129148
H67   H     H_    0.399234 0.198342 0.773188 0.137138
H68   H     H_    0.004590 0.224792 0.928002 0.148427
H69   H     H_    0.065715 0.141747 0.011883 0.165130
H70   H     H_    0.175501 0.242324 0.104698 0.134647
H71   H     H_    0.116800 0.329604 0.029184 0.160453
H72   H     H_    0.963827 0.714078 0.145147 0.168820
H73   H     H_    0.023589 0.795853 0.236913 0.163785
H74   H     H_    0.924191 0.821354 0.138602 0.130431
H75   H     H_    0.064303 0.863681 0.009929 0.165590
H76   H     H_    0.002918 0.783597 0.919298 0.146349
H77   H     H_    0.109437 0.674494 0.025896 0.161468
H78   H     H_    0.397027 0.802487 0.774918 0.136180
H79   H     H_    0.169838 0.759923 0.103537 0.134675
H80   H     H_    0.897020 0.697505 0.774924 0.136183
N1    N     N_R   0.501200 0.000000 0.147910 -0.259638
N2    N     N_R   0.001200 0.500000 0.147910 -0.259638
N3    N     N_R   0.501270 0.000000 0.852040 -0.249815
N4    N     N_R   0.001270 0.500000 0.852040 -0.249814
O1    O     O_R   0.409820 0.909830 0.618810 -0.526946
O2    O     O_R   0.590170 0.909830 0.618760 -0.533516
O3    O     O_R   0.090170 0.590170 0.618760 -0.533512
O4    O     O_R   0.090170 0.409830 0.618760 -0.531948
O5    O     O_R   0.590190 0.090180 0.381190 -0.521298
O6    O     O_R   0.590190 0.909820 0.381190 -0.519704
O7    O     O_R   0.090190 0.590180 0.381190 -0.519706
O8    O     O_R   0.090190 0.409820 0.381190 -0.521300
O9    O     O_R   0.409820 0.090170 0.618810 -0.526829
O10   O     O_R   0.909820 0.409830 0.618810 -0.526826
O11   O     O_R   0.909820 0.590170 0.618810 -0.526949
O12   O     O_R   0.409840 0.909830 0.381240 -0.503425
O13   O     O_R   0.409840 0.090170 0.381240 -0.505699
O14   O     O_R   0.909840 0.409830 0.381240 -0.505706
O15   O     O_R   0.909840 0.590170 0.381240 -0.503426
O16   O     O_R   0.590170 0.090170 0.618760 -0.531947

loop_
_geom_bond_atom_site_label_1
_geom_bond_atom_site_label_2
_ccdc_geom_bond_type
C44   C49   A    
C33   C55   A    
C66   C68   S    
C74   H53   S    
C42   C80   S    
C81   H69   S    
C22   C29   A    
C43   C83   S    
Cu3   O12   S    
C36   C42   A    
C4    C8    A    
C39   H6    S    
C77   H61   S    
C71   H44   S    
C81   C82   S    
C47   H9    S    
Cu2   O3    S    
C39   C41   A    
C1    O12   A    
C9    H18   S    
Cu1   O2    S    
C19   C21   A    
C3    C7    A    
C25   O16   A    
C1    C59   S    
Cu1   O9    S    
C23   O14   A    
C11   C14   A    
C80   H70   S    
C6    C25   S    
C69   H33   S    
C64   H31   S    
C14   C62   S    
C76   H63   S    
Cu2   N4    S    
C40   C73   S    
C10   H19   S    
C73   C74   S    
Cu3   O6    S    
C63   H22   S    
C28   O8    A    
C62   H27   S    
C84   H75   S    
C75   H51   S    
C63   H24   S    
C36   H3    S    
Cu4   O8    S    
C60   C67   A    
C68   C69   S    
C38   H5    S    
C15   C64   S    
C70   C71   S    
C78   H34   S    
C43   C48   A    
C8    C52   A    
C40   C44   A    
C22   N1    A    
C79   H59   S    
C66   H39   S    
C63   H25   S    
C35   H2    S    
C73   H54   S    
C74   H52   S    
C69   H35   S    
C55   C60   A    
C4    C56   A    
C11   H20   S    
C34   C60   S    
C85   H72   S    
Cu3   O13   S    
C5    C49   A    
C2    C6    A    
C24   N2    A    
C3    H14   S    
Cu1   N3    S    
C33   H80   S    
C32   C54   A    
C30   C70   S    
C52   C54   A    
C75   H50   S    
C72   H42   S    
C54   C59   A    
C77   C79   S    
C10   C21   A    
C48   H10   S    
C45   C58   A    
C74   C75   S    
C84   C85   S    
Cu3   N1    S    
Cu2   O10   S    
C71   H46   S    
C47   C51   A    
C49   C55   A    
C12   O13   A    
C83   H77   S    
C3    C45   A    
C31   C53   A    
C7    C28   S    
C29   C66   S    
C73   H55   S    
C51   C53   A    
C82   H64   S    
C37   C43   A    
C34   O11   A    
C35   C39   A    
C27   O7    A    
C62   H26   S    
C62   C63   S    
C2    C78   A    
C44   H7    S    
C9    C20   A    
C83   C84   S    
Cu4   O7    S    
C26   O2    A    
C61   C78   A    
C41   C46   A    
C65   H29   S    
C24   H17   S    
C32   C37   A    
C76   C77   S    
C57   C61   A    
C9    C11   A    
C68   H37   S    
C31   H67   S    
C12   C58   S    
Cu1   O16   S    
C5    C86   A    
Cu2   O11   S    
Cu2   Cu4   S    
C69   H36   S    
C70   H48   S    
C65   H28   S    
Cu1   Cu3   S    
C13   C15   A    
C85   H73   S    
C14   C16   A    
C82   H65   S    
C72   H41   S    
C23   C61   S    
C15   C17   A    
C68   H38   S    
C1    O1    A    
C67   C86   A    
C81   H68   S    
C6    C50   A    
C50   C57   A    
C34   O15   A    
C27   O3    A    
C29   N3    A    
C80   C81   S    
C10   C13   A    
C77   H60   S    
C79   H57   S    
C53   C58   A    
C25   O5    A    
Cu2   O4    S    
C79   H58   S    
C26   O6    A    
C21   N2    A    
Cu1   O1    S    
C4    H15   S    
C46   C50   A    
C33   C38   A    
C56   C59   A    
C35   C57   A    
C64   C65   S    
C32   H78   S    
C17   H56   S    
C67   H23   S    
C19   N4    A    
C7    C51   A    
C71   C72   S    
C13   H21   S    
C22   H16   S    
C41   C76   S    
C38   C40   A    
C86   H11   S    
C72   H43   S    
Cu4   O14   S    
C2    H13   S    
C64   H32   S    
C83   H79   S    
C23   O10   A    
C17   C19   A    
C65   H30   S    
C37   H4    S    
C18   C20   A    
C42   C47   A    
Cu3   O5    S    
C46   H8    S    
C45   H1    S    
C24   C30   A    
C80   H71   S    
C84   H76   S    
C56   H12   S    
C5    C26   S    
C12   O9    A    
C18   N3    A    
C48   C52   A    
C20   N1    A    
C70   H47   S    
C16   C18   A    
Cu4   N2    S    
C82   H66   S    
C8    C27   S    
C76   H62   S    
C31   C36   A    
C75   H49   S    
C16   H45   S    
C28   O4    A    
C30   N4    A    
C85   H74   S    
C66   H40   S    
Cu4   O15   S    
