data_mof_unit_27209.cif
_audit_creation_date              2012-12-10T17:54:23-0500
_audit_creation_method            fapswitch 2.2
_symmetry_space_group_name_H-M    P1
_symmetry_Int_Tables_number       1
_space_group_crystal_system       triclinic
_cell_length_a                    27.068677
_cell_length_b                    10.633847
_cell_length_c                    9.970487
_cell_angle_alpha                 89.424137
_cell_angle_beta                  89.739469
_cell_angle_gamma                 94.510413
_cell_volume                      2860.87297813

loop_
_atom_site_label
_atom_site_type_symbol
_atom_type_description
_atom_site_fract_x
_atom_site_fract_y
_atom_site_fract_z
_atom_type_partial_charge
C1    C     C_R   0.505806 0.261865 0.501129 0.891262
C2    C     C_R   0.273306 0.514237 0.618122 0.149622
C3    C     C_R   0.248768 0.519823 0.494782 0.287366
C4    C     C_R   0.097060 0.564117 0.451415 -0.149472
C5    C     C_R   0.113543 0.441220 0.462376 -0.157055
C6    C     C_R   0.078354 0.335708 0.457635 0.462976
C7    C     C_R   0.130814 0.671151 0.469966 0.002049
C8    C     C_R   0.351535 0.505794 0.499356 -0.106271
C9    C     C_R   0.647448 0.528930 0.496995 -0.219293
C10   C     C_R   0.966702 0.493301 0.341766 0.004849
C11   C     C_R   0.977837 0.715893 0.404197 0.055546
C12   C     C_R   0.405552 0.501110 0.500148 0.862732
C13   C     C_R   0.947020 0.610289 0.362407 0.096723
C14   C     C_R   0.938811 0.401668 0.267033 -0.288668
C15   C     C_R   0.888867 0.412558 0.240453 0.444186
C16   C     C_R   0.866053 0.518306 0.288619 -0.133634
C17   C     C_R   0.895883 0.619950 0.343609 -0.144811
C18   C     C_R   0.874240 0.731874 0.376991 -0.021383
C19   C     C_R   0.822160 0.728695 0.377148 0.631341
C20   C     C_R   0.814447 0.525636 0.292403 0.558806
C21   C     C_R   0.728387 0.456135 0.461045 0.151612
C22   C     C_R   0.677524 0.430544 0.478484 -0.196455
C23   C     C_R   0.495463 0.738975 0.499978 0.942792
C24   C     C_R   0.668757 0.651667 0.517601 0.290498
C25   C     C_R   0.720097 0.677069 0.502372 0.406115
C26   C     C_R   0.748309 0.584019 0.444238 0.019179
C27   C     C_R   0.014134 0.473274 0.392680 -0.036626
C28   C     C_R   0.046793 0.580062 0.421790 0.060304
C29   C     C_R   0.029255 0.702615 0.421762 0.056301
C30   C     C_R   0.028982 0.351126 0.424659 0.024068
C31   C     C_R   0.113546 0.792871 0.464314 0.117736
C32   C     C_R   0.955979 0.830329 0.427275 -0.262125
C33   C     C_R   0.904856 0.838981 0.414420 0.143304
C34   C     C_R   0.594124 0.503056 0.499612 0.975409
C35   C     C_R   0.063527 0.807244 0.441411 -0.242247
C36   C     C_R   0.528018 0.109376 0.752300 0.438292
C37   C     C_R   0.510794 0.050309 0.871208 -0.218367
C38   C     C_R   0.477372 0.944111 0.866540 -0.303978
C39   C     C_R   0.465927 0.886577 0.743439 0.132706
C40   C     C_R   0.488483 0.938139 0.623766 0.060126
C41   C     C_R   0.511028 0.060861 0.626994 -0.018183
C42   C     C_R   0.513520 0.129326 0.504272 -0.084455
C43   C     C_R   0.510865 0.066554 0.381848 -0.185699
C44   C     C_R   0.501668 0.938292 0.380556 -0.204090
C45   C     C_R   0.164663 0.429208 0.479675 0.568402
C46   C     C_R   0.491091 0.872871 0.500855 -0.075386
C47   C     C_R   0.418865 0.372115 0.139424 0.169670
C48   C     C_R   0.374096 0.352125 0.071442 -0.274653
C49   C     C_R   0.374119 0.352456 0.933978 -0.291677
C50   C     C_R   0.418913 0.372797 0.864797 0.169337
C51   C     C_R   0.460731 0.436517 0.928939 0.057404
C52   C     C_R   0.460801 0.436046 0.073355 0.073863
C53   C     C_R   0.535509 0.569025 0.068804 0.084093
C54   C     C_R   0.535941 0.565695 0.925473 0.153593
C55   C     C_R   0.181096 0.652547 0.491021 0.528408
C56   C     C_R   0.275543 0.518098 0.373593 0.097842
C57   C     C_R   0.326568 0.511426 0.376735 -0.202579
C58   C     C_R   0.324683 0.507651 0.619924 -0.287186
H1    H     H_    0.343418 0.505741 0.715426 0.170779
H2    H     H_    0.977129 0.913475 0.462616 0.160309
H3    H     H_    0.052940 0.902723 0.435088 0.184069
H4    H     H_    0.515017 0.116497 0.286680 0.172008
H5    H     H_    0.522681 0.087913 0.967357 0.179467
H6    H     H_    0.461449 0.904143 0.958836 0.159024
H7    H     H_    0.503033 0.890745 0.285123 0.163276
H8    H     H_    0.341238 0.311749 0.123352 0.173316
H9    H     H_    0.341313 0.312188 0.883431 0.165385
H10   H     H_    0.661630 0.333697 0.480661 0.197180
H11   H     H_    0.955682 0.320902 0.228114 0.183561
H12   H     H_    0.346645 0.512738 0.282637 0.181076
N1    N     N_R   0.196677 0.533879 0.491508 -0.357698
N2    N     N_R   0.795146 0.614371 0.371556 -0.340807
N3    N     N_R   0.499540 0.498800 0.142780 -0.129279
N4    N     N_R   0.499520 0.498720 0.857170 -0.111189
O1    O     O_R   0.500000 0.316780 0.614690 -0.573937
O2    O     O_2   0.783883 0.446547 0.220572 -0.466777
O3    O     O_2   0.214757 0.751525 0.508094 -0.528097
O4    O     O_2   0.799504 0.836658 0.370336 -0.440364
O5    O     O_R   0.500000 0.316750 0.385360 -0.605376
O6    O     O_R   0.428760 0.500030 0.614650 -0.613308
O7    O     O_R   0.428750 0.500010 0.385320 -0.613606
O8    O     O_R   0.500000 0.683250 0.614640 -0.584315
O9    O     O_R   0.500000 0.683220 0.385310 -0.658785
O10   O     O_R   0.571250 0.499990 0.614680 -0.533181
O11   O     O_R   0.571240 0.499970 0.385350 -0.623431
O12   O     O_2   0.183044 0.315024 0.480360 -0.495116
Zn1   Zn    Zn3+2 0.500000 0.500020 0.653130 1.017882
Zn2   Zn    Zn3+2 0.500000 0.499980 0.346870 0.959518
N5    N     N_3   0.251541 0.525136 0.246297 -0.463664
H13   H     H_    0.233393 0.608292 0.242409 0.200705
H14   H     H_    0.224917 0.448824 0.239357 0.205478
N6    N     N_3   0.146509 0.903533 0.482253 -0.350039
H15   H     H_    0.134744 0.950830 0.566545 0.252642
H16   H     H_    0.144137 0.962137 0.398062 0.236734
Cl1   Cl    Cl    0.631460 0.773357 0.565040 -0.532538
N7    N     N_3   0.884295 0.955277 0.446451 -0.342970
H17   H     H_    0.900931 0.026074 0.383857 0.205301
H18   H     H_    0.893658 0.978024 0.545398 0.209195
Cl2   Cl    Cl    0.747786 0.799811 0.602046 -0.431476
Cl3   Cl    Cl    0.577308 0.227537 0.764797 -0.562572
N8    N     N_3   0.245925 0.516965 0.741069 -0.431028
H19   H     H_    0.252088 0.435534 0.796155 0.193191
H20   H     H_    0.260317 0.594647 0.795883 0.198801
N9    N     N_3   0.428076 0.784461 0.738954 -0.440693
H21   H     H_    0.394966 0.818122 0.772435 0.180395
H22   H     H_    0.437285 0.714685 0.807055 0.202458
N10   N     N_3   0.573007 0.649762 0.133466 -0.414552
H23   H     H_    0.571100 0.741004 0.094976 0.159411
H24   H     H_    0.564271 0.659569 0.233499 0.265996
N11   N     N_3   0.424166 0.293235 0.253824 -0.367822
H25   H     H_    0.428093 0.201889 0.219519 0.164491
H26   H     H_    0.391776 0.288586 0.312000 0.170198
N12   N     N_3   0.424451 0.294307 0.751730 -0.365995
H27   H     H_    0.427770 0.202640 0.787635 0.172192
H28   H     H_    0.392231 0.290439 0.693800 0.167729
N13   N     N_3   0.573933 0.636376 0.850067 -0.337612
H29   H     H_    0.571158 0.732477 0.866406 0.200146
H30   H     H_    0.608440 0.611807 0.883736 0.233878
Cl4   Cl    Cl    0.092798 0.181696 0.503429 -0.613568
N14   N     N_3   0.758967 0.352795 0.479591 -0.380726
H31   H     H_    0.795844 0.384356 0.497412 0.197859
H32   H     H_    0.756423 0.294800 0.395570 0.272204
Cl5   Cl    Cl    0.856967 0.285159 0.157366 -0.499496
N15   N     N_3   0.993624 0.244486 0.447049 -0.415852
H33   H     H_    0.989897 0.190438 0.360288 0.196257
H34   H     H_    0.959532 0.272172 0.480589 0.209543

loop_
_geom_bond_atom_site_label_1
_geom_bond_atom_site_label_2
_ccdc_geom_bond_type
C10   C27   A    
C21   C26   A    
N8    H19   S    
C23   O8    A    
C45   N1    A    
C26   N2    S    
C41   C42   A    
O10   Zn1   S    
C7    C55   A    
N9    H22   S    
C19   N2    A    
C39   N9    S    
C53   C54   A    
N13   H29   S    
C40   C46   A    
C28   C29   A    
C15   Cl5   S    
C36   C37   A    
C21   N14   S    
C5    C6    A    
C55   O3    S    
C9    C22   A    
C15   C16   A    
C56   C57   A    
C20   O2    S    
C18   C19   A    
N11   H25   S    
O5    Zn2   S    
C4    C28   A    
C54   N4    A    
C25   Cl2   S    
N14   H32   S    
C16   C17   A    
N7    H18   S    
N10   H23   S    
C51   N4    A    
N4    Zn1   S    
N5    H14   S    
C8    C12   S    
C8    C58   A    
O9    Zn2   S    
N8    H20   S    
C23   C46   S    
C21   C22   A    
C27   C30   A    
N10   H24   S    
C36   C41   A    
C34   O10   A    
C4    C7    A    
N9    H21   S    
C37   H5    S    
C44   C46   A    
C50   C51   A    
C38   H6    S    
C7    C31   A    
C51   C52   A    
C1    O1    A    
C24   C25   A    
C36   Cl3   S    
C52   N3    A    
C10   C14   A    
C24   Cl1   S    
C39   C40   A    
C2    N8    S    
C58   H1    S    
C5    C45   A    
C54   N13   S    
C34   O11   A    
C19   O4    S    
C3    N1    S    
C43   C44   A    
N3    Zn2   S    
C37   C38   A    
C8    C57   A    
C3    C56   A    
C53   N10   S    
C47   C48   A    
C16   C20   A    
N7    H17   S    
N6    H16   S    
C17   C18   A    
C35   H3    S    
C22   H10   S    
C23   O9    A    
O1    Zn1   S    
C40   C41   A    
C6    C30   A    
C30   N15   S    
C11   C32   A    
C49   C50   A    
C9    C34   S    
C1    O5    A    
C14   H11   S    
C31   C35   A    
C42   C43   A    
C32   H2    S    
C33   N7    S    
C6    Cl4   S    
N14   H31   S    
N15   H34   S    
N12   H27   S    
O11   Zn2   S    
C56   N5    S    
C49   H9    S    
C53   N3    A    
C4    C5    A    
C10   C13   A    
C2    C58   A    
C9    C24   A    
C47   C52   A    
O6    Zn1   S    
C47   N11   S    
C29   C35   A    
C13   C17   A    
C50   N12   S    
C32   C33   A    
C2    C3    A    
C25   C26   A    
C11   C13   A    
C38   C39   A    
C48   C49   A    
C12   O6    A    
C44   H7    S    
N6    H15   S    
N13   H30   S    
C12   O7    A    
C45   O12   S    
C18   C33   A    
N11   H26   S    
O7    Zn2   S    
C57   H12   S    
C1    C42   S    
C11   C29   A    
C31   N6    S    
C27   C28   A    
C14   C15   A    
C20   N2    A    
C48   H8    S    
N5    H13   S    
C55   N1    A    
O8    Zn1   S    
C43   H4    S    
N15   H33   S    
N12   H28   S    
