data_mof_unit_57262.cif
_audit_creation_date              2012-12-11T14:52:29-0500
_audit_creation_method            fapswitch 2.2
_symmetry_space_group_name_H-M    P1
_symmetry_Int_Tables_number       1
_space_group_crystal_system       triclinic
_cell_length_a                    18.929315
_cell_length_b                    10.915211
_cell_length_c                    18.826919
_cell_angle_alpha                 90.119975
_cell_angle_beta                  90.608109
_cell_angle_gamma                 90.279844
_cell_volume                      3889.6958755

loop_
_atom_site_label
_atom_site_type_symbol
_atom_type_description
_atom_site_fract_x
_atom_site_fract_y
_atom_site_fract_z
_atom_type_partial_charge
C1    C     C_R   0.273120 0.039959 0.854815 0.566618
C2    C     C_R   0.728356 0.042569 0.146607 0.533598
C3    C     C_R   0.773120 0.539959 0.854815 0.566620
C4    C     C_R   0.228356 0.542569 0.146607 0.533593
C5    C     C_3   0.544135 0.732084 0.961050 -0.182861
C6    C     C_3   0.492370 0.728749 0.024687 -0.169129
C7    C     C_3   0.044135 0.232084 0.961050 -0.182861
C8    C     C_3   0.992370 0.228748 0.024687 -0.169129
C9    C     C_R   0.302619 0.526862 0.962398 0.298571
C10   C     C_R   0.697822 0.521399 0.039885 0.286906
C11   C     C_R   0.802619 0.026862 0.962398 0.298573
C12   C     C_R   0.197823 0.021399 0.039885 0.286909
C13   C     C_R   0.298374 0.513001 0.036589 -0.110686
C14   C     C_R   0.702440 0.511883 0.965046 -0.126549
C15   C     C_R   0.798373 0.013000 0.036589 -0.110687
C16   C     C_R   0.202440 0.011883 0.965046 -0.126547
C17   C     C_R   0.249286 0.581421 0.075761 0.005459
C18   C     C_R   0.758171 0.569168 0.928743 0.025267
C19   C     C_R   0.749286 0.081421 0.075761 0.005459
C20   C     C_R   0.258171 0.069168 0.928743 0.025267
C21   C     C_R   0.207803 0.668474 0.041697 -0.088212
C22   C     C_R   0.809723 0.634581 0.966690 -0.073072
C23   C     C_R   0.707803 0.168474 0.041697 -0.088211
C24   C     C_R   0.309723 0.134581 0.966690 -0.073072
C25   C     C_R   0.210142 0.680477 0.969137 -0.113591
C26   C     C_R   0.806681 0.642752 0.039047 -0.110593
C27   C     C_R   0.710142 0.180477 0.969137 -0.113593
C28   C     C_R   0.306681 0.142753 0.039047 -0.110593
C29   C     C_R   0.255846 0.608773 0.928494 0.088766
C30   C     C_R   0.750151 0.590693 0.076127 0.081586
C31   C     C_R   0.755846 0.108773 0.928494 0.088766
C32   C     C_R   0.250151 0.090693 0.076127 0.081587
C33   C     C_R   0.466308 0.731353 0.527871 -0.146990
C34   C     C_R   0.472572 0.735812 0.455441 -0.134599
C35   C     C_R   0.966281 0.231368 0.527863 -0.146808
C36   C     C_R   0.972539 0.235836 0.455432 -0.134394
C37   C     C_R   0.498575 0.840946 0.423067 0.033210
C38   C     C_R   0.485882 0.831762 0.570533 0.013511
C39   C     C_R   0.998563 0.340956 0.423062 0.033312
C40   C     C_R   0.985870 0.331764 0.570528 0.013520
C41   C     C_R   0.511493 0.949101 0.464222 0.001345
C42   C     C_R   0.509032 0.941706 0.538858 -0.025389
C43   C     C_R   0.011489 0.449106 0.464219 0.001386
C44   C     C_R   0.009027 0.441706 0.538856 -0.025367
C45   C     C_R   0.472135 0.822796 0.854074 0.549549
C46   C     C_R   0.560400 0.817695 0.137430 0.545363
C47   C     C_R   0.972134 0.322795 0.854074 0.549552
C48   C     C_R   0.060399 0.317695 0.137430 0.545375
C49   C     C_R   0.234156 0.708633 0.523670 -0.151820
C50   C     C_R   0.813930 0.583893 0.455829 -0.196115
C51   C     C_R   0.734138 0.208618 0.523676 -0.151842
C52   C     C_R   0.313913 0.083735 0.455816 -0.196169
C53   C     C_R   0.230033 0.690243 0.451645 -0.166718
C54   C     C_R   0.821768 0.575166 0.527811 -0.148793
C55   C     C_R   0.730004 0.190232 0.451651 -0.166726
C56   C     C_R   0.321768 0.074960 0.527796 -0.148945
C57   C     C_R   0.248681 0.576884 0.424798 -0.011922
C58   C     C_R   0.762104 0.565632 0.570815 0.016262
C59   C     C_R   0.748680 0.076890 0.424798 -0.011971
C60   C     C_R   0.262109 0.065616 0.570820 0.016201
C61   C     C_R   0.275572 0.483841 0.469093 -0.117478
C62   C     C_R   0.694714 0.555543 0.541485 -0.119930
C63   C     C_R   0.775593 0.983859 0.469089 -0.117509
C64   C     C_R   0.194699 0.055758 0.541519 -0.119687
C65   C     C_R   0.281198 0.502563 0.541789 0.255339
C66   C     C_R   0.685843 0.560310 0.468028 0.262149
C67   C     C_R   0.781212 0.002571 0.541786 0.255306
C68   C     C_R   0.185810 0.060601 0.468074 0.262080
C69   C     C_R   0.256647 0.613442 0.568650 0.097000
C70   C     C_R   0.746433 0.584279 0.426090 0.030860
C71   C     C_R   0.756646 0.113436 0.568651 0.096986
C72   C     C_R   0.246406 0.084347 0.426106 0.030764
C73   C     C_R   0.261717 0.639985 0.853277 0.589430
C74   C     C_R   0.739650 0.635025 0.148545 0.558460
C75   C     C_R   0.761717 0.139985 0.853277 0.589432
C76   C     C_R   0.239650 0.135025 0.148545 0.558461
C77   C     C_R   0.273301 0.042298 0.644528 0.574610
C78   C     C_R   0.728620 0.044587 0.354007 0.553831
C79   C     C_R   0.773301 0.542300 0.644526 0.574630
C80   C     C_R   0.228620 0.544587 0.354007 0.553836
C81   C     C_R   0.468077 0.823583 0.645556 0.558317
C82   C     C_R   0.528866 0.825258 0.352522 0.582983
C83   C     C_R   0.968074 0.323583 0.645554 0.558305
C84   C     C_R   0.028863 0.325259 0.352521 0.583099
C85   C     C_R   0.261028 0.640350 0.642578 0.619065
C86   C     C_R   0.739142 0.635881 0.356236 0.570214
C87   C     C_R   0.761026 0.140345 0.642580 0.619054
C88   C     C_R   0.239135 0.135904 0.356244 0.570221
C89   C     C_3   0.493808 0.930104 0.028125 0.291904
C90   C     C_3   0.543794 0.933635 0.964145 0.265215
C91   C     C_3   0.993808 0.430104 0.028125 0.291903
C92   C     C_3   0.043794 0.433635 0.964145 0.265215
C93   C     C_3   0.448951 0.831614 0.989920 0.005838
C94   C     C_3   0.588204 0.831788 0.999362 -0.015058
C95   C     C_3   0.948951 0.331614 0.989920 0.005837
C96   C     C_3   0.088204 0.331788 0.999362 -0.015058
C97   C     C_3   0.500075 0.833949 0.926348 -0.021581
C98   C     C_3   0.537432 0.827544 0.062717 -0.013577
C99   C     C_3   0.000075 0.333949 0.926348 -0.021581
C100  C     C_3   0.037432 0.327544 0.062717 -0.013573
Cr1   Cr    Cr6+3 0.229630 0.835900 0.747350 1.021736
Cr2   Cr    Cr6+3 0.770370 0.835900 0.252650 1.025079
Cr3   Cr    Cr6+3 0.729630 0.335900 0.747350 1.021730
Cr4   Cr    Cr6+3 0.270370 0.335900 0.252650 1.025140
Cr5   Cr    Cr6+3 0.387410 0.989850 0.750850 0.999016
Cr6   Cr    Cr6+3 0.612590 0.989850 0.249150 1.071525
Cr7   Cr    Cr6+3 0.887410 0.489850 0.750850 0.999016
Cr8   Cr    Cr6+3 0.112590 0.489850 0.249150 1.071499
Cr9   Cr    Cr6+3 0.385800 0.677120 0.749340 1.042842
Cr10  Cr    Cr6+3 0.614200 0.677120 0.250660 1.081250
Cr11  Cr    Cr6+3 0.885800 0.177120 0.749340 1.042809
Cr12  Cr    Cr6+3 0.114200 0.177120 0.250660 1.081083
H1    H     H_    0.218761 0.796936 0.544530 0.139524
H2    H     H_    0.860348 0.598131 0.423795 0.189551
H3    H     H_    0.718732 0.296910 0.544542 0.139491
H4    H     H_    0.360330 0.097818 0.423758 0.189548
H5    H     H_    0.209701 0.761805 0.417379 0.136197
H6    H     H_    0.874837 0.576126 0.549722 0.128003
H7    H     H_    0.709639 0.261783 0.417396 0.136463
H8    H     H_    0.374842 0.075744 0.549693 0.128040
H9    H     H_    0.286935 0.393627 0.448145 0.152810
H10   H     H_    0.649595 0.545359 0.575886 0.125545
H11   H     H_    0.786977 0.893654 0.448139 0.152833
H12   H     H_    0.149576 0.045745 0.575931 0.125650
H13   H     H_    0.566516 0.654412 0.930715 0.136133
H14   H     H_    0.469291 0.646223 0.050038 0.139987
H15   H     H_    0.066516 0.154412 0.930715 0.136133
H16   H     H_    0.969291 0.146224 0.050038 0.139985
H17   H     H_    0.328031 0.440878 0.062358 0.121016
H18   H     H_    0.664688 0.457811 0.934975 0.099503
H19   H     H_    0.828031 0.940878 0.062358 0.121014
H20   H     H_    0.164688 0.957810 0.934975 0.099503
H21   H     H_    0.170396 0.722565 0.070989 0.174719
H22   H     H_    0.853944 0.678272 0.940747 0.160609
H23   H     H_    0.670396 0.222565 0.070989 0.174721
H24   H     H_    0.353943 0.178273 0.940746 0.160610
H25   H     H_    0.175640 0.746831 0.944682 0.138164
H26   H     H_    0.847510 0.696458 0.065388 0.155031
H27   H     H_    0.675640 0.246832 0.944682 0.138164
H28   H     H_    0.347509 0.196459 0.065388 0.155031
H29   H     H_    0.445347 0.647905 0.550354 0.128506
H30   H     H_    0.460260 0.653988 0.424922 0.141818
H31   H     H_    0.945313 0.147925 0.550344 0.128495
H32   H     H_    0.960208 0.154027 0.424907 0.141642
O1    O     O_R   0.214270 0.709000 0.827470 -0.532807
O2    O     O_R   0.785730 0.709000 0.172530 -0.537598
O3    O     O_R   0.714270 0.209000 0.827470 -0.532804
O4    O     O_R   0.285730 0.209000 0.172530 -0.537592
O5    O     O_R   0.445950 0.919440 0.676520 -0.521584
O6    O     O_R   0.554050 0.919440 0.323480 -0.452356
O7    O     O_R   0.945950 0.419440 0.676520 -0.521579
O8    O     O_R   0.054050 0.419440 0.323480 -0.452359
O9    O     O_R   0.456730 0.717630 0.669840 -0.525437
O10   O     O_R   0.543270 0.717630 0.330160 -0.490069
O11   O     O_R   0.956730 0.217630 0.669840 -0.525452
O12   O     O_R   0.043270 0.217630 0.330160 -0.490059
O13   O     O_R   0.320620 0.625640 0.672920 -0.495279
O14   O     O_R   0.679380 0.625640 0.327080 -0.445753
O15   O     O_R   0.820620 0.125640 0.672920 -0.495326
O16   O     O_R   0.179380 0.125640 0.327080 -0.445895
O17   O     O_3   0.334280 0.834290 0.749180 -0.277792
O18   O     O_3   0.665720 0.834290 0.250820 -0.301417
O19   O     O_3   0.834280 0.334290 0.749180 -0.277782
O20   O     O_3   0.165720 0.334290 0.250820 -0.301382
O21   O     O_R   0.236160 0.958490 0.823130 -0.517408
O22   O     O_R   0.763840 0.958490 0.176870 -0.515765
O23   O     O_R   0.736160 0.458490 0.823130 -0.517405
O24   O     O_R   0.263840 0.458490 0.176870 -0.515761
O25   O     O_R   0.332080 0.075470 0.831280 -0.521005
O26   O     O_R   0.667920 0.075470 0.168720 -0.541643
O27   O     O_R   0.832080 0.575470 0.831280 -0.521006
O28   O     O_R   0.167920 0.575470 0.168720 -0.541656
O29   O     O_R   0.446300 0.918110 0.826620 -0.527283
O30   O     O_R   0.553700 0.918110 0.173380 -0.474818
O31   O     O_R   0.946300 0.418110 0.826620 -0.527283
O32   O     O_R   0.053700 0.418110 0.173380 -0.474820
O33   O     O_R   0.457110 0.716200 0.831760 -0.526304
O34   O     O_R   0.542890 0.716200 0.168240 -0.500670
O35   O     O_R   0.957110 0.216200 0.831760 -0.526301
O36   O     O_R   0.042890 0.216200 0.168240 -0.500689
O37   O     O_R   0.320980 0.624310 0.823030 -0.468033
O38   O     O_R   0.679020 0.624310 0.176970 -0.474600
O39   O     O_R   0.820980 0.124310 0.823030 -0.468032
O40   O     O_R   0.179020 0.124310 0.176970 -0.474615
O41   O     O_R   0.213890 0.710430 0.665540 -0.494350
O42   O     O_R   0.786110 0.710430 0.334460 -0.520920
O43   O     O_R   0.713890 0.210430 0.665540 -0.494356
O44   O     O_R   0.286110 0.210430 0.334460 -0.520847
O45   O     O_R   0.235810 0.959820 0.673020 -0.516446
O46   O     O_R   0.764190 0.959820 0.326980 -0.510193
O47   O     O_R   0.735810 0.459820 0.673020 -0.516451
O48   O     O_R   0.264190 0.459820 0.326980 -0.510173
O49   O     O_R   0.331700 0.076900 0.669350 -0.524175
O50   O     O_R   0.668300 0.076900 0.330650 -0.499457
O51   O     O_R   0.831700 0.576900 0.669350 -0.524179
O52   O     O_R   0.168300 0.576900 0.330650 -0.499491
C101  C     C_2   0.370214 0.833933 0.986665 0.243580
H33   H     H_    0.342835 0.832845 0.935854 0.083302
O53   O     O_2   0.336620 0.837404 0.041518 -0.483301
C102  C     C_2   0.666422 0.830209 0.001224 0.240743
H34   H     H_    0.694529 0.830732 0.051548 0.065700
O54   O     O_2   0.698680 0.828343 0.945560 -0.462827
C103  C     C_2   0.870214 0.333932 0.986665 0.243580
H35   H     H_    0.842835 0.332845 0.935855 0.083302
O55   O     O_2   0.836620 0.337403 0.041519 -0.483299
C104  C     C_2   0.166422 0.330209 0.001224 0.240744
H36   H     H_    0.194529 0.330732 0.051548 0.065702
O56   O     O_2   0.198680 0.328343 0.945560 -0.462827
O57   O     O_3   0.299565 0.408154 0.587451 -0.541551
C105  C     C_3   0.370593 0.375087 0.576523 -0.109175
H37   H     H_    0.385390 0.304685 0.616299 0.158016
H38   H     H_    0.406698 0.454489 0.584783 0.106963
H39   H     H_    0.378452 0.334091 0.523132 0.102684
O58   O     O_3   0.618544 0.559638 0.437564 -0.529839
C106  C     C_3   0.577698 0.459903 0.462107 -0.116480
H40   H     H_    0.535261 0.440757 0.422466 0.150427
H41   H     H_    0.551572 0.483755 0.512804 0.105140
H42   H     H_    0.609015 0.374402 0.468141 0.107570
O59   O     O_3   0.799579 0.908154 0.587440 -0.541556
C107  C     C_3   0.870633 0.875197 0.576565 -0.109221
H43   H     H_    0.885407 0.804694 0.616290 0.157976
H44   H     H_    0.906698 0.954620 0.584953 0.107177
H45   H     H_    0.878577 0.834371 0.523142 0.102529
O60   O     O_3   0.118490 0.060289 0.437686 -0.529890
C108  C     C_3   0.077732 0.960192 0.461859 -0.116167
H46   H     H_    0.035116 0.941720 0.422329 0.150256
H47   H     H_    0.051846 0.983158 0.512794 0.104937
H48   H     H_    0.109052 0.874621 0.467250 0.107651
O61   O     O_3   0.460255 0.025887 0.065151 -0.538867
C109  C     C_3   0.506672 0.125654 0.075549 -0.078066
H49   H     H_    0.498223 0.193936 0.032906 0.083368
H50   H     H_    0.563250 0.099280 0.078248 0.153247
H51   H     H_    0.493713 0.170637 0.126621 0.146348
O62   O     O_3   0.577977 0.037158 0.935306 -0.566218
C110  C     C_3   0.529890 0.111519 0.897678 -0.090349
H52   H     H_    0.545751 0.208665 0.905170 0.091593
H53   H     H_    0.474213 0.102713 0.915579 0.123313
H54   H     H_    0.533423 0.091311 0.840076 0.170445
O63   O     O_3   0.960255 0.525887 0.065151 -0.538866
C111  C     C_3   0.006672 0.625654 0.075549 -0.078070
H55   H     H_    0.998223 0.693936 0.032907 0.083369
H56   H     H_    0.063250 0.599280 0.078248 0.153248
H57   H     H_    0.993713 0.670636 0.126621 0.146339
O64   O     O_3   0.077977 0.537158 0.935306 -0.566218
C112  C     C_3   0.029890 0.611519 0.897678 -0.090351
H58   H     H_    0.045751 0.708665 0.905170 0.091592
H59   H     H_    0.974213 0.602713 0.915579 0.123313
H60   H     H_    0.033423 0.591312 0.840077 0.170442
O65   O     O_3   0.341715 0.446445 0.921501 -0.522488
C113  C     C_3   0.413850 0.453662 0.940367 -0.127524
H61   H     H_    0.424327 0.413815 0.993636 0.069930
H62   H     H_    0.433547 0.549369 0.937327 0.136087
H63   H     H_    0.444303 0.399037 0.901625 0.128375
O66   O     O_3   0.648189 0.458910 0.080822 -0.545943
C114  C     C_3   0.584711 0.430806 0.044411 -0.141309
H64   H     H_    0.591165 0.351429 0.008475 0.081354
H65   H     H_    0.564095 0.509942 0.014828 0.103386
H66   H     H_    0.544342 0.405393 0.084082 0.134280
O67   O     O_3   0.841715 0.946445 0.921500 -0.522488
C115  C     C_3   0.913849 0.953659 0.940367 -0.127523
H67   H     H_    0.924326 0.913807 0.993636 0.069931
H68   H     H_    0.933548 0.049367 0.937331 0.136083
H69   H     H_    0.944303 0.899037 0.901625 0.128375
O68   O     O_3   0.148190 0.958908 0.080822 -0.545952
C116  C     C_3   0.084711 0.930806 0.044412 -0.141316
H70   H     H_    0.091165 0.851430 0.008474 0.081357
H71   H     H_    0.064095 0.009943 0.014828 0.103390
H72   H     H_    0.044343 0.905393 0.084083 0.134270
C117  C     C_2   0.525303 0.070828 0.431257 0.237395
H73   H     H_    0.564628 0.132518 0.453854 0.141583
O69   O     O_2   0.490378 0.105633 0.380342 -0.520556
C118  C     C_2   0.530224 0.048608 0.583074 0.195605
H74   H     H_    0.491345 0.098758 0.613235 0.117157
O70   O     O_2   0.591863 0.081410 0.585615 -0.515141
C119  C     C_2   0.025306 0.570831 0.431257 0.237373
H75   H     H_    0.064630 0.632518 0.453856 0.141594
O71   O     O_2   0.990388 0.605641 0.380339 -0.520592
C120  C     C_2   0.030233 0.548596 0.583074 0.195620
H76   H     H_    0.991364 0.598745 0.613247 0.117156
O72   O     O_2   0.091874 0.581390 0.585605 -0.515115

loop_
_geom_bond_atom_site_label_1
_geom_bond_atom_site_label_2
_ccdc_geom_bond_type
C58   C62   A    
C49   H1    S    
C103  H35   S    
C114  H65   S    
C112  H59   S    
Cr3   O23   S    
Cr6   O6    S    
C55   C59   A    
C63   H11   S    
C34   C37   A    
Cr6   O26   S    
C41   C42   A    
C14   C18   A    
C25   H25   S    
C35   C36   A    
C28   H28   S    
C48   O36   A    
C43   C44   A    
C75   O39   A    
O60   C108  S    
C107  H44   S    
C5    C94   S    
Cr10  O18   S    
C47   C99   S    
C7    C8    S    
Cr12  O40   S    
C55   H7    S    
C43   C119  S    
Cr5   O49   S    
C7    C96   S    
Cr8   O20   S    
O68   C116  S    
Cr1   O1    S    
O65   C113  S    
C50   C54   A    
Cr5   O25   S    
C22   H22   S    
C37   C41   A    
C52   C72   A    
C64   C68   A    
Cr9   O17   S    
C119  O71   D    
O63   C111  S    
C108  H46   S    
C39   C84   S    
C38   C42   A    
C81   O9    A    
Cr1   O45   S    
C106  H41   S    
C12   O68   S    
C5    C6    S    
C30   C74   S    
C53   H5    S    
C67   C71   A    
C83   O11   A    
C13   H17   S    
Cr10  O34   S    
C113  H62   S    
Cr4   O48   S    
C96   C100  S    
C92   C96   S    
C108  H48   S    
C79   O51   A    
O64   C112  S    
C90   O62   S    
C3    C18   S    
C61   H9    S    
C78   O50   A    
C21   H21   S    
C101  O53   D    
C46   O34   A    
C9    C13   A    
Cr2   O46   S    
C15   C19   A    
C52   C56   A    
C11   C15   A    
C8    H16   S    
C44   C120  S    
C119  H75   S    
C118  H74   S    
C78   O46   A    
C110  H53   S    
C47   O35   A    
C110  H52   S    
C46   O30   A    
C41   C117  S    
C23   C27   A    
C91   C100  S    
Cr8   O52   S    
C18   C22   A    
Cr9   O9    S    
C116  H70   S    
C2    O22   A    
C90   C97   S    
C65   O57   S    
Cr10  O14   S    
C9    C29   A    
C10   O66   S    
Cr12  O36   S    
Cr7   O7    S    
C24   H24   S    
C113  H63   S    
C88   O16   A    
C46   C98   S    
C114  H66   S    
C11   C31   A    
Cr1   O17   S    
Cr2   O22   S    
C49   C69   A    
C112  H58   S    
C12   C32   A    
Cr4   O44   S    
C89   C93   S    
C111  H56   S    
C56   H8    S    
C57   C80   S    
C40   C83   S    
C68   O60   S    
C8    C95   S    
C85   O13   A    
C115  H69   S    
Cr1   O41   S    
C59   C78   S    
Cr7   O51   S    
C107  H43   S    
C72   C88   S    
C51   C71   A    
C3    O27   A    
Cr9   O13   S    
C90   C94   S    
C83   O7    A    
C52   H4    S    
C85   O41   A    
Cr12  O20   S    
C63   C67   A    
C60   C77   S    
C94   C102  S    
C62   C66   A    
C27   C31   A    
C6    C98   S    
Cr11  O15   S    
C12   C16   A    
C28   C32   A    
C48   C100  S    
Cr3   O43   S    
Cr11  O35   S    
C6    H14   S    
C115  H68   S    
C76   O40   A    
C10   C14   A    
C106  H42   S    
O59   C107  S    
Cr8   O8    S    
C104  H36   S    
C102  H34   S    
C39   C43   A    
Cr11  O11   S    
C51   C55   A    
C75   O3    A    
C113  H61   S    
Cr3   O3    S    
Cr6   O50   S    
C101  H33   S    
C111  H57   S    
C27   H27   S    
C4    O24   A    
C73   O1    A    
C68   C72   A    
C50   H2    S    
C11   O67   S    
C66   O58   S    
C9    O65   S    
C106  H40   S    
C32   C76   S    
O61   C109  S    
Cr10  O10   S    
C45   O29   A    
Cr4   O24   S    
C103  O55   D    
C10   C30   A    
C31   C75   S    
O57   C105  S    
C33   C38   A    
C1    O21   A    
C16   C20   A    
C6    C93   S    
C77   O49   A    
Cr11  O39   S    
C33   C34   A    
Cr6   O30   S    
C15   H19   S    
Cr2   O42   S    
C109  H50   S    
C92   O64   S    
C116  H71   S    
Cr10  O38   S    
C82   O6    A    
C7    C99   S    
C58   C79   S    
C2    O26   A    
C71   C87   S    
C4    C17   S    
C84   O8    A    
C102  O54   D    
C109  H51   S    
Cr7   O19   S    
C86   O42   A    
C105  H38   S    
C117  O69   D    
C38   C81   S    
Cr12  O12   S    
C54   C58   A    
C110  H54   S    
C120  O72   D    
C37   C82   S    
C36   H32   S    
Cr3   O47   S    
O62   C110  S    
C91   O63   S    
C114  H64   S    
C70   C86   S    
C54   H6    S    
C93   C97   S    
C62   H10   S    
C69   C85   S    
Cr2   O18   S    
C19   C23   A    
C14   H18   S    
Cr9   O37   S    
C21   C25   A    
C34   H30   S    
C1    C20   S    
C53   C57   A    
C88   O44   A    
C4    O28   A    
C2    C19   S    
O58   C106  S    
Cr3   O19   S    
C74   O2    A    
C36   C39   A    
C96   C104  S    
C24   C28   A    
C81   O5    A    
C5    C97   S    
C115  H67   S    
C26   H26   S    
C79   O47   A    
Cr4   O20   S    
C87   O43   A    
C86   O14   A    
C57   C61   A    
C74   O38   A    
Cr7   O27   S    
C45   O33   A    
C105  H39   S    
Cr5   O5    S    
C64   H12   S    
C66   C70   A    
C59   C63   A    
C73   O37   A    
C23   H23   S    
C89   C98   S    
C60   C64   A    
C80   O52   A    
C33   H29   S    
O66   C114  S    
C67   O59   S    
C35   C40   A    
C8    C100  S    
C77   O45   A    
Cr4   O4    S    
C89   O61   S    
Cr11  O19   S    
C45   C97   S    
Cr1   O21   S    
C84   O12   A    
C25   C29   A    
C50   C70   A    
Cr7   O31   S    
Cr8   O28   S    
C65   C69   A    
C93   C101  S    
Cr8   O32   S    
C1    O25   A    
C111  H55   S    
C108  H47   S    
C87   O15   A    
C95   C99   S    
Cr6   O18   S    
C56   C60   A    
C42   C118  S    
C109  H49   S    
C16   H20   S    
C116  H72   S    
C51   H3    S    
C49   C53   A    
C80   O48   A    
C47   O31   A    
C91   C95   S    
C13   C17   A    
C82   O10   A    
C61   C65   A    
C3    O23   A    
C40   C44   A    
C29   C73   S    
Cr12  O16   S    
C76   O4    A    
C118  O70   D    
C105  H37   S    
C22   C26   A    
C112  H60   S    
C5    H13   S    
Cr9   O33   S    
C94   C98   S    
C120  H76   S    
Cr5   O17   S    
Cr5   O29   S    
C7    H15   S    
C89   C90   S    
C117  H73   S    
C104  O56   D    
C95   C103  S    
C20   C24   A    
C107  H45   S    
Cr2   O2    S    
C91   C92   S    
O67   C115  S    
C92   C99   S    
C35   H31   S    
C48   O32   A    
C26   C30   A    
C17   C21   A    
