data_mof_unit_37321.cif
_audit_creation_date              2012-12-11T15:41:32-0500
_audit_creation_method            fapswitch 2.2
_symmetry_space_group_name_H-M    P1
_symmetry_Int_Tables_number       1
_space_group_crystal_system       triclinic
_cell_length_a                    14.859343
_cell_length_b                    14.968232
_cell_length_c                    14.898816
_cell_angle_alpha                 108.764314
_cell_angle_beta                  109.662596
_cell_angle_gamma                 109.248565
_cell_volume                      2573.79653189

loop_
_atom_site_label
_atom_site_type_symbol
_atom_type_description
_atom_site_fract_x
_atom_site_fract_y
_atom_site_fract_z
_atom_type_partial_charge
C1    C     C_R   0.252824 0.067051 0.974704 -0.118010
C2    C     C_R   0.804979 0.004658 0.095935 -0.125156
C3    C     C_R   0.776926 0.321488 0.325311 -0.095552
C4    C     C_R   0.141974 0.693378 0.691949 -0.126501
C5    C     C_R   0.500853 0.933479 0.302220 0.044702
C6    C     C_R   0.501702 0.951709 0.675509 0.040097
C7    C     C_R   0.499010 0.294373 0.921746 0.053301
C8    C     C_R   0.507125 0.677281 0.964701 0.038943
C9    C     C_R   0.210408 0.100427 0.581091 -0.194665
C10   C     C_R   0.823387 0.789736 0.273897 -0.181517
C11   C     C_R   0.307774 0.196840 0.661346 -0.212486
C12   C     C_R   0.722757 0.706591 0.182146 -0.209912
C13   C     C_R   0.306647 0.279448 0.739209 -0.186894
C14   C     C_R   0.713933 0.666508 0.078590 -0.188615
C15   C     C_R   0.206025 0.264180 0.734626 0.577797
C16   C     C_R   0.807048 0.708843 0.068267 0.590594
C17   C     C_R   0.108900 0.167557 0.653899 0.682090
C18   C     C_R   0.907910 0.790779 0.160449 0.636935
C19   C     C_R   0.111182 0.085797 0.577531 -0.385777
C20   C     C_R   0.915902 0.831515 0.263028 -0.377448
C21   C     C_R   0.417564 0.480351 0.843754 -0.169111
C22   C     C_R   0.605553 0.475048 0.954158 -0.179210
C23   C     C_R   0.745694 0.218934 0.313088 -0.233641
C24   C     C_R   0.200353 0.788513 0.695861 -0.224258
C25   C     C_R   0.513109 0.577210 0.929053 0.019373
C26   C     C_R   0.504573 0.379523 0.891448 -0.010026
C27   C     C_R   0.609847 0.573883 0.982278 0.185987
C28   C     C_R   0.410864 0.380182 0.825784 0.163156
C29   C     C_R   0.865489 0.516392 0.447869 -0.113365
C30   C     C_R   0.040620 0.500813 0.576785 -0.154882
C31   C     C_R   0.958856 0.609644 0.535746 -0.211899
C32   C     C_R   0.948025 0.408787 0.491252 -0.208466
C33   C     C_R   0.045574 0.600586 0.599219 0.142929
C34   C     C_R   0.861110 0.416500 0.425910 0.160387
C35   C     C_R   0.601804 0.945717 0.572253 -0.150020
C36   C     C_R   0.402902 0.842644 0.379784 -0.154369
C37   C     C_R   0.601551 0.942358 0.478277 -0.160183
C38   C     C_R   0.403252 0.845776 0.473749 -0.165379
C39   C     C_R   0.501849 0.900795 0.384823 0.124197
C40   C     C_R   0.502425 0.908192 0.572934 0.129241
C41   C     C_R   0.131843 0.061802 0.160301 -0.113607
C42   C     C_R   0.034895 0.156665 0.055915 -0.159217
C43   C     C_R   0.039388 0.062968 0.161555 -0.116266
C44   C     C_R   0.127731 0.156361 0.055577 -0.140784
C45   C     C_R   0.409391 0.904533 0.209254 -0.129093
C46   C     C_R   0.592936 0.027584 0.777968 -0.125863
C47   C     C_R   0.984090 0.100279 0.099502 0.099117
C48   C     C_R   0.168500 0.097569 0.096606 0.092119
C49   C     C_R   0.589558 0.292473 0.985819 -0.059989
C50   C     C_R   0.412294 0.685698 0.945154 -0.115962
C51   C     C_R   0.591567 0.995490 0.299906 -0.125921
C52   C     C_R   0.409199 0.936430 0.686167 -0.113591
C53   C     C_R   0.408326 0.206809 0.900602 -0.110939
C54   C     C_R   0.595313 0.780938 0.030572 -0.088055
C55   C     C_R   0.752986 0.313547 0.224011 0.553754
C56   C     C_R   0.200063 0.698451 0.789355 0.535520
C57   C     C_R   0.254235 0.976611 0.068374 -0.145441
C58   C     C_R   0.803839 0.094678 0.003313 -0.149954
C59   C     C_R   0.228289 0.053632 0.053165 0.059061
C60   C     C_R   0.868583 0.066179 0.066066 0.069537
H1    H     H_    0.242897 0.119903 0.942014 0.104072
H2    H     H_    0.833186 0.981515 0.157076 0.087853
H3    H     H_    0.211947 0.036869 0.521878 0.163563
H4    H     H_    0.829939 0.820973 0.353542 0.163380
H5    H     H_    0.384160 0.206858 0.663385 0.163755
H6    H     H_    0.651915 0.673357 0.191502 0.165284
H7    H     H_    0.346080 0.482258 0.794868 0.152650
H8    H     H_    0.680806 0.476339 0.998165 0.131630
H9    H     H_    0.798595 0.521899 0.395742 0.147677
H10   H     H_    0.108935 0.494260 0.624947 0.152769
H11   H     H_    0.963637 0.687780 0.554256 0.133727
H12   H     H_    0.947543 0.332396 0.472623 0.143155
H13   H     H_    0.680094 0.987739 0.645917 0.127408
H14   H     H_    0.324475 0.803754 0.307101 0.121746
H15   H     H_    0.679772 0.982048 0.483305 0.135876
H16   H     H_    0.325068 0.808760 0.469722 0.115550
H17   H     H_    0.166618 0.022845 0.199788 0.155256
H18   H     H_    0.998146 0.191834 0.012421 0.121171
H19   H     H_    0.758394 0.196746 0.376674 0.149441
H20   H     H_    0.172448 0.815630 0.638242 0.133159
H21   H     H_    0.006459 0.025426 0.202475 0.138748
H22   H     H_    0.158835 0.191751 0.012348 0.134696
H23   H     H_    0.325766 0.844467 0.176948 0.098082
H24   H     H_    0.678243 0.059978 0.800038 0.102799
H25   H     H_    0.671414 0.334340 0.000035 0.098965
H26   H     H_    0.329215 0.620055 0.898228 0.185766
H27   H     H_    0.675849 0.018902 0.350691 0.100178
H28   H     H_    0.324563 0.885328 0.623036 0.095719
H29   H     H_    0.323418 0.176133 0.844927 0.109106
H30   H     H_    0.680272 0.807776 0.055782 0.113441
H31   H     H_    0.245284 0.945743 0.122802 0.118676
H32   H     H_    0.830470 0.154317 0.978614 0.085216
H33   H     H_    0.035992 0.010890 0.515950 0.174390
H34   H     H_    0.994045 0.894886 0.334084 0.174100
N1    N     N_R   0.293810 0.002730 0.945950 -0.045202
N2    N     N_R   0.706190 0.997270 0.054050 -0.040237
N3    N     N_R   0.706160 0.152130 0.208910 -0.065143
N4    N     N_R   0.293840 0.847870 0.791090 -0.062450
N5    N     N_R   0.443140 0.945920 0.152090 -0.038880
N6    N     N_R   0.556860 0.054080 0.847910 -0.045867
N7    N     N_R   0.556830 0.208940 0.002760 -0.053322
N8    N     N_R   0.443170 0.791060 0.997240 -0.042242
N9    N     N_R   0.556790 0.002750 0.208910 -0.035411
N10   N     N_R   0.443210 0.997250 0.791090 -0.037713
N11   N     N_R   0.443180 0.152110 0.945950 -0.050078
N12   N     N_R   0.556820 0.847890 0.054050 -0.049109
N13   N     N_R   0.706170 0.208950 0.152090 -0.106986
N14   N     N_R   0.293830 0.791050 0.847910 -0.085961
N15   N     N_R   0.293800 0.945910 0.002760 -0.052606
N16   N     N_R   0.706200 0.054090 0.997240 -0.042264
Ni1   Ni    Ni4+2 0.369690 0.999990 0.869700 0.208274
Ni2   Ni    Ni4+2 0.630310 0.000010 0.130300 0.210920
Ni3   Ni    Ni4+2 0.369670 0.869670 0.000000 0.236109
Ni4   Ni    Ni4+2 0.630330 0.130330 0.000000 0.201377
F1    F     F_    0.202382 0.340952 0.810317 -0.679726
F2    F     F_    0.798891 0.670499 0.968585 -0.708919
F3    F     F_    0.012368 0.152558 0.650323 -0.681930
F4    F     F_    0.998405 0.829864 0.150826 -0.726719
O1    O     O_3   0.790437 0.399848 0.205408 -0.681373
C61   C     C_3   0.864507 0.395595 0.166477 0.150945
H35   H     H_    0.874442 0.451827 0.132267 0.139929
H36   H     H_    0.832094 0.314034 0.098366 0.079648
C62   C     C_3   0.977551 0.433248 0.259088 -0.308144
H37   H     H_    0.005967 0.512476 0.328148 0.223119
H38   H     H_    0.971518 0.373223 0.288525 0.192977
C63   C     C_3   0.061889 0.445298 0.220826 -0.968862
H39   H     H_    0.034819 0.367087 0.151482 0.263402
H40   H     H_    0.141917 0.470117 0.288726 0.273135
H41   H     H_    0.073067 0.508098 0.194912 0.268279
O2    O     O_3   0.166044 0.630819 0.830614 -0.682598
C64   C     C_3   0.063966 0.612883 0.824636 0.214381
H42   H     H_    0.040511 0.552611 0.852315 0.155323
H43   H     H_    0.996803 0.575852 0.740313 0.109763
C65   C     C_3   0.071717 0.716350 0.899643 -0.498590
H44   H     H_    0.138786 0.750952 0.983726 0.229871
H45   H     H_    0.089334 0.776049 0.870295 0.215675
C66   C     C_3   0.964885 0.693650 0.901129 -0.681835
H46   H     H_    0.895880 0.656256 0.817318 0.243110
H47   H     H_    0.972248 0.771111 0.952613 0.310131
H48   H     H_    0.947638 0.638399 0.935533 0.279975

loop_
_geom_bond_atom_site_label_1
_geom_bond_atom_site_label_2
_ccdc_geom_bond_type
N5    N9    A    
C63   H39   S    
C8    C25   S    
C58   N16   A    
C3    C23   A    
C64   C65   S    
C65   C66   S    
C58   H32   S    
C62   H37   S    
C32   H12   S    
C55   O1    S    
C66   H47   S    
C7    C26   S    
C24   N4    A    
C35   C37   A    
C54   H30   S    
C44   H22   S    
C1    C59   A    
C41   H17   S    
C4    C24   A    
C2    C60   A    
C62   H38   S    
C58   C60   A    
N6    N10   A    
N4    N14   A    
C56   N14   A    
C21   C25   A    
C24   H20   S    
C47   C60   S    
C3    C55   A    
C9    C19   A    
C57   N15   A    
C10   C20   A    
C31   C33   A    
C13   C28   S    
N8    N12   A    
C14   C27   S    
C30   C32   A    
C35   H13   S    
C18   F4    S    
C18   C20   A    
C19   H33   S    
C61   C62   S    
N15   Ni3   S    
C31   H11   S    
N11   Ni1   S    
N2    N16   A    
C4    C56   A    
N7    Ni4   S    
C41   C43   A    
C6    C46   A    
C45   H23   S    
C42   C44   A    
C16   F2    S    
C30   H10   S    
C61   H36   S    
C29   H9    S    
N7    N11   A    
N12   Ni2   S    
C66   H48   S    
C54   N12   A    
C49   H25   S    
C52   H28   S    
C6    C40   S    
N6    Ni4   S    
C7    C49   A    
C45   N5    A    
C8    C54   A    
N3    Ni2   S    
C62   C63   S    
C65   H45   S    
C63   H41   S    
C12   H6    S    
C29   C34   A    
C55   N13   A    
N9    Ni2   S    
C32   C34   A    
N14   Ni3   S    
N13   Ni4   S    
N2    Ni2   S    
C46   N6    A    
C1    N1    A    
C44   C48   A    
C9    C11   A    
C22   H8    S    
C10   C12   A    
C46   H24   S    
C16   C18   A    
C23   N3    A    
C21   C28   A    
C12   C14   A    
C42   H18   S    
C22   C27   A    
C13   C15   A    
C53   H29   S    
C43   H21   S    
C14   C16   A    
C7    C53   A    
C51   H27   S    
C64   H42   S    
C8    C50   A    
N16   Ni4   S    
C61   H35   S    
C48   C59   S    
C15   C17   A    
C20   H34   S    
C4    C33   S    
C36   H14   S    
C63   H40   S    
N4    Ni1   S    
C57   H31   S    
C30   C33   A    
C9    H3    S    
C36   C39   A    
C10   H4    S    
C43   C47   A    
C64   H43   S    
C1    H1    S    
N5    Ni3   S    
N10   Ni1   S    
O1    C61   S    
C50   N8    A    
C65   H44   S    
C17   F3    S    
C25   C27   A    
C66   H46   S    
C26   C28   A    
C3    C34   S    
C23   H19   S    
C5    C39   S    
C35   C40   A    
C29   C31   A    
N8    Ni3   S    
N1    Ni1   S    
C36   C38   A    
C38   C40   A    
C11   C13   A    
C5    C45   A    
C2    N2    A    
C17   C19   A    
C41   C48   A    
C52   N10   A    
O2    C64   S    
C15   F1    S    
C42   C47   A    
C37   H15   S    
C56   O2    S    
C57   C59   A    
C50   H26   S    
N3    N13   A    
C53   N11   A    
C37   C39   A    
C22   C26   A    
C2    H2    S    
C5    C51   A    
N1    N15   A    
C6    C52   A    
C51   N9    A    
C38   H16   S    
C21   H7    S    
C11   H5    S    
C49   N7    A    
