data_mof_unit_21105.cif
_audit_creation_date              2012-12-11T16:20:15-0500
_audit_creation_method            fapswitch 2.2
_symmetry_space_group_name_H-M    P1
_symmetry_Int_Tables_number       1
_space_group_crystal_system       triclinic
_cell_length_a                    6.909862
_cell_length_b                    34.355141
_cell_length_c                    38.276223
_cell_angle_alpha                 99.530053
_cell_angle_beta                  89.482054
_cell_angle_gamma                 90.309541
_cell_volume                      8960.52684135

loop_
_atom_site_label
_atom_site_type_symbol
_atom_type_description
_atom_site_fract_x
_atom_site_fract_y
_atom_site_fract_z
_atom_type_partial_charge
O1    O     O_R   0.494320 0.461440 0.460990 -0.538830
O2    O     O_R   0.821450 0.462560 0.532500 -0.539943
O3    O     O_R   0.994330 0.538560 0.539010 -0.537150
C1    C     C_R   0.651838 0.453811 0.543663 0.704859
O4    O     O_R   0.823870 0.456770 0.460860 -0.539197
O5    O     O_R   0.996760 0.532730 0.466860 -0.539473
C2    C     C_R   0.655434 0.445391 0.448330 0.714244
O6    O     O_R   0.491880 0.467270 0.533140 -0.537570
O7    O     O_3   0.661650 0.524930 0.502050 -0.369441
V1    V     V_3+5 0.935500 0.495380 0.499620 1.398810
O8    O     O_R   0.326630 0.537440 0.467500 -0.539770
C3    C     C_R   0.157951 0.547158 0.457149 0.720324
O9    O     O_R   0.324210 0.543230 0.539140 -0.542621
C4    C     C_R   0.154863 0.553936 0.552095 0.707267
V2    V     V_3+5 0.435810 0.504620 0.500380 1.397875
O10   O     O_3   0.159790 0.475070 0.497950 -0.365524
C5    C     C_R   0.199514 0.822109 0.803923 0.592485
N1    N     N_R   0.038732 0.823686 0.825446 -0.557034
C6    C     C_R   0.890193 0.797029 0.817767 0.581141
C7    C     C_R   0.900697 0.767176 0.787703 -0.035762
C8    C     C_R   0.064466 0.765346 0.765308 -0.020216
C9    C     C_R   0.215001 0.793105 0.773325 -0.031895
C10   C     C_R   0.752337 0.739034 0.779623 -0.152302
C11   C     C_R   0.766725 0.709474 0.749834 -0.143851
C12   C     C_R   0.929208 0.707456 0.727190 -0.026216
C13   C     C_R   0.077917 0.735642 0.734861 -0.019711
C14   C     C_R   0.240159 0.734165 0.712185 -0.030843
C15   C     C_R   0.388851 0.762256 0.720318 -0.150281
C16   C     C_R   0.376900 0.791217 0.750589 -0.144916
C17   C     C_R   0.947210 0.677733 0.697156 0.584141
N2    N     N_R   0.104862 0.676845 0.674788 -0.553954
C18   C     C_R   0.249349 0.704712 0.681797 0.574609
O11   O     O_2   0.343510 0.848680 0.811940 -0.518654
O12   O     O_2   0.733720 0.799099 0.839326 -0.520739
H1    H     H_    0.624517 0.739719 0.796302 0.170820
H2    H     H_    0.649361 0.688356 0.744515 0.169384
O13   O     O_2   0.808993 0.649630 0.690765 -0.529921
O14   O     O_2   0.400726 0.704384 0.659241 -0.528085
H3    H     H_    0.515949 0.761775 0.703483 0.171449
H4    H     H_    0.495145 0.812095 0.756106 0.169955
C19   C     C_R   0.965311 0.639448 0.619434 -0.091300
H5    H     H_    0.836397 0.657473 0.623428 0.158096
C20   C     C_R   0.976377 0.609295 0.589971 -0.217924
H6    H     H_    0.854930 0.604614 0.572041 0.137246
C21   C     C_R   0.143681 0.586001 0.583321 -0.053165
C22   C     C_R   0.298828 0.593312 0.607073 -0.205454
H7    H     H_    0.429089 0.575700 0.602841 0.135101
C23   C     C_R   0.285432 0.622707 0.637125 -0.084140
H8    H     H_    0.404913 0.626915 0.655492 0.167473
C24   C     C_R   0.118780 0.646295 0.643645 0.354066
C25   C     C_R   0.148076 0.851666 0.885683 -0.105530
H9    H     H_    0.246548 0.827014 0.884386 0.137737
C26   C     C_R   0.139623 0.880540 0.916464 0.039059
C27   C     C_R   0.009468 0.912696 0.917826 -0.078866
C28   C     C_R   0.885571 0.913718 0.889028 -0.242803
H10   H     H_    0.783488 0.937655 0.889644 0.133478
C29   C     C_R   0.894114 0.884485 0.858898 -0.083793
H11   H     H_    0.798599 0.886149 0.836927 0.153091
C30   C     C_R   0.027086 0.853545 0.856814 0.343612
C31   C     C_R   0.134779 0.862195 0.178158 0.572516
O15   O     O_2   0.203624 0.899486 0.185025 -0.529756
N3    N     N_R   0.049335 0.848709 0.146221 -0.549365
C32   C     C_R   0.981275 0.810703 0.138540 0.583648
C33   C     C_R   0.142902 0.869363 0.089425 -0.091700
C34   C     C_R   0.129434 0.895629 0.065212 -0.242165
C35   C     C_R   0.889873 0.934190 0.103094 0.101816
C36   C     C_R   0.905052 0.907281 0.127057 -0.101887
C37   C     C_R   0.030885 0.874985 0.120522 0.339266
C38   C     C_R   0.081170 0.798393 0.196599 -0.047603
C39   C     C_R   0.152417 0.837354 0.203839 -0.025450
C40   C     C_R   0.239201 0.850724 0.236543 -0.133407
C41   C     C_R   0.996556 0.784848 0.163527 -0.060889
C42   C     C_R   0.002563 0.928010 0.071321 -0.077309
H12   H     H_    0.819982 0.911715 0.151306 0.135716
H13   H     H_    0.294261 0.880616 0.242947 0.167361
C43   C     C_R   0.147190 0.576758 0.432922 -0.091068
C44   C     C_R   0.200063 0.760985 0.280813 0.041960
C45   C     C_R   0.992392 0.712955 0.244089 0.000623
C46   C     C_R   0.094524 0.724922 0.275840 0.065982
C47   C     C_R   0.314374 0.770296 0.311450 -0.182088
C48   C     C_R   0.316580 0.745988 0.337085 -0.133642
C49   C     C_R   0.203275 0.711664 0.333470 -0.021002
C50   C     C_R   0.089373 0.700983 0.302975 -0.083162
C51   C     C_R   0.971453 0.666571 0.299694 -0.057739
C52   C     C_R   0.983505 0.642545 0.326759 0.565990
N4    N     N_R   0.098768 0.653395 0.355748 -0.545819
C53   C     C_R   0.204382 0.687553 0.359693 0.538234
C54   C     C_R   0.009106 0.636535 0.415160 0.147112
C55   C     C_R   0.033647 0.611581 0.441318 0.096367
C56   C     C_R   0.247424 0.569380 0.400560 -0.244743
C57   C     C_R   0.231445 0.594870 0.375903 -0.135841
C58   C     C_R   0.111755 0.628084 0.382473 0.334860
O16   O     O_2   0.309813 0.698347 0.389161 -0.551607
C59   C     C_R   0.184894 0.786755 0.255354 0.043004
C60   C     C_R   0.093299 0.773133 0.222499 0.046491
C61   C     C_R   0.014961 0.734364 0.215293 0.009935
C62   C     C_R   0.255650 0.825993 0.261768 -0.177829
H14   H     H_    0.407962 0.754398 0.359970 0.166828
H15   H     H_    0.408012 0.795807 0.315934 0.124360
H16   H     H_    0.319008 0.838953 0.286648 0.123747
O17   O     O_2   0.898429 0.797943 0.106908 -0.530011
C63   C     C_R   0.938504 0.745302 0.155364 -0.156040
H17   H     H_    0.218003 0.890504 0.041405 0.128806
H18   H     H_    0.242162 0.844771 0.084141 0.137382
H19   H     H_    0.884177 0.734032 0.129166 0.163766
C64   C     C_R   0.856944 0.682177 0.243288 -0.223652
C65   C     C_R   0.846074 0.658404 0.269834 0.145999
O18   O     O_2   0.883575 0.608497 0.324344 -0.536743
C66   C     C_R   0.963676 0.719038 0.179502 0.071824
H20   H     H_    0.753126 0.677164 0.221996 0.128658
H21   H     H_    0.336830 0.543324 0.394117 0.139640
H22   H     H_    0.311004 0.588467 0.351126 0.141868
C67   C     C_R   0.459044 0.323794 0.646647 0.583442
O19   O     O_2   0.318319 0.322504 0.622246 -0.529489
N5    N     N_R   0.613649 0.348892 0.645990 -0.554959
C68   C     C_R   0.760146 0.349776 0.670074 0.581438
C69   C     C_R   0.469511 0.401025 0.616996 -0.085421
C70   C     C_R   0.477756 0.426236 0.591855 -0.203472
C71   C     C_R   0.793139 0.400192 0.572472 -0.210407
C72   C     C_R   0.782894 0.374401 0.597098 -0.082576
C73   C     C_R   0.621817 0.374809 0.619832 0.354314
C74   C     C_R   0.596465 0.299143 0.697081 -0.048920
C75   C     C_R   0.446703 0.298929 0.672366 -0.033685
C76   C     C_R   0.288046 0.273872 0.673694 -0.132065
C77   C     C_R   0.755236 0.324680 0.695652 -0.037351
C78   C     C_R   0.640481 0.426331 0.569557 -0.056879
H23   H     H_    0.919739 0.399400 0.555472 0.138648
H24   H     H_    0.900904 0.354131 0.598565 0.161703
H25   H     H_    0.170131 0.273241 0.655130 0.168920
C79   C     C_R   0.513669 0.073095 0.929931 -0.057785
C80   C     C_R   0.415538 0.223461 0.750463 0.028237
C81   C     C_R   0.731718 0.249291 0.773861 0.028651
C82   C     C_R   0.569069 0.223968 0.775052 0.063857
C83   C     C_R   0.257521 0.197573 0.752948 -0.179405
C84   C     C_R   0.251209 0.173013 0.778369 -0.131326
C85   C     C_R   0.401037 0.173290 0.802631 -0.037049
C86   C     C_R   0.559797 0.198823 0.801192 -0.048925
C87   C     C_R   0.709266 0.199130 0.825973 -0.033993
C88   C     C_R   0.696457 0.174423 0.851812 0.584644
N6    N     N_R   0.541781 0.149352 0.852506 -0.554826
C89   C     C_R   0.395752 0.148321 0.828314 0.580400
C90   C     C_R   0.371280 0.124363 0.901537 -0.083776
C91   C     C_R   0.360785 0.099010 0.926538 -0.204449
C92   C     C_R   0.676591 0.072871 0.907636 -0.205880
C93   C     C_R   0.685093 0.097631 0.882125 -0.084984
C94   C     C_R   0.532819 0.123713 0.878889 0.354285
O20   O     O_2   0.246678 0.122849 0.828741 -0.526903
C95   C     C_R   0.424793 0.248590 0.724344 0.028617
C96   C     C_R   0.587414 0.273925 0.723163 0.063860
C97   C     C_R   0.741075 0.274392 0.747723 0.028277
C98   C     C_R   0.276740 0.249317 0.699082 -0.179138
H26   H     H_    0.233878 0.099992 0.943473 0.140265
H27   H     H_    0.253220 0.144522 0.899751 0.162921
H28   H     H_    0.126573 0.153856 0.779009 0.170409
H29   H     H_    0.134551 0.195382 0.735704 0.128165
H30   H     H_    0.148385 0.231331 0.698018 0.128637
O21   O     O_2   0.909272 0.375245 0.669661 -0.526237
C99   C     C_R   0.905392 0.324856 0.719836 -0.131225
H31   H     H_    0.358436 0.446198 0.590338 0.135273
H32   H     H_    0.344819 0.402085 0.634472 0.159143
H33   H     H_    0.030106 0.343994 0.719185 0.170534
C100  C     C_R   0.879601 0.248615 0.799161 -0.179124
C101  C     C_R   0.868020 0.224150 0.824615 -0.131741
O22   O     O_2   0.836744 0.175863 0.876307 -0.528747
C102  C     C_R   0.899255 0.300236 0.745206 -0.179560
H34   H     H_    0.007921 0.266608 0.800232 0.128583
H35   H     H_    0.795955 0.053016 0.909460 0.133914
H36   H     H_    0.985745 0.224840 0.843225 0.169031
H37   H     H_    0.810083 0.096361 0.864707 0.158296
H38   H     H_    0.022503 0.302345 0.762384 0.128194
C103  C     C_R   0.389470 0.180142 0.199852 0.576224
N7    N     N_R   0.535476 0.176413 0.174862 -0.555219
C104  C     C_R   0.691684 0.201698 0.178879 0.583744
C105  C     C_R   0.706936 0.231363 0.208919 -0.026179
C106  C     C_R   0.557506 0.235617 0.234488 -0.020601
C107  C     C_R   0.396535 0.210054 0.229865 -0.030713
C108  C     C_R   0.867688 0.256903 0.213907 -0.144815
C109  C     C_R   0.879822 0.286193 0.243869 -0.150818
C110  C     C_R   0.731288 0.290760 0.269559 -0.034047
C111  C     C_R   0.569342 0.265450 0.264797 -0.021124
C112  C     C_R   0.419475 0.269841 0.290307 -0.027574
C113  C     C_R   0.258491 0.244369 0.285253 -0.145323
C114  C     C_R   0.247395 0.214792 0.255459 -0.149625
C115  C     C_R   0.740619 0.320070 0.299950 0.579826
N8    N     N_R   0.594426 0.323873 0.324850 -0.552484
C116  C     C_R   0.435345 0.299430 0.320427 0.587685
O23   O     O_2   0.238909 0.154664 0.196046 -0.527023
O24   O     O_2   0.831241 0.198549 0.153694 -0.528742
H39   H     H_    0.985407 0.254209 0.194791 0.169286
H40   H     H_    0.006471 0.305130 0.246877 0.171318
O25   O     O_2   0.894116 0.344792 0.304377 -0.523004
O26   O     O_2   0.294059 0.303297 0.345309 -0.530624
H41   H     H_    0.140480 0.247159 0.304313 0.168442
H42   H     H_    0.121153 0.195740 0.252521 0.171220
C117  C     C_R   0.766036 0.353229 0.379368 -0.114265
H43   H     H_    0.871391 0.329752 0.373501 0.154599
C118  C     C_R   0.786530 0.382189 0.409857 0.086698
C119  C     C_R   0.645048 0.412713 0.417304 -0.070364
C120  C     C_R   0.487143 0.412177 0.394151 -0.254210
H44   H     H_    0.376999 0.434800 0.398976 0.138162
C121  C     C_R   0.470281 0.383215 0.364061 -0.095483
H45   H     H_    0.348819 0.384059 0.346523 0.158073
C122  C     C_R   0.609959 0.353623 0.356288 0.336161
C123  C     C_R   0.362667 0.141787 0.121954 -0.085100
H46   H     H_    0.243434 0.162256 0.127572 0.165448
C124  C     C_R   0.352861 0.111829 0.092350 -0.205874
H47   H     H_    0.225213 0.109691 0.075917 0.140118
C125  C     C_R   0.507622 0.085444 0.083720 -0.053868
C126  C     C_R   0.671102 0.089382 0.105678 -0.215008
H48   H     H_    0.792176 0.069387 0.099914 0.137018
C127  C     C_R   0.678798 0.118722 0.135739 -0.091569
H49   H     H_    0.804745 0.120596 0.152577 0.157300
C128  C     C_R   0.525383 0.145487 0.144100 0.356624
O27   O     O_R   0.662230 0.032770 0.966890 -0.536915
O28   O     O_R   0.330090 0.043230 0.039150 -0.540383
O29   O     O_R   0.157350 0.967260 0.033130 -0.535845
C129  C     C_R   0.498494 0.053790 0.052223 0.706399
O30   O     O_R   0.332650 0.037450 0.967510 -0.540125
O31   O     O_R   0.159930 0.961430 0.960980 -0.533801
C130  C     C_R   0.502240 0.046068 0.956227 0.713905
O32   O     O_R   0.659640 0.038600 0.039040 -0.539298
O33   O     O_3   0.492510 0.975090 0.997960 -0.368524
V3    V     V_3+5 0.218600 0.004620 0.000380 1.406270
O34   O     O_R   0.830050 0.956730 0.960830 -0.541864
C131  C     C_R   0.999507 0.945439 0.948473 0.700291
O35   O     O_R   0.827490 0.962520 0.032470 -0.545798
C132  C     C_R   0.995066 0.954859 0.044610 0.696204
V4    V     V_3+5 0.718310 0.995320 0.999580 1.386776
O36   O     O_3   0.994270 0.024900 0.002040 -0.362564
C133  C     C_3   0.259525 0.874052 0.947923 -0.387767
C134  C     C_3   0.474926 0.881958 0.941954 -0.261498
C135  C     C_3   0.595005 0.874034 0.973322 -0.699242
H50   H     H_    0.550808 0.894112 0.997859 0.228057
H51   H     H_    0.575759 0.842963 0.977353 0.219664
H52   H     H_    0.750652 0.878998 0.968118 0.206613
H53   H     H_    0.527908 0.862577 0.917620 0.211275
H54   H     H_    0.495740 0.913155 0.938383 0.214227
H55   H     H_    0.209074 0.892682 0.972770 0.168640
H56   H     H_    0.239524 0.842988 0.952070 0.176670
C136  C     C_3   0.759922 0.969717 0.113659 -0.387700
C137  C     C_3   0.849962 0.999098 0.143454 -0.718309
H57   H     H_    0.873145 0.985181 0.167272 0.246211
H58   H     H_    0.990717 0.010007 0.134559 0.225604
H59   H     H_    0.751611 0.024646 0.150845 0.221474
H60   H     H_    0.730097 0.985698 0.091535 0.189040
H61   H     H_    0.617268 0.959727 0.122615 0.196188
C138  C     C_3   0.956274 0.623600 0.479080 -0.387636
C139  C     C_3   0.118579 0.640602 0.503923 -0.748323
H62   H     H_    0.230900 0.618015 0.505557 0.215931
H63   H     H_    0.186574 0.666297 0.494336 0.237734
H64   H     H_    0.058637 0.650661 0.530882 0.225231
H65   H     H_    0.840325 0.645883 0.481272 0.193670
H66   H     H_    0.887465 0.598385 0.489063 0.195824
C140  C     C_3   0.871503 0.671385 0.421552 -0.365679
C141  C     C_3   0.660860 0.657422 0.419248 -0.689202
H67   H     H_    0.621578 0.647377 0.391102 0.252723
H68   H     H_    0.634406 0.632649 0.433982 0.212767
H69   H     H_    0.565981 0.682253 0.430791 0.257495
H70   H     H_    0.900898 0.690025 0.447528 0.185749
H71   H     H_    0.891397 0.691529 0.401994 0.203245
C142  C     C_3   0.692866 0.626079 0.265042 -0.304662
C143  C     C_3   0.519995 0.637177 0.289760 -0.685432
H72   H     H_    0.564092 0.643212 0.317937 0.245456
H73   H     H_    0.450429 0.663976 0.283025 0.216941
H74   H     H_    0.412337 0.612762 0.286298 0.208458
H75   H     H_    0.636550 0.621265 0.237523 0.150526
H76   H     H_    0.753836 0.597068 0.267961 0.220283
C144  C     C_3   0.961635 0.675057 0.164511 -0.388513
C145  C     C_3   0.107956 0.664567 0.133882 -0.298860
C146  C     C_3   0.118467 0.620014 0.121629 -0.755546
H77   H     H_    0.167866 0.605077 0.143558 0.227126
H78   H     H_    0.974229 0.608211 0.112537 0.233282
H79   H     H_    0.223048 0.613441 0.099257 0.222624
H80   H     H_    0.066233 0.678451 0.110857 0.201343
H81   H     H_    0.254042 0.675628 0.142716 0.202248
H82   H     H_    0.004062 0.657113 0.184652 0.193329
H83   H     H_    0.813471 0.666169 0.155189 0.172922
C147  C     C_3   0.957578 0.378381 0.433678 -0.340300
C148  C     C_3   0.893632 0.366085 0.468606 -0.706365
H84   H     H_    0.793960 0.388000 0.483665 0.209153
H85   H     H_    0.819306 0.336976 0.463386 0.227487
H86   H     H_    0.022467 0.363533 0.485198 0.212551
H87   H     H_    0.059894 0.355541 0.420546 0.194633
H88   H     H_    0.043904 0.405997 0.438397 0.198568

loop_
_geom_bond_atom_site_label_1
_geom_bond_atom_site_label_2
_ccdc_geom_bond_type
C107  C114  A    
C40   H13   S    
C28   H10   S    
C141  H68   S    
C104  O24   S    
C82   C86   A    
N7    C128  S    
N5    C73   S    
C9    C16   A    
C69   C70   A    
C81   C97   A    
C121  H45   S    
C90   C94   A    
C60   C61   A    
O3    V1    S    
C95   C98   A    
C1    O6    A    
C80   C83   A    
O34   C131  A    
C114  H42   S    
C143  H74   S    
C48   C49   A    
C121  C122  A    
C75   C76   A    
N4    C58   S    
C52   N4    A    
C139  H62   S    
C40   C62   A    
O32   V4    S    
C13   C14   A    
N3    C32   A    
C84   H28   S    
C145  H80   S    
C84   C85   A    
C33   C37   A    
C8    C9    A    
C15   C16   A    
N7    C104  A    
C110  C115  A    
C38   C39   A    
O28   C129  A    
O5    C3    A    
C142  C143  S    
C109  H40   S    
C124  C125  A    
C29   C30   A    
C117  C122  A    
C64   C65   A    
C118  C119  A    
N5    C68   A    
C117  C118  A    
C112  C113  A    
C44   C59   A    
C102  H38   S    
C51   C65   A    
C34   C42   A    
C115  N8    A    
C63   H19   S    
C31   N3    A    
C137  H57   S    
C19   H5    S    
C148  H86   S    
C69   C73   A    
C105  C106  A    
C136  C137  S    
C99   H33   S    
C100  H34   S    
O8    V2    S    
C45   C46   A    
C50   C51   A    
C45   C61   A    
C81   C82   A    
C124  H47   S    
C86   C87   A    
C76   H25   S    
C148  H84   S    
C146  H78   S    
C12   C17   A    
C119  C120  A    
O1    V2    S    
C18   O14   S    
C52   O18   S    
C79   C92   A    
O7    V1    S    
C139  H64   S    
C32   O17   S    
C43   C55   A    
O35   V4    S    
C23   C24   A    
C35   C36   A    
C141  H69   S    
C120  H44   S    
C147  H88   S    
O9    C4    A    
C69   H32   S    
C136  H61   S    
C123  H46   S    
C19   C20   A    
C146  H79   S    
C133  H56   S    
C133  C134  S    
C5    O11   S    
C56   H21   S    
C66   C144  S    
O34   V4    S    
C134  H53   S    
C68   O21   S    
V4    O36   S    
C8    C13   A    
C139  H63   S    
C109  C110  A    
C4    C21   S    
C93   H37   S    
C74   C75   A    
C44   C46   A    
C129  O32   A    
C88   N6    A    
C22   C23   A    
C32   C41   A    
O29   C132  A    
C108  H39   S    
V2    O10   S    
C145  H81   S    
C92   H35   S    
C25   H9    S    
C74   C96   A    
C54   C58   A    
O30   V3    S    
C112  C116  A    
C11   C12   A    
C126  H48   S    
N6    C94   S    
C57   C58   A    
C42   C132  S    
N4    C53   A    
C125  C126  A    
C143  H73   S    
C15   H3    S    
C38   C60   A    
C12   C13   A    
C26   C27   A    
C35   C42   A    
O31   V3    S    
C123  C128  A    
C135  H52   S    
O31   C131  A    
C36   C37   A    
C17   O13   S    
C67   N5    A    
C31   O15   S    
C25   C26   A    
C57   H22   S    
C38   C41   A    
O2    C1    A    
C20   H6    S    
C27   C131  S    
C28   C29   A    
C85   C89   A    
C140  C141  S    
N1    C30   S    
O30   C130  A    
C127  H49   S    
C67   C75   A    
C7    C10   A    
O33   V4    S    
C147  H87   S    
O8    C3    A    
C144  H82   S    
C135  H51   S    
C5    N1    A    
C72   C73   A    
C115  O25   S    
C21   C22   A    
C80   C95   A    
C65   C142  S    
C113  H41   S    
C11   H2    S    
C98   H30   S    
C51   C52   A    
C71   C72   A    
C79   C130  S    
C79   C91   A    
C20   C21   A    
C103  N7    A    
C120  C121  A    
C87   C101  A    
O3    C4    A    
C105  C108  A    
C108  C109  A    
C2    C119  S    
C118  C147  S    
C138  H66   S    
C23   H8    S    
C127  C128  A    
C76   C98   A    
C123  C124  A    
C49   C50   A    
O6    V2    S    
C10   H1    S    
C68   C77   A    
C3    C43   S    
C47   H15   S    
C113  C114  A    
C136  H60   S    
C49   C53   A    
C133  H55   S    
C25   C30   A    
C140  H71   S    
C34   H17   S    
N2    C24   S    
C141  H67   S    
O2    V1    S    
C7    C8    A    
C19   C24   A    
C134  C135  S    
C62   H16   S    
O27   V4    S    
C111  C112  A    
O4    C2    A    
C67   O19   S    
C103  C107  A    
C44   C47   A    
C125  C129  S    
C33   H18   S    
C83   H29   S    
C22   H7    S    
C91   H26   S    
C10   C11   A    
C35   C136  S    
C14   C18   A    
O1    C2    A    
C142  H76   S    
N2    C18   A    
C138  H65   S    
C93   C94   A    
C47   C48   A    
C80   C82   A    
C6    O12   S    
O28   V3    S    
C31   C39   A    
O5    V1    S    
C27   C28   A    
C54   C140  S    
C138  C139  S    
C72   H24   S    
C70   H31   S    
C143  H72   S    
C1    C78   S    
C110  C111  A    
C100  C101  A    
C61   C66   A    
C26   C133  S    
C83   C84   A    
N8    C116  A    
C5    C9    A    
C59   C62   A    
C103  O23   S    
C134  H54   S    
C137  H59   S    
C33   C34   A    
N8    C122  S    
C6    C7    A    
O9    V2    S    
C101  H36   S    
O7    V2    S    
O29   V3    S    
O4    V1    S    
C106  C107  A    
O27   C130  A    
C96   C97   A    
C46   C50   A    
C97   C102  A    
C56   C57   A    
C17   N2    A    
C41   C63   A    
C140  H70   S    
C74   C77   A    
N6    C89   A    
C144  H83   S    
C16   H4    S    
C135  H50   S    
C126  C127  A    
C53   O16   S    
C45   C64   A    
C36   H12   S    
N3    C37   S    
C148  H85   S    
C90   H27   S    
C116  O26   S    
C59   C60   A    
O33   V3    S    
C81   C100  A    
C39   C40   A    
C88   O22   S    
C87   C88   A    
C89   O20   S    
C106  C111  A    
C104  C105  A    
C117  H43   S    
C71   C78   A    
C55   C138  S    
C92   C93   A    
C142  H75   S    
C54   C55   A    
C64   H20   S    
O35   C132  A    
C48   H14   S    
C14   C15   A    
C90   C91   A    
N1    C6    A    
C147  C148  S    
C85   C86   A    
C63   C66   A    
V1    O10   S    
C70   C78   A    
C137  H58   S    
C29   H11   S    
C145  C146  S    
C95   C96   A    
C146  H77   S    
V3    O36   S    
C99   C102  A    
C43   C56   A    
C144  C145  S    
C77   C99   A    
C71   H23   S    
