data_mof_unit_9477.cif
_audit_creation_date              2012-10-26T21:14:01-0400
_audit_creation_method            fapswitch 2.2
_symmetry_space_group_name_H-M    P1
_symmetry_Int_Tables_number       1
_space_group_crystal_system       triclinic
_cell_length_a                    15.785532
_cell_length_b                    15.823373
_cell_length_c                    17.151585
_cell_angle_alpha                 83.924246
_cell_angle_beta                  90.473193
_cell_angle_gamma                 112.651603
_cell_volume                      3928.99194654

loop_
_atom_site_label
_atom_site_type_symbol
_atom_type_description
_atom_site_fract_x
_atom_site_fract_y
_atom_site_fract_z
_atom_type_partial_charge
C1    C     C_R   0.496914 0.509315 0.348340 0.581848
C2    C     C_R   0.510650 0.565861 0.774253 0.166406
C3    C     C_R   0.452007 0.432540 0.144224 0.215025
C4    C     C_R   0.496845 0.558473 0.855589 0.226052
C5    C     C_R   0.466918 0.516735 0.098362 0.128997
C6    C     C_R   0.496537 0.479208 0.902853 0.119667
C7    C     C_R   0.486266 0.596749 0.134560 0.204512
C8    C     C_R   0.505632 0.406825 0.867142 0.229555
C9    C     C_R   0.488475 0.593299 0.216973 0.169654
C10   C     C_R   0.509536 0.410590 0.785140 0.178838
C11   C     C_R   0.551819 0.267102 0.467137 -0.019442
C12   C     C_R   0.502924 0.490956 0.651531 0.561970
C13   C     C_R   0.447699 0.732590 0.532600 -0.015122
C14   C     C_R   0.549834 0.177127 0.467400 0.219633
C15   C     C_R   0.450292 0.822594 0.533150 0.223497
C16   C     C_R   0.675433 0.555665 0.498881 0.522376
C17   C     C_R   0.324575 0.444303 0.503140 0.535000
C18   C     C_R   0.479098 0.102636 0.511238 0.157005
C19   C     C_R   0.518897 0.896739 0.487080 0.154822
C20   C     C_R   0.415558 0.122787 0.554214 -0.195911
C21   C     C_R   0.583179 0.876971 0.444717 -0.204905
C22   C     C_R   0.422006 0.214665 0.554916 0.389233
C23   C     C_R   0.084312 0.591394 0.435286 0.250255
C24   C     C_R   0.578117 0.785257 0.445134 0.383315
C25   C     C_R   0.776155 0.589910 0.496420 -0.016337
C26   C     C_R   0.224220 0.411022 0.511500 -0.012340
C27   C     C_R   0.922871 0.707682 0.450447 -0.128994
C28   C     C_R   0.080323 0.298461 0.568535 -0.128201
C29   C     C_R   0.829450 0.681216 0.467475 -0.158277
C30   C     C_R   0.171532 0.321465 0.544911 -0.152599
C31   C     C_R   0.819164 0.528995 0.518275 -0.105389
C32   C     C_R   0.182171 0.473393 0.493430 -0.105546
C33   C     C_R   0.914358 0.556047 0.506095 -0.019636
C34   C     C_R   0.921099 0.418121 0.585469 0.245913
C35   C     C_R   0.088417 0.449259 0.510510 -0.024152
C36   C     C_R   0.964537 0.643685 0.464701 0.008483
C37   C     C_R   0.039719 0.363641 0.555574 0.008798
C38   C     C_R   0.958836 0.494703 0.527297 -0.078137
C39   C     C_R   0.044875 0.511862 0.490681 -0.079635
C40   C     C_3   0.178652 0.796423 0.425079 0.010716
C41   C     C_3   0.230303 0.887463 0.375429 -0.368931
C42   C     C_3   0.835242 0.210599 0.618754 -0.007217
C43   C     C_3   0.789699 0.128984 0.680427 -0.379985
C44   C     C_3   0.409271 0.837530 0.655833 -0.006541
C45   C     C_R   0.052293 0.662837 0.432770 0.268136
C46   C     C_3   0.338418 0.854952 0.704034 -0.378087
C47   C     C_3   0.697080 0.189985 0.450605 -0.011236
C48   C     C_3   0.764448 0.178408 0.393996 -0.374808
C49   C     C_3   0.332619 0.184795 0.669906 -0.008936
C50   C     C_3   0.288506 0.231915 0.719810 -0.331495
C51   C     C_3   0.679046 0.821973 0.335587 -0.004683
C52   C     C_3   0.726007 0.777452 0.285741 -0.352619
C53   C     C_3   0.104505 0.542462 0.319953 0.003257
C54   C     C_3   0.174263 0.550341 0.256333 -0.384702
C55   C     C_3   0.906774 0.469852 0.700674 0.012882
C56   C     C_R   0.955321 0.347954 0.592661 0.261760
C57   C     C_3   0.840545 0.465362 0.766147 -0.391875
C58   C     C_3   0.617827 0.705414 0.728138 0.021506
C59   C     C_3   0.632682 0.799970 0.686417 -0.369680
C60   C     C_3   0.534529 0.325911 0.252308 0.027000
C61   C     C_3   0.503602 0.221598 0.261367 -0.338180
C62   C     C_3   0.401618 0.631636 0.877419 0.033105
C63   C     C_3   0.396759 0.717794 0.905256 -0.376799
C64   C     C_3   0.330214 0.312724 0.106405 0.018835
C65   C     C_3   0.301995 0.224966 0.066613 -0.362300
C66   C     C_3   0.596643 0.728347 0.077180 0.015735
C67   C     C_R   0.486194 0.511827 0.262131 -0.077443
C68   C     C_3   0.614401 0.816922 0.023792 -0.380215
C69   C     C_3   0.582665 0.342424 0.953142 0.016045
C70   C     C_3   0.599582 0.253650 0.964870 -0.380827
C71   C     C_3   0.426365 0.700910 0.235318 0.016793
C72   C     C_3   0.393731 0.726730 0.309104 -0.363210
C73   C     C_3   0.603894 0.348084 0.738393 0.030296
C74   C     C_3   0.607824 0.262728 0.708100 -0.370600
C75   C     C_R   0.507906 0.488788 0.737889 -0.100450
C76   C     C_R   0.468941 0.431528 0.224575 0.178399
Cu1   Cu    Cu3+1 0.504410 0.586150 0.496120 1.007962
Cu2   Cu    Cu3+1 0.495590 0.413850 0.503880 1.012833
H1    H     H_    0.202466 0.271567 0.558053 0.165596
H2    H     H_    0.771800 0.152973 0.734148 0.156925
H3    H     H_    0.725901 0.079590 0.657373 0.088128
H4    H     H_    0.836980 0.093301 0.695551 0.151560
H5    H     H_    0.395208 0.676064 0.567541 0.152951
H6    H     H_    0.603461 0.323401 0.431411 0.132522
H7    H     H_    0.477437 0.893880 0.661923 0.136385
H8    H     H_    0.411523 0.770335 0.680257 0.143326
H9    H     H_    0.269667 0.799311 0.699968 0.149104
H10   H     H_    0.357579 0.856297 0.766464 0.087120
H11   H     H_    0.335331 0.922229 0.681997 0.152383
H12   H     H_    0.797943 0.730424 0.453106 0.161543
H13   H     H_    0.693914 0.146104 0.506557 0.135483
H14   H     H_    0.723569 0.263786 0.461499 0.101208
H15   H     H_    0.768325 0.220850 0.337229 0.147639
H16   H     H_    0.833819 0.201072 0.418925 0.082899
H17   H     H_    0.741843 0.104967 0.383609 0.152671
H18   H     H_    0.360282 0.065901 0.586013 0.102858
H19   H     H_    0.637231 0.934184 0.412045 0.099866
H20   H     H_    0.393182 0.179930 0.700892 0.165340
H21   H     H_    0.280792 0.114525 0.664398 0.099060
H22   H     H_    0.221492 0.227276 0.695930 0.121247
H23   H     H_    0.225793 0.759150 0.433765 0.177689
H24   H     H_    0.276702 0.197673 0.780949 0.107401
H25   H     H_    0.333681 0.305628 0.720298 0.196818
H26   H     H_    0.732152 0.888359 0.349594 0.100410
H27   H     H_    0.624559 0.834577 0.300406 0.150989
H28   H     H_    0.677467 0.707732 0.274634 0.188186
H29   H     H_    0.750529 0.820677 0.228791 0.076231
H30   H     H_    0.786022 0.771278 0.316080 0.133383
H31   H     H_    0.225406 0.543209 0.471573 0.181213
H32   H     H_    0.776692 0.458459 0.539473 0.168494
H33   H     H_    0.960944 0.776585 0.422165 0.151427
H34   H     H_    0.160235 0.811602 0.483130 0.126056
H35   H     H_    0.043176 0.231129 0.600054 0.147975
H36   H     H_    0.051328 0.565093 0.292555 0.142871
H37   H     H_    0.071655 0.468615 0.344166 0.127979
H38   H     H_    0.228963 0.529413 0.282155 0.152014
H39   H     H_    0.139991 0.504599 0.210958 0.088473
H40   H     H_    0.205114 0.622488 0.228210 0.151112
H41   H     H_    0.942457 0.543416 0.676420 0.126076
H42   H     H_    0.958270 0.443776 0.726711 0.150747
H43   H     H_    0.790247 0.494154 0.742924 0.128625
H44   H     H_    0.879057 0.506560 0.812832 0.088570
H45   H     H_    0.186023 0.927549 0.366523 0.149250
H46   H     H_    0.804101 0.392813 0.791934 0.150188
H47   H     H_    0.657794 0.675086 0.695301 0.122025
H48   H     H_    0.644720 0.715013 0.788273 0.142357
H49   H     H_    0.706875 0.844952 0.684503 0.086906
H50   H     H_    0.608987 0.793774 0.625473 0.162074
H51   H     H_    0.594071 0.832105 0.718319 0.134908
H52   H     H_    0.587984 0.355104 0.295332 0.124852
H53   H     H_    0.566925 0.352148 0.192359 0.130495
H54   H     H_    0.455287 0.192289 0.214698 0.154159
H55   H     H_    0.563988 0.202649 0.256294 0.121479
H56   H     H_    0.293067 0.928309 0.405504 0.137589
H57   H     H_    0.468211 0.191845 0.319382 0.182502
H58   H     H_    0.349667 0.570184 0.911921 0.131464
H59   H     H_    0.383317 0.631163 0.814561 0.149536
H60   H     H_    0.448932 0.780213 0.872445 0.142256
H61   H     H_    0.327547 0.718633 0.894848 0.077410
H62   H     H_    0.409342 0.718768 0.968936 0.201711
H63   H     H_    0.304656 0.360987 0.071402 0.127875
H64   H     H_    0.297367 0.294878 0.166399 0.144085
H65   H     H_    0.325921 0.174966 0.100389 0.150008
H66   H     H_    0.226036 0.193441 0.063607 0.080423
H67   H     H_    0.250790 0.874554 0.317468 0.154557
H68   H     H_    0.332684 0.240975 0.006111 0.198292
H69   H     H_    0.629300 0.687577 0.048918 0.143271
H70   H     H_    0.629369 0.747144 0.133918 0.138397
H71   H     H_    0.587454 0.800733 0.964871 0.183487
H72   H     H_    0.580350 0.858018 0.049142 0.141397
H73   H     H_    0.689422 0.858343 0.017447 0.084419
H74   H     H_    0.574627 0.362045 0.012058 0.185548
H75   H     H_    0.644636 0.397281 0.922377 0.083011
H76   H     H_    0.540590 0.198410 0.998199 0.160021
H77   H     H_    0.608191 0.231521 0.907158 0.151186
H78   H     H_    0.851615 0.184323 0.565519 0.108225
H79   H     H_    0.662847 0.264794 0.998282 0.082607
H80   H     H_    0.365713 0.648167 0.210775 0.120000
H81   H     H_    0.452280 0.763119 0.191733 0.163411
H82   H     H_    0.371444 0.667110 0.355357 0.193584
H83   H     H_    0.449870 0.785759 0.330855 0.140090
H84   H     H_    0.334861 0.747184 0.295795 0.115497
H85   H     H_    0.642342 0.358797 0.793368 0.118697
H86   H     H_    0.638395 0.408154 0.693790 0.138709
H87   H     H_    0.575641 0.252962 0.650332 0.149754
H88   H     H_    0.680492 0.270890 0.701125 0.129022
H89   H     H_    0.785365 0.243588 0.604295 0.144229
H90   H     H_    0.571243 0.200914 0.750171 0.139265
N1    N     N_2   0.465003 0.524447 0.015464 -0.155203
N2    N     N_2   0.492349 0.470554 0.986042 -0.190563
N3    N     N_R   0.488960 0.284450 0.509710 -0.234754
N4    N     N_R   0.511040 0.715550 0.490290 -0.244032
N5    N     N_2   0.466975 0.007321 0.514340 -0.174972
N6    N     N_2   0.529950 0.991797 0.482994 -0.178508
O1    O     O_R   0.504130 0.580750 0.382440 -0.421719
O2    O     O_3   0.916255 0.272722 0.648469 -0.550927
O3    O     O_3   0.384196 0.836184 0.576605 -0.554563
O4    O     O_3   0.609695 0.162027 0.417583 -0.551499
O5    O     O_3   0.357994 0.236010 0.595145 -0.517803
O6    O     O_3   0.641958 0.762990 0.405291 -0.509012
O7    O     O_3   0.149440 0.598365 0.378793 -0.573598
O8    O     O_3   0.857895 0.415857 0.641941 -0.573407
O9    O     O_3   0.523196 0.648860 0.730691 -0.535629
O10   O     O_3   0.458208 0.348617 0.267356 -0.518824
O11   O     O_3   0.490932 0.632492 0.888339 -0.513888
O12   O     O_R   0.495870 0.419250 0.617560 -0.440420
O13   O     O_3   0.426723 0.351231 0.110272 -0.526890
O14   O     O_3   0.501015 0.678758 0.088648 -0.550284
O15   O     O_3   0.501125 0.326532 0.911452 -0.517846
O16   O     O_3   0.498811 0.670910 0.253426 -0.535537
O17   O     O_3   0.511418 0.335212 0.752072 -0.518340
O18   O     O_R   0.496670 0.435250 0.388990 -0.471631
O19   O     O_R   0.503330 0.564750 0.611010 -0.467674
O20   O     O_R   0.635650 0.613550 0.494890 -0.454649
O21   O     O_R   0.364350 0.386450 0.505110 -0.443388
O22   O     O_R   0.628200 0.468050 0.501440 -0.544013
O23   O     O_R   0.371800 0.531950 0.498560 -0.542765
O24   O     O_3   0.098767 0.745101 0.386497 -0.557111

loop_
_geom_bond_atom_site_label_1
_geom_bond_atom_site_label_2
_ccdc_geom_bond_type
C25   C31   A    
C66   C68   S    
C57   H44   S    
C34   C56   A    
C23   C45   A    
C48   H17   S    
C66   O14   S    
C27   C29   A    
C12   O19   A    
C14   C18   A    
C42   H78   S    
C63   H62   S    
C74   H90   S    
C61   H55   S    
C40   H34   S    
C46   H11   S    
C55   H41   S    
Cu1   Cu2   S    
C53   H36   S    
C26   C32   A    
C48   H16   S    
C56   O2    S    
C17   C26   S    
C11   H6    S    
C35   C37   A    
C23   O7    S    
C73   H86   S    
C38   C39   A    
C65   H65   S    
C11   C14   A    
C64   H63   S    
C59   H49   S    
C33   C36   A    
C47   H14   S    
C62   H58   S    
Cu1   O19   S    
C41   H56   S    
C68   H71   S    
C61   H54   S    
C1    C67   S    
C40   H23   S    
C15   C19   A    
C37   C56   A    
C31   H32   S    
C13   N4    A    
C1    O1    A    
C52   H29   S    
C54   H38   S    
C24   O6    S    
C72   H83   S    
C31   C33   A    
C17   O23   A    
Cu2   O12   S    
C66   H70   S    
C22   N3    A    
Cu2   O21   S    
C49   H20   S    
C52   H28   S    
C50   H25   S    
Cu1   O1    S    
C16   O20   A    
C70   H76   S    
C47   H13   S    
C44   H8    S    
C60   H53   S    
C29   H12   S    
C44   C46   S    
C46   H10   S    
C55   H42   S    
C73   C74   S    
C25   C29   A    
C48   H15   S    
C51   C52   S    
C32   C35   A    
C7    O14   S    
Cu2   O18   S    
C4    C6    A    
C32   H31   S    
C60   H52   S    
C5    C7    A    
C65   H66   S    
C6    C8    A    
C59   H50   S    
C53   C54   S    
C69   H75   S    
C70   H77   S    
C58   O9    S    
C4    O11   S    
C2    C4    A    
Cu1   O20   S    
C9    C67   A    
C55   C57   S    
C62   C63   S    
C16   O22   A    
C53   O7    S    
C49   H21   S    
C21   H19   S    
C10   C75   A    
C47   C48   S    
C8    O15   S    
C51   H27   S    
C12   O12   A    
C36   C45   A    
N1    N2    D    
Cu2   O22   S    
C3    C76   A    
C64   H64   S    
C66   H69   S    
C14   O4    S    
C62   O11   S    
C30   H1    S    
C40   C41   S    
C20   C22   A    
C50   H24   S    
C13   C15   A    
C71   O16   S    
C43   H3    S    
C63   H60   S    
C17   O21   A    
C42   C43   S    
C21   C24   A    
C69   O15   S    
C51   O6    S    
C54   H40   S    
C11   N3    A    
C74   H88   S    
C42   H89   S    
C61   H57   S    
C9    O16   S    
C46   H9    S    
C6    N2    S    
C16   C25   S    
C7    C9    A    
C71   H80   S    
C1    O18   A    
C59   H51   S    
C5    N1    S    
C51   H26   S    
C19   C21   A    
C34   C38   A    
C69   H74   S    
C63   H61   S    
C33   C38   A    
C22   O5    S    
C3    C5    A    
C3    O13   S    
C44   O3    S    
C58   H48   S    
C27   C36   A    
C47   O4    S    
C71   H81   S    
C13   H5    S    
C50   H22   S    
C10   O17   S    
C72   H82   S    
C70   H79   S    
C64   C65   S    
C41   H45   S    
C15   O3    S    
C45   O24   S    
C19   N6    S    
C60   O10   S    
C73   H85   S    
C68   H73   S    
C42   O2    S    
C57   H46   S    
C40   O24   S    
C28   C37   A    
Cu1   N4    S    
C23   C39   A    
C35   C39   A    
C28   C30   A    
Cu2   N3    S    
C43   H2    S    
C55   O8    S    
C34   O8    S    
C18   C20   A    
C2    O9    S    
C62   H59   S    
C20   H18   S    
C69   C70   S    
C24   N4    A    
C58   C59   S    
C64   O13   S    
C68   H72   S    
C28   H35   S    
C57   H43   S    
C18   N5    S    
C53   H37   S    
C71   C72   S    
C41   H67   S    
C52   H30   S    
C58   H47   S    
C8    C10   A    
C49   C50   S    
C54   H39   S    
C12   C75   S    
C43   H4    S    
C72   H84   S    
C60   C61   S    
C67   C76   A    
C49   O5    S    
C65   H68   S    
C76   O10   S    
N5    N6    D    
Cu1   O23   S    
C27   H33   S    
C74   H87   S    
C2    C75   A    
C44   H7    S    
C73   O17   S    
C26   C30   A    
