data_mof_unit_13715.cif
_audit_creation_date              2013-03-05T16:04:07-0500
_audit_creation_method            fapswitch 2.2
_symmetry_space_group_name_H-M    P1
_symmetry_Int_Tables_number       1
_space_group_crystal_system       triclinic
_cell_length_a                    10.961182
_cell_length_b                    9.715685
_cell_length_c                    11.0667
_cell_angle_alpha                 92.299758
_cell_angle_beta                  93.214635
_cell_angle_gamma                 90.172781
_cell_volume                      1175.7339323

loop_
_atom_site_label
_atom_site_type_symbol
_atom_site_description
_atom_site_fract_x
_atom_site_fract_y
_atom_site_fract_z
_atom_type_partial_charge
O1    O     O_R   0.319640 0.618740 0.499990 -0.601138
O2    O     O_R   0.680360 0.618740 0.500010 -0.608599
O3    O     O_R   0.319620 0.381170 0.499990 -0.559438
O4    O     O_R   0.680380 0.381170 0.500010 -0.568361
C1    C     C_R   0.263435 0.500560 0.509556 0.824919
C2    C     C_R   0.737315 0.499897 0.494718 0.834060
O5    O     O_R   0.500000 0.618810 0.319650 -0.591601
O6    O     O_R   0.500000 0.618810 0.680350 -0.606783
O7    O     O_R   0.499970 0.381240 0.319640 -0.542290
O8    O     O_R   0.500030 0.381240 0.680360 -0.526778
C3    C     C_R   0.500792 0.496609 0.263014 0.826036
C4    C     C_R   0.492147 0.503077 0.738094 0.830234
Cu1   Cu    Cu3+1 0.500000 0.640660 0.500000 0.991353
Cu2   Cu    Cu3+1 0.500000 0.359340 0.500000 1.087908
C5    C     C_R   0.656267 0.672848 0.120421 -0.143961
C6    C     C_R   0.523232 0.757144 0.914451 -0.145172
C7    C     C_R   0.685166 0.799177 0.073023 0.231097
C8    C     C_R   0.614820 0.845218 0.971769 0.260596
C9    C     C_R   0.513295 0.622618 0.951177 -0.067962
C10   C     C_R   0.555034 0.597530 0.070180 -0.026953
C11   C     C_R   0.502663 0.489204 0.129422 -0.196835
C12   C     C_R   0.475338 0.508476 0.873840 -0.233703
C13   C     C_R   0.446634 0.381314 0.057685 0.251634
C14   C     C_R   0.448518 0.385656 0.931666 0.289774
C15   C     C_R   0.063944 0.376879 0.521365 0.260332
C16   C     C_R   0.937630 0.374746 0.491816 0.253667
C17   C     C_R   0.872457 0.500379 0.490997 -0.208810
C18   C     C_R   0.129262 0.502348 0.520601 -0.224939
C19   C     C_R   0.937933 0.626175 0.493158 -0.099497
C20   C     C_R   0.064212 0.627655 0.516225 -0.110096
C21   C     C_R   0.416646 0.070537 0.428994 0.057250
C22   C     C_R   0.587574 0.076884 0.565810 0.082109
C23   C     C_R   0.417847 0.922516 0.427339 0.041067
C24   C     C_R   0.587121 0.928686 0.566252 0.054387
N1    N     N_R   0.500000 0.852070 0.500000 -0.228240
N2    N     N_R   0.500000 0.147940 0.500000 -0.221570
N3    N     N_R   0.418280 0.251511 0.106917 0.122736
O9    O     O_R   0.320107 0.186560 0.064186 -0.292744
O10   O     O_R   0.507023 0.179519 0.155015 -0.296648
N4    N     N_R   0.482191 0.260888 0.875570 0.179962
O11   O     O_R   0.598803 0.245276 0.866737 -0.290016
O12   O     O_R   0.402755 0.183531 0.812670 -0.235922
C25   C     C_1   0.750600 0.600172 0.187145 0.362646
N5    N     N_1   0.828279 0.539349 0.235020 -0.225019
C26   C     C_1   0.421135 0.810881 0.842400 0.453883
N6    N     N_1   0.339163 0.853984 0.785609 -0.170778
N7    N     N_R   0.781359 0.882195 0.131291 0.162711
O13   O     O_R   0.755208 0.996771 0.188903 -0.213419
O14   O     O_R   0.894458 0.842124 0.129645 -0.293005
N8    N     N_R   0.645775 0.970292 0.916646 0.170202
O15   O     O_R   0.750370 0.031821 0.941496 -0.218347
O16   O     O_R   0.583098 0.002851 0.819894 -0.378856
N9    N     N_R   0.123064 0.256182 0.566725 0.159577
O17   O     O_R   0.177796 0.261518 0.674207 -0.286349
O18   O     O_R   0.123587 0.141633 0.502258 -0.301073
N10   N     N_R   0.879807 0.249340 0.443806 0.150928
O19   O     O_R   0.821230 0.248155 0.338188 -0.254238
O20   O     O_R   0.893926 0.134010 0.498223 -0.309598
C27   C     C_1   0.880774 0.752309 0.453088 0.366869
N11   N     N_1   0.836335 0.852533 0.419230 -0.153010
C28   C     C_1   0.123107 0.759796 0.544868 0.367378
N12   N     N_1   0.168753 0.865576 0.568723 -0.156620
C29   C     C_1   0.325734 0.139799 0.355089 0.451464
N13   N     N_1   0.250955 0.194772 0.297178 -0.155645
C30   C     C_1   0.682353 0.152366 0.635888 0.516643
N14   N     N_1   0.759261 0.211352 0.692594 -0.151886
C31   C     C_1   0.334041 0.846120 0.344307 0.343131
N15   N     N_1   0.266725 0.785838 0.277184 -0.224429
C32   C     C_1   0.679654 0.858066 0.638074 0.380052
N16   N     N_1   0.753652 0.802907 0.696984 -0.244275

loop_
_geom_bond_atom_site_label_1
_geom_bond_atom_site_label_2
_geom_bond_distance
_ccdc_geom_bond_type
C6    C26   1.448317 S    
N8    O16   1.290160 A    
O7    Cu2   2.015753 S    
C21   C23   1.437611 A    
Cu1   N1    2.053993 S    
C19   C20   1.393289 A    
C21   C29   1.439301 S    
C17   C19   1.414167 A    
C1    C18   1.482682 S    
C7    N7    1.433515 S    
N7    O13   1.301267 A    
C22   C24   1.440044 A    
O6    C4    1.320363 A    
C9    C10   1.400711 A    
C18   C20   1.413867 A    
C7    C8    1.412686 A    
C5    C25   1.440000 S    
C27   N11   1.156514 T    
N7    O14   1.301396 A    
C6    C8    1.422057 A    
Cu1   Cu2   2.733217 S    
C29   N13   1.157177 T    
C15   C18   1.412417 A    
O5    C3    1.320403 A    
O7    C3    1.306183 A    
C24   C32   1.445279 S    
C8    N8    1.429744 S    
C16   C17   1.416226 A    
O2    C2    1.315065 A    
O3    Cu2   1.989151 S    
O8    C4    1.327790 A    
C25   N5    1.154321 T    
C6    C9    1.389997 A    
O1    C1    1.312217 A    
C22   N2    1.376369 A    
N4    O12   1.301394 A    
N4    O11   1.296285 A    
C23   N1    1.375721 A    
N3    O9    1.301806 A    
N10   O20   1.298808 A    
N8    O15   1.301809 A    
C32   N16   1.158214 T    
N9    O18   1.297846 A    
C11   C13   1.407433 A    
O4    Cu2   1.987877 S    
C28   N12   1.156093 T    
C12   C14   1.414256 A    
C26   N6    1.156616 T    
O4    C2    1.314792 A    
O1    Cu1   1.987751 S    
N10   O19   1.301266 A    
C13   C14   1.398253 A    
C31   N15   1.157701 T    
O6    Cu1   2.015591 S    
C4    C12   1.522582 S    
O5    Cu1   1.998650 S    
C9    C12   1.420049 A    
C10   C11   1.400350 A    
C23   C31   1.444169 S    
N3    O10   1.301793 A    
C24   N1    1.370030 A    
O8    Cu2   1.998771 S    
C20   C28   1.450810 S    
C5    C7    1.396386 A    
O2    Cu1   1.989030 S    
C19   C27   1.451915 S    
C21   N2    1.373210 A    
C22   C30   1.441509 S    
Cu2   N2    2.053896 S    
C14   N4    1.399675 S    
C15   C16   1.404583 A    
C13   N3    1.433746 S    
C30   N14   1.158354 T    
C3    C11   1.478584 S    
C2    C17   1.484193 S    
N9    O17   1.300872 A    
C15   N9    1.436102 S    
C5    C10   1.403269 A    
O3    C1    1.318235 A    
C16   N10   1.440188 S    
