data_mof_unit_39238.cif
_audit_creation_date              2013-03-05T15:44:08-0500
_audit_creation_method            fapswitch 2.2
_symmetry_space_group_name_H-M    P1
_symmetry_Int_Tables_number       1
_space_group_crystal_system       triclinic
_cell_length_a                    19.488749
_cell_length_b                    11.272826
_cell_length_c                    19.665361
_cell_angle_alpha                 89.893217
_cell_angle_beta                  96.41899
_cell_angle_gamma                 89.907498
_cell_volume                      4293.24830462

loop_
_atom_site_label
_atom_site_type_symbol
_atom_site_description
_atom_site_fract_x
_atom_site_fract_y
_atom_site_fract_z
_atom_type_partial_charge
O1    O     O_R   0.783100 0.287550 0.345460 -0.508541
O2    O     O_R   0.216900 0.287550 0.654540 -0.513141
O3    O     O_R   0.283100 0.787550 0.345460 -0.510955
O4    O     O_R   0.716900 0.787550 0.654540 -0.512040
O5    O     O_R   0.760020 0.037400 0.337700 -0.457121
O6    O     O_R   0.239980 0.037400 0.662300 -0.458589
O7    O     O_R   0.260020 0.537400 0.337700 -0.458313
O8    O     O_R   0.739980 0.537400 0.662300 -0.460466
C1    C     C_R   0.709255 0.991576 0.366732 0.548500
C2    C     C_R   0.290726 0.991764 0.633164 0.546780
C3    C     C_R   0.209258 0.491571 0.366732 0.547557
C4    C     C_R   0.790725 0.491761 0.633165 0.546118
O9    O     O_R   0.666600 0.921990 0.332020 -0.462880
O10   O     O_R   0.333400 0.921990 0.667980 -0.467394
O11   O     O_R   0.166600 0.421990 0.332020 -0.467266
O12   O     O_R   0.833400 0.421990 0.667980 -0.469945
O13   O     O_R   0.557260 0.082670 0.312540 -0.467739
O14   O     O_R   0.442740 0.082670 0.687460 -0.471452
O15   O     O_R   0.057260 0.582670 0.312540 -0.467840
O16   O     O_R   0.942740 0.582670 0.687460 -0.477647
C5    C     C_R   0.536065 0.181187 0.338321 0.564180
C6    C     C_R   0.463875 0.181228 0.661641 0.560044
C7    C     C_R   0.036061 0.681187 0.338319 0.572506
C8    C     C_R   0.963871 0.681229 0.661638 0.555786
O17   O     O_R   0.548410 0.285740 0.316480 -0.491391
O18   O     O_R   0.451590 0.285740 0.683520 -0.492170
O19   O     O_R   0.048410 0.785740 0.316480 -0.488888
O20   O     O_R   0.951590 0.785740 0.683520 -0.492658
O21   O     O_R   0.680500 0.375040 0.327000 -0.496837
O22   O     O_R   0.319500 0.375040 0.673000 -0.501611
O23   O     O_R   0.180500 0.875040 0.327000 -0.503012
O24   O     O_R   0.819500 0.875040 0.673000 -0.502052
C9    C     C_R   0.740463 0.364733 0.359657 0.588057
C10   C     C_R   0.259461 0.364962 0.640423 0.574847
C11   C     C_R   0.240461 0.864728 0.359660 0.576282
C12   C     C_R   0.759461 0.864964 0.640424 0.575119
O25   O     O_R   0.780350 0.286720 0.192720 -0.458391
O26   O     O_R   0.219650 0.286720 0.807280 -0.494075
O27   O     O_R   0.280350 0.786720 0.192720 -0.473495
O28   O     O_R   0.719650 0.786720 0.807280 -0.476097
O29   O     O_R   0.757470 0.036630 0.196110 -0.506942
O30   O     O_R   0.242530 0.036630 0.803890 -0.491845
O31   O     O_R   0.257470 0.536630 0.196110 -0.486035
O32   O     O_R   0.742530 0.536630 0.803890 -0.495955
C13   C     C_R   0.722351 0.954776 0.163271 0.557090
C14   C     C_R   0.277618 0.954543 0.836695 0.552005
C15   C     C_R   0.222389 0.454687 0.163318 0.555119
C16   C     C_R   0.777035 0.452899 0.836064 0.566773
O33   O     O_R   0.663840 0.921160 0.179280 -0.484596
O34   O     O_R   0.336160 0.921160 0.820720 -0.481511
O35   O     O_R   0.163840 0.421160 0.179280 -0.503646
O36   O     O_R   0.836160 0.421160 0.820720 -0.450861
O37   O     O_R   0.554710 0.081900 0.170950 -0.466137
O38   O     O_R   0.445290 0.081900 0.829050 -0.460589
O39   O     O_R   0.054710 0.581900 0.170950 -0.488978
O40   O     O_R   0.945290 0.581900 0.829050 -0.459478
C17   C     C_R   0.535694 0.179789 0.139737 0.555155
C18   C     C_R   0.466952 0.179301 0.859195 0.556168
C19   C     C_R   0.038054 0.679834 0.138991 0.579629
C20   C     C_R   0.967926 0.678423 0.858722 0.540982
O41   O     O_R   0.545650 0.284910 0.163740 -0.531850
O42   O     O_R   0.454350 0.284910 0.836260 -0.526151
O43   O     O_R   0.045650 0.784910 0.163740 -0.515953
O44   O     O_R   0.954350 0.784910 0.836260 -0.523177
O45   O     O_R   0.677950 0.374280 0.185410 -0.474896
O46   O     O_R   0.322050 0.374280 0.814590 -0.493734
O47   O     O_R   0.177950 0.874280 0.185410 -0.507286
O48   O     O_R   0.822050 0.874280 0.814590 -0.499413
C21   C     C_R   0.722642 0.311841 0.156043 0.544898
C22   C     C_R   0.263930 0.357253 0.836473 0.556991
C23   C     C_R   0.236099 0.857696 0.163603 0.565067
C24   C     C_R   0.763878 0.857408 0.836414 0.563192
Cr1   Cr    Cr6+3 0.765780 0.160710 0.267420 1.109216
Cr2   Cr    Cr6+3 0.234220 0.160710 0.732580 1.103200
Cr3   Cr    Cr6+3 0.265780 0.660710 0.267420 1.115912
Cr4   Cr    Cr6+3 0.734220 0.660710 0.732580 1.115283
Cr5   Cr    Cr6+3 0.612200 0.009560 0.248850 1.114789
Cr6   Cr    Cr6+3 0.387800 0.009560 0.751150 1.120461
Cr7   Cr    Cr6+3 0.112200 0.509560 0.248850 1.098205
Cr8   Cr    Cr6+3 0.887800 0.509560 0.751150 1.117101
Cr9   Cr    Cr6+3 0.616030 0.323720 0.248510 1.066181
Cr10  Cr    Cr6+3 0.383970 0.323720 0.751490 1.060642
Cr11  Cr    Cr6+3 0.116030 0.823720 0.248510 1.060753
Cr12  Cr    Cr6+3 0.883970 0.823720 0.751490 1.059822
O49   O     O_3   0.664670 0.164660 0.254930 -0.348050
O50   O     O_3   0.335330 0.164660 0.745070 -0.321941
O51   O     O_3   0.164670 0.664660 0.254930 -0.325501
O52   O     O_3   0.835330 0.664660 0.745070 -0.320561
C25   C     C_1   0.485839 0.178142 0.594557 0.120280
C26   C     C_1   0.514023 0.177982 0.405375 0.119196
C27   C     C_1   0.985834 0.678142 0.594553 0.120737
C28   C     C_1   0.014019 0.677982 0.405373 0.119222
C29   C     C_1   0.503898 0.178625 0.464739 0.136604
C30   C     C_1   0.495947 0.178705 0.535188 0.137412
C31   C     C_1   0.003894 0.678624 0.464736 0.135382
C32   C     C_1   0.995942 0.678705 0.535184 0.137610
C33   C     C_3   0.703767 0.503806 0.527789 0.068002
C34   C     C_3   0.296124 0.503623 0.471967 0.067636
C35   C     C_3   0.203767 0.003804 0.527788 0.068286
C36   C     C_3   0.796122 0.003625 0.471968 0.067485
H1    H     H_    0.704509 0.594541 0.538244 0.107211
H2    H     H_    0.295361 0.594278 0.460815 0.107905
H3    H     H_    0.204506 0.094539 0.538245 0.107415
H4    H     H_    0.795364 0.094279 0.460813 0.107759
C37   C     C_3   0.694420 0.487657 0.450027 -0.203263
C38   C     C_3   0.305324 0.488071 0.549807 -0.202356
C39   C     C_3   0.194421 0.987657 0.450026 -0.202721
C40   C     C_3   0.805321 0.988079 0.549809 -0.202580
H5    H     H_    0.643405 0.446955 0.433298 0.202753
H6    H     H_    0.356473 0.447737 0.566860 0.203320
H7    H     H_    0.143405 0.946960 0.433296 0.202780
H8    H     H_    0.856471 0.947752 0.566864 0.203249
H9    H     H_    0.694679 0.574677 0.423728 0.130117
H10   H     H_    0.304663 0.575271 0.575643 0.129149
H11   H     H_    0.194683 0.074677 0.423728 0.129172
H12   H     H_    0.804655 0.075279 0.575643 0.128795
H13   H     H_    0.348444 0.097663 0.527865 0.132121
H14   H     H_    0.651228 0.097754 0.471419 0.131134
H15   H     H_    0.848443 0.597660 0.527872 0.131431
H16   H     H_    0.151230 0.597746 0.471413 0.131349
C41   C     C_3   0.838188 0.502538 0.519917 -0.024346
C42   C     C_3   0.161625 0.502615 0.479768 -0.022443
C43   C     C_3   0.338189 0.002540 0.519913 -0.023600
C44   C     C_3   0.661623 0.002622 0.479772 -0.023566
C45   C     C_3   0.772945 0.324024 0.552144 -0.207556
C46   C     C_3   0.227222 0.323901 0.448174 -0.208541
C47   C     C_3   0.272948 0.824027 0.552145 -0.208102
C48   C     C_3   0.727217 0.823907 0.448175 -0.208009
C49   C     C_3   0.776353 0.457646 0.560205 -0.002195
C50   C     C_3   0.223597 0.457492 0.439712 -0.002911
C51   C     C_3   0.276355 0.957649 0.560204 -0.003080
C52   C     C_3   0.723594 0.957499 0.439713 -0.003838
H17   H     H_    0.819915 0.277889 0.576171 0.187996
H18   H     H_    0.180355 0.277743 0.424275 0.187604
H19   H     H_    0.319920 0.777893 0.576170 0.188051
H20   H     H_    0.680349 0.777750 0.424278 0.188194
H21   H     H_    0.731167 0.288449 0.578469 0.233927
H22   H     H_    0.269084 0.288109 0.422038 0.233973
H23   H     H_    0.231173 0.788454 0.578472 0.234312
H24   H     H_    0.769077 0.788115 0.422036 0.233928
C53   C     C_3   0.753734 0.410163 0.429690 -0.001866
C54   C     C_3   0.246186 0.410505 0.570336 0.003009
C55   C     C_3   0.253734 0.910160 0.429690 0.001545
C56   C     C_3   0.746184 0.910509 0.570337 0.002705
C57   C     C_3   0.823316 0.475827 0.442160 0.021298
C58   C     C_3   0.176473 0.476146 0.557617 0.020123
C59   C     C_3   0.323316 0.975822 0.442158 0.020952
C60   C     C_3   0.676471 0.976149 0.557621 0.020643
C61   C     C_3   0.762503 0.298727 0.476088 -0.268035
C62   C     C_3   0.237670 0.298950 0.524307 -0.265200
C63   C     C_3   0.262504 0.798727 0.476089 -0.266316
C64   C     C_3   0.737668 0.798954 0.524308 -0.265954
H25   H     H_    0.718760 0.238252 0.463880 0.120745
H26   H     H_    0.281456 0.238389 0.536851 0.120959
H27   H     H_    0.218759 0.738253 0.463884 0.121255
H28   H     H_    0.781456 0.738396 0.536849 0.120528
H29   H     H_    0.812881 0.261841 0.465862 0.168699
H30   H     H_    0.187340 0.262275 0.534675 0.169510
H31   H     H_    0.312881 0.761838 0.465861 0.168867
H32   H     H_    0.687339 0.762277 0.534677 0.169494
H33   H     H_    0.864428 0.416204 0.426820 0.226862
H34   H     H_    0.135462 0.416619 0.573137 0.226735
H35   H     H_    0.364428 0.916197 0.426819 0.227500
H36   H     H_    0.635461 0.916618 0.573139 0.227382
C65   C     C_3   0.502716 0.301709 0.959963 -0.274445
C66   C     C_3   0.519090 0.301955 0.036118 -0.274582
C67   C     C_3   0.047293 0.761414 0.952441 -0.285656
C68   C     C_3   0.063366 0.765865 0.030187 -0.277632
H37   H     H_    0.456712 0.360056 0.947511 0.170297
H38   H     H_    0.571404 0.341303 0.048817 0.151509
H39   H     H_    0.031943 0.852041 0.933908 0.169593
H40   H     H_    0.119380 0.748288 0.044424 0.119186
H41   H     H_    0.546503 0.341289 0.935846 0.146986
H42   H     H_    0.481240 0.360301 0.058607 0.160737
H43   H     H_    0.094616 0.736729 0.928780 0.126355
H44   H     H_    0.052670 0.857385 0.047545 0.160408
H45   H     H_    0.379411 0.177038 0.954122 0.083469
H46   H     H_    0.623387 0.135246 0.045271 0.057074
H47   H     H_    0.905540 0.792704 0.952656 0.113985
H48   H     H_    0.093454 0.532266 0.046960 0.099662
H49   H     H_    0.405169 0.180990 0.069249 0.135817
H50   H     H_    0.598092 0.138247 0.929653 0.128982
H51   H     H_    0.930972 0.792092 0.066601 0.148269
H52   H     H_    0.063112 0.522147 0.932500 0.134581
C69   C     C_3   0.426536 0.122427 0.968439 -0.182744
C70   C     C_3   0.570768 0.098008 0.031646 -0.177691
C71   C     C_3   0.924538 0.702599 0.968794 -0.182988
C72   C     C_3   0.036982 0.549288 0.036067 -0.174246
C73   C     C_3   0.554224 0.097420 0.952874 0.026201
C74   C     C_3   0.443079 0.122883 0.046933 0.023134
C75   C     C_3   0.016649 0.544484 0.958130 0.037377
C76   C     C_3   0.941709 0.702157 0.046881 0.024624
C77   C     C_3   0.488205 0.173141 0.933182 0.031878
C78   C     C_3   0.516571 0.173776 0.065457 0.030627
C79   C     C_3   0.989267 0.669789 0.932605 0.034348
C80   C     C_3   0.019180 0.672945 0.064817 0.028470
H53   H     H_    0.572214 0.005942 0.052014 0.220448
H54   H     H_    0.413958 0.031142 0.949853 0.211831
H55   H     H_    0.010940 0.477988 0.062646 0.220917
H56   H     H_    0.881525 0.640304 0.952910 0.184330
C81   C     C_1   0.756599 0.413151 0.900399 0.037055
C82   C     C_1   0.238296 0.428117 0.095608 0.000970
C83   C     C_1   0.261734 0.927978 0.904426 0.003547
C84   C     C_1   0.738159 0.928440 0.095496 0.022477
C85   C     C_1   0.734753 0.361818 0.026313 0.000043
C86   C     C_1   0.251870 0.405672 0.965466 -0.041393
C87   C     C_1   0.247882 0.906144 0.034528 -0.006196
C88   C     C_1   0.751675 0.906189 0.965333 -0.007651
C89   C     C_1   0.744517 0.387238 0.957501 0.006104
C90   C     C_1   0.246224 0.416216 0.036111 -0.040308
C91   C     C_1   0.253653 0.916329 0.963903 -0.021798
C92   C     C_1   0.746036 0.916687 0.035978 -0.008091
C93   C     C_1   0.728716 0.340664 0.085613 0.018902
C94   C     C_1   0.256307 0.390843 0.905452 0.000684
C95   C     C_1   0.243548 0.891451 0.094585 0.031520
C96   C     C_1   0.756149 0.891256 0.905333 0.025753
Br1   Br    Br    0.925590 0.421235 0.552769 -0.473905
Br2   Br    Br    0.074427 0.421086 0.447174 -0.472367
Br3   Br    Br    0.425592 0.921241 0.552767 -0.471037
Br4   Br    Br    0.574425 0.921093 0.447176 -0.470306
Br5   Br    Br    0.547764 0.933878 0.919541 -0.460181
Br6   Br    Br    0.431121 0.963903 0.083936 -0.469207
Br7   Br    Br    0.952593 0.411607 0.939811 -0.464168
Br8   Br    Br    0.881298 0.593187 0.089754 -0.461367
N1    N     N_R   0.644162 0.455483 0.558986 0.102350
O53   O     O_R   0.608540 0.525311 0.594402 -0.270257
O54   O     O_R   0.617726 0.353272 0.540011 -0.354787
N2    N     N_R   0.355816 0.454535 0.441168 0.102239
O55   O     O_R   0.391502 0.523697 0.405412 -0.269444
O56   O     O_R   0.382227 0.352339 0.460770 -0.356686
N3    N     N_R   0.144163 0.955474 0.558983 0.102392
O57   O     O_R   0.108538 0.025297 0.594398 -0.271504
O58   O     O_R   0.117729 0.853263 0.540003 -0.354670
N4    N     N_R   0.855813 0.954525 0.441171 0.102939
O59   O     O_R   0.891499 0.023676 0.405409 -0.269279
O60   O     O_R   0.882222 0.852332 0.460780 -0.356914
Br9   Br    Br    0.333420 0.106698 0.380187 -0.519721
Br10  Br    Br    0.666037 0.107123 0.619160 -0.526755
Br11  Br    Br    0.833425 0.606714 0.380197 -0.493862
Br12  Br    Br    0.166039 0.607130 0.619147 -0.533374

loop_
_geom_bond_atom_site_label_1
_geom_bond_atom_site_label_2
_geom_bond_distance
_ccdc_geom_bond_type
O1    Cr1   2.099418 S    
C18   O42   1.285831 A    
C33   N1    1.477387 S    
O4    C12   1.256793 A    
O47   Cr11  1.911878 S    
C29   C30   1.411156 S    
O39   C19   1.292208 A    
O20   Cr12  2.025041 S    
C54   C58   1.541441 S    
Cr11  O51   2.023975 S    
C31   C32   1.411153 S    
C23   C95   1.431899 S    
C67   C79   1.550631 S    
C36   H4    1.044543 S    
C56   C60   1.541440 S    
H51   C76   1.113971 S    
C64   H32   1.104667 S    
O23   Cr11  1.966692 S    
C69   C74   1.541259 S    
O46   C22   1.270576 A    
C11   C55   1.466019 S    
O7    C3    1.303231 A    
C44   C60   1.554203 S    
O39   Cr7   1.968691 S    
C65   C66   1.495930 S    
C17   C78   1.468313 S    
N4    O60   1.301064 A    
C38   H10   1.108084 S    
C72   C75   1.540651 S    
C60   Br10  1.935587 S    
C76   C80   1.546369 S    
C37   H9    1.108364 S    
C47   H19   1.110188 S    
O25   C21   1.296955 A    
C74   Br6   1.957044 S    
C43   C59   1.554270 S    
C67   H39   1.113243 S    
C73   Br5   1.957322 S    
O47   C23   1.269416 A    
H47   C71   1.113926 S    
C46   C50   1.515477 S    
C65   H41   1.114968 S    
O21   C9    1.273977 A    
O8    Cr4   1.973915 S    
H45   C69   1.114196 S    
C44   Br4   1.976648 S    
C44   C52   1.596927 S    
O30   C14   1.279512 A    
C25   C30   1.205544 T    
O32   Cr4   1.972412 S    
C61   H25   1.098117 S    
C2    C51   1.482404 S    
O44   Cr12  2.082263 S    
C72   C80   1.558323 S    
C1    O9    1.284361 A    
H48   C72   1.113740 S    
C47   C63   1.514417 S    
C27   C32   1.205541 T    
C3    O11   1.284350 A    
C48   C64   1.514008 S    
O11   Cr7   2.091997 S    
O16   C8    1.306901 A    
O33   Cr5   2.046301 S    
C48   C52   1.515478 S    
C70   H53   1.110946 S    
C38   C54   1.536822 S    
H50   C73   1.113124 S    
C7    O19   1.285928 A    
C69   H54   1.111212 S    
C33   C49   1.572590 S    
O19   Cr11  2.024890 S    
C62   H30   1.104667 S    
Cr4   O52   1.958909 S    
C34   N2    1.477526 S    
O2    Cr2   2.094773 S    
C73   C77   1.554938 S    
C53   C57   1.541610 S    
C33   C37   1.530913 S    
O2    C10   1.256795 A    
C55   C63   1.549164 S    
O42   Cr10  2.082263 S    
C36   C40   1.530903 S    
C85   C93   1.208444 T    
C88   C96   1.204917 T    
O28   C24   1.264780 A    
Cr7   O51   2.023888 S    
C87   C91   1.410371 S    
H49   C74   1.113335 S    
C83   C91   1.204488 T    
C85   C89   1.416263 S    
C47   H23   1.089148 S    
C82   C90   1.204897 T    
O34   Cr6   2.045401 S    
C81   C89   1.208253 T    
N2    O55   1.301925 A    
H16   C42   1.099679 S    
Cr9   O49   2.023975 S    
O6    Cr2   1.973915 S    
C75   Br7   1.959439 S    
O35   Cr7   2.046301 S    
C5    C26   1.432193 S    
C59   Br9   1.936098 S    
C65   H37   1.115706 S    
O24   Cr12  1.963803 S    
O9    Cr5   2.091997 S    
O30   Cr2   1.972412 S    
C66   H42   1.115697 S    
C4    C49   1.482392 S    
O22   C10   1.274946 A    
O26   C22   1.264764 A    
O1    C9    1.255347 A    
O48   Cr12  1.912096 S    
C10   C54   1.465410 S    
C4    O12   1.283599 A    
C21   C93   1.439800 S    
C76   Br8   1.956685 S    
C64   H28   1.097979 S    
C35   H3    1.043481 S    
C2    O10   1.283611 A    
C41   C49   1.596875 S    
C67   C68   1.526893 S    
O16   Cr8   1.921781 S    
C42   C58   1.554184 S    
C15   O35   1.274516 A    
C72   H55   1.111688 S    
C9    C53   1.466058 S    
C34   H2    1.044536 S    
C75   C79   1.570685 S    
C86   C94   1.204905 T    
C16   C81   1.439149 S    
C28   C31   1.205546 T    
O13   C5    1.307091 A    
C40   H8    1.111785 S    
C15   C82   1.432586 S    
C8    O20   1.286260 A    
O48   C24   1.270763 A    
O12   Cr8   2.096485 S    
C60   H36   1.112542 S    
C36   N4    1.477526 S    
O22   Cr10  1.963803 S    
C57   H33   1.112542 S    
O15   C7    1.307092 A    
O5    C1    1.303242 A    
C45   C49   1.515688 S    
O46   Cr10  1.912096 S    
C58   H34   1.112542 S    
O3    C11   1.255345 A    
C86   C90   1.411035 S    
O45   Cr9   1.911878 S    
C13   O33   1.274458 A    
O40   Cr8   1.972550 S    
O8    C4    1.302742 A    
Cr1   O49   1.958743 S    
C84   C92   1.204879 T    
C87   C95   1.204596 T    
N1    O53   1.301917 A    
H52   C75   1.113174 S    
N3    O58   1.301083 A    
H14   C44   1.099677 S    
O29   C13   1.281542 A    
Cr2   O50   1.958909 S    
O15   Cr7   1.922298 S    
C39   H7    1.111819 S    
C39   H11   1.108360 S    
C71   C76   1.534660 S    
H15   C41   1.099351 S    
C45   C61   1.514423 S    
Cr3   O51   1.958743 S    
O14   Cr6   1.921781 S    
C24   C96   1.432683 S    
C58   Br12  1.935554 S    
O21   Cr9   1.966692 S    
C66   H38   1.115121 S    
O27   Cr3   2.084028 S    
C6    O18   1.286263 A    
N2    O56   1.301064 A    
O38   C18   1.297372 A    
C68   H40   1.113594 S    
C41   C57   1.554262 S    
C19   O43   1.283914 A    
N4    O59   1.301924 A    
C39   C55   1.536452 S    
C34   C50   1.572829 S    
C3    C50   1.480985 S    
O24   C12   1.274946 A    
C55   C59   1.541597 S    
C40   C56   1.536822 S    
O3    Cr3   2.099418 S    
C26   C29   1.205549 T    
C67   H43   1.113593 S    
C38   H6    1.111784 S    
C1    C52   1.481004 S    
C45   H17   1.110188 S    
C68   H44   1.113953 S    
C5    O17   1.285927 A    
C46   H22   1.089042 S    
O37   C17   1.295029 A    
C35   N3    1.477388 S    
C42   Br2   1.976643 S    
C43   C51   1.596885 S    
O14   C6    1.306897 A    
C41   Br1   1.976238 S    
C70   C78   1.563173 S    
O5    Cr1   1.970540 S    
C66   C78   1.557767 S    
C69   C77   1.561763 S    
O31   C15   1.281507 A    
O17   Cr9   2.024890 S    
C65   C77   1.558447 S    
O6    C2    1.302755 A    
O7    Cr3   1.970540 S    
C43   Br3   1.976238 S    
C36   C52   1.572833 S    
C17   O41   1.283379 A    
C68   C80   1.560106 S    
C19   C80   1.466151 S    
C35   C39   1.530908 S    
C14   O34   1.273260 A    
C18   C77   1.469050 S    
O25   Cr1   2.084028 S    
C63   H27   1.098117 S    
C34   C38   1.530896 S    
C35   C51   1.572599 S    
C71   H56   1.112458 S    
C20   O44   1.294985 A    
C45   H21   1.089157 S    
C40   H12   1.108081 S    
C70   C73   1.546603 S    
C48   H20   1.110119 S    
H13   C43   1.099347 S    
C14   C83   1.431993 S    
Cr8   O52   2.020648 S    
O32   C16   1.282206 A    
Cr10  O50   2.027101 S    
C37   C53   1.536458 S    
O13   Cr5   1.922298 S    
C46   C62   1.514006 S    
C54   C62   1.549068 S    
C53   C61   1.549173 S    
Cr12  O52   2.027101 S    
C37   H5    1.111818 S    
Cr5   O49   2.023888 S    
C13   C84   1.432628 S    
O45   C21   1.303684 A    
C57   Br11  1.936116 S    
C88   C92   1.410979 S    
O31   Cr3   1.976484 S    
N1    O54   1.301081 A    
C6    C25   1.432203 S    
O26   Cr2   2.087133 S    
C48   H24   1.089037 S    
C22   C94   1.432602 S    
O23   C11   1.273981 A    
O10   Cr6   2.096485 S    
C12   C56   1.465409 S    
C47   C51   1.515688 S    
O4    Cr4   2.094773 S    
C74   C78   1.549198 S    
O29   Cr1   1.976484 S    
C8    C27   1.432203 S    
H46   C70   1.113551 S    
O28   Cr4   2.087133 S    
C16   O36   1.274213 A    
O40   C20   1.290496 A    
C46   H18   1.110119 S    
O18   Cr10  2.025041 S    
Cr6   O50   2.020648 S    
C62   H26   1.097975 S    
O43   Cr11  2.084497 S    
N3    O57   1.301918 A    
O41   Cr9   2.084497 S    
O27   C23   1.263881 A    
C7    C28   1.432188 S    
C71   C79   1.560400 S    
C59   H35   1.112544 S    
O37   Cr5   1.968691 S    
O36   Cr8   2.045401 S    
C61   H29   1.104731 S    
C42   C50   1.596913 S    
C33   H1    1.043482 S    
C56   C64   1.549072 S    
C20   C79   1.468919 S    
C63   H31   1.104732 S    
O38   Cr6   1.972550 S    
