data_mof_unit_40342.cif
_audit_creation_date              2012-12-10T17:47:02-0500
_audit_creation_method            fapswitch 2.2
_symmetry_space_group_name_H-M    P1
_symmetry_Int_Tables_number       1
_space_group_crystal_system       triclinic
_cell_length_a                    9.98752
_cell_length_b                    10.613527
_cell_length_c                    13.607506
_cell_angle_alpha                 92.323958
_cell_angle_beta                  82.583981
_cell_angle_gamma                 90.968176
_cell_volume                      1429.09266248

loop_
_atom_site_label
_atom_site_type_symbol
_atom_type_description
_atom_site_fract_x
_atom_site_fract_y
_atom_site_fract_z
_atom_type_partial_charge
C1    C     C_R   0.500682 0.739257 0.501233 0.878579
C2    C     C_1   0.456718 0.504380 0.789534 -0.134860
C3    C     C_R   0.385183 0.876426 0.679594 -0.144306
C4    C     C_R   0.323210 0.945086 0.762098 -0.118028
C5    C     C_R   0.316028 0.075801 0.760113 -0.103946
C6    C     C_R   0.371945 0.138229 0.675964 -0.160410
C7    C     C_R   0.434405 0.069686 0.591496 0.088739
C8    C     C_R   0.439178 0.937948 0.592822 0.115594
C9    C     C_R   0.501905 0.872045 0.507643 -0.059825
C10   C     C_R   0.565270 0.932862 0.425460 -0.189043
C11   C     C_R   0.563040 0.061662 0.424897 -0.196594
C12   C     C_R   0.475336 0.500609 0.685487 0.878244
C13   C     C_R   0.496318 0.128717 0.506112 -0.083396
C14   C     C_R   0.842519 0.614289 0.667673 0.309593
C15   C     C_R   0.904089 0.632188 0.753910 -0.116424
C16   C     C_R   0.042877 0.643479 0.746062 -0.235452
C17   C     C_R   0.118555 0.619198 0.655090 -0.138884
C18   C     C_R   0.060960 0.558425 0.577346 0.133894
C19   C     C_R   0.916614 0.558106 0.579599 0.101811
C20   C     C_R   0.940847 0.444984 0.424841 -0.100182
C21   C     C_R   0.083278 0.444398 0.425178 -0.089789
C22   C     C_R   0.498892 0.260893 0.500961 0.854035
C23   C     C_R   0.524642 0.498784 0.314477 0.888966
C24   C     C_1   0.543599 0.491758 0.210350 -0.182576
C25   C     C_2   0.558997 0.478108 0.018155 0.316379
C26   C     C_2   0.447705 0.510099 0.981292 -0.252605
C27   C     C_1   0.447222 0.507659 0.877490 0.081927
C28   C     C_1   0.555313 0.484779 0.122307 -0.022518
H1    H     H_    0.357347 0.540356 0.029152 0.139764
H2    H     H_    0.846332 0.666441 0.822456 0.200161
H3    H     H_    0.090721 0.681354 0.808100 0.164755
H4    H     H_    0.220435 0.651629 0.645874 0.198746
H5    H     H_    0.145994 0.398077 0.363999 0.149884
H6    H     H_    0.614385 0.880217 0.361187 0.148981
H7    H     H_    0.393849 0.775797 0.685287 0.126753
H8    H     H_    0.282006 0.896850 0.828059 0.137094
H9    H     H_    0.268685 0.129151 0.824414 0.149815
H10   H     H_    0.366901 0.239938 0.678215 0.145452
H11   H     H_    0.611646 0.109346 0.360532 0.149667
H12   H     H_    0.897799 0.399367 0.363448 0.148140
N1    N     N_R   0.857120 0.501200 0.500900 -0.108790
N2    N     N_R   0.142720 0.501280 0.500940 -0.111375
O1    O     O_R   0.385310 0.683220 0.500000 -0.640648
O2    O     O_R   0.614640 0.683250 0.500010 -0.562548
O3    O     O_R   0.368830 0.499960 0.640340 -0.651748
O4    O     O_R   0.598160 0.499980 0.640350 -0.571073
O5    O     O_R   0.385360 0.316750 0.499990 -0.613292
O6    O     O_R   0.614690 0.316780 0.500000 -0.601970
O7    O     O_R   0.401840 0.500020 0.359650 -0.611338
O8    O     O_R   0.631170 0.500040 0.359660 -0.611982
Zn1   Zn    Zn3+2 0.346870 0.499980 0.499990 0.943241
Zn2   Zn    Zn3+2 0.653130 0.500020 0.500010 0.993657
Br1   Br    Br    0.720219 0.750976 0.670085 -0.516677
Br2   Br    Br    0.721763 0.422474 0.938219 -0.513596

loop_
_geom_bond_atom_site_label_1
_geom_bond_atom_site_label_2
_ccdc_geom_bond_type
C8    C9    A    
C7    C13   A    
O8    Zn2   S    
C23   C24   S    
C6    H10   S    
C6    C7    A    
C5    H9    S    
C9    C10   A    
N1    Zn2   S    
C22   O6    A    
C3    H7    S    
N2    Zn1   S    
C2    C12   S    
O2    Zn2   S    
C4    H8    S    
C17   C18   A    
C19   N1    A    
C7    C8    A    
C10   H6    S    
C20   C21   A    
C16   H3    S    
C11   H11   S    
C11   C13   A    
O1    Zn1   S    
C26   C27   S    
C2    C27   T    
C15   H2    S    
C4    C5    A    
C13   C22   S    
C20   N1    A    
C18   N2    A    
C3    C8    A    
C5    C6    A    
C20   H12   S    
C22   O5    A    
C23   O7    A    
C21   H5    S    
C10   C11   A    
O3    Zn1   S    
C25   C28   S    
C15   C16   A    
O4    Zn2   S    
O6    Zn2   S    
C14   Br1   S    
C1    C9    S    
C25   Br2   S    
C26   H1    S    
C12   O4    A    
C18   C19   A    
C17   H4    S    
C14   C15   A    
C16   C17   A    
C23   O8    A    
O5    Zn1   S    
C21   N2    A    
C1    O2    A    
C25   C26   D    
C14   C19   A    
C1    O1    A    
C3    C4    A    
C24   C28   T    
C12   O3    A    
O7    Zn1   S    
