data_mof_unit_17773.cif
_audit_creation_date              2013-03-05T16:47:47-0500
_audit_creation_method            fapswitch 2.2
_symmetry_space_group_name_H-M    P1
_symmetry_Int_Tables_number       1
_space_group_crystal_system       triclinic
_cell_length_a                    15.732518
_cell_length_b                    8.976806
_cell_length_c                    8.140078
_cell_angle_alpha                 90.439481
_cell_angle_beta                  92.973398
_cell_angle_gamma                 88.991067
_cell_volume                      1147.85303977

loop_
_atom_site_label
_atom_site_type_symbol
_atom_site_description
_atom_site_fract_x
_atom_site_fract_y
_atom_site_fract_z
_atom_type_partial_charge
O1    O     O_R   0.500000 0.285340 0.636850 -0.614198
O2    O     O_R   0.500000 0.714660 0.363150 -0.614230
O3    O     O_R   0.500000 0.285340 0.363150 -0.612929
O4    O     O_R   0.500000 0.714660 0.636850 -0.612996
C1    C     C_1   0.500034 0.065117 0.499439 -0.164877
C2    C     C_1   0.499966 0.934883 0.500561 -0.164917
C3    C     C_R   0.500098 0.218028 0.499612 0.928965
C4    C     C_R   0.499902 0.781972 0.500388 0.928841
O5    O     O_R   0.376770 0.500000 0.636850 -0.597106
O6    O     O_R   0.623230 0.500000 0.363150 -0.597269
O7    O     O_R   0.376780 0.500000 0.363100 -0.608779
O8    O     O_R   0.623220 0.500000 0.636900 -0.608812
C5    C     C_R   0.337411 0.503454 0.495596 0.881215
C6    C     C_R   0.662589 0.496543 0.504405 0.881281
Zn1   Zn    Zn3+2 0.499990 0.500000 0.682780 1.034413
Zn2   Zn    Zn3+2 0.500010 0.500000 0.317220 1.034404
N1    N     N_1   0.500010 0.500000 0.073640 -0.014106
N2    N     N_1   0.499990 0.500000 0.926360 -0.014108
C7    C     C_3   0.988205 0.392850 0.611873 0.364919
C8    C     C_3   0.011788 0.606718 0.388241 0.364157
C9    C     C_3   0.033594 0.370420 0.449483 0.335254
C10   C     C_3   0.966421 0.629151 0.550643 0.334711
C11   C     C_1   0.248436 0.513660 0.484270 -0.111696
C12   C     C_1   0.751561 0.486211 0.515741 -0.111941
C13   C     C_3   0.036186 0.538417 0.646263 0.083288
C14   C     C_3   0.963818 0.461137 0.353861 0.083047
C15   C     C_3   0.082406 0.516314 0.484643 -0.215317
C16   C     C_3   0.917595 0.483264 0.515474 -0.215068
C17   C     C_1   0.173065 0.519737 0.478154 0.217916
C18   C     C_1   0.826930 0.479995 0.521900 0.218026
O9    O     O_3   0.077918 0.242003 0.397242 -0.590169
C19   C     C_3   0.020319 0.131625 0.343301 -0.229079
H1    H     H_    0.005169 0.142314 0.209537 0.211081
H2    H     H_    0.960453 0.132513 0.410475 0.155674
H3    H     H_    0.052235 0.021787 0.361836 0.195742
O10   O     O_3   0.922143 0.757566 0.603026 -0.589759
C20   C     C_3   0.979779 0.868277 0.655878 -0.229093
H4    H     H_    0.039522 0.867151 0.588309 0.155367
H5    H     H_    0.995182 0.858284 0.789627 0.210834
H6    H     H_    0.947772 0.977980 0.636884 0.195880
O11   O     O_3   0.969468 0.282694 0.726581 -0.560910
C21   C     C_3   0.045799 0.215276 0.789892 -0.149868
H7    H     H_    0.089411 0.297507 0.849982 0.215647
H8    H     H_    0.078753 0.152495 0.693245 0.154890
H9    H     H_    0.030043 0.134163 0.885314 0.169817
O12   O     O_3   0.030469 0.716881 0.273501 -0.560915
C22   C     C_3   0.954101 0.784248 0.210276 -0.149501
H10   H     H_    0.921183 0.847058 0.306944 0.154669
H11   H     H_    0.910472 0.701972 0.150308 0.215015
H12   H     H_    0.969800 0.865340 0.114786 0.170314
N3    N     N_R   0.923057 0.415195 0.196993 0.225837
O13   O     O_R   0.969292 0.385126 0.073273 -0.305186
O14   O     O_R   0.841279 0.396445 0.181519 -0.399661
N4    N     N_R   0.076970 0.584244 0.803153 0.226388
O15   O     O_R   0.030695 0.616074 0.926347 -0.305684
O16   O     O_R   0.159021 0.599449 0.819706 -0.399418

loop_
_geom_bond_atom_site_label_1
_geom_bond_atom_site_label_2
_geom_bond_distance
_ccdc_geom_bond_type
Zn1   N2    1.982760 S    
C2    C4    1.372663 S    
C9    C14   1.537424 S    
C21   H8    1.109292 S    
C20   H4    1.113228 S    
O1    Zn1   1.960079 S    
C8    C15   1.547991 S    
C13   C15   1.545671 S    
C10   O10   1.410999 S    
O11   C21   1.410312 S    
N4    O15   1.296649 A    
C14   C16   1.545661 S    
O9    C19   1.406914 S    
O8    Zn1   1.993296 S    
C22   H12   1.109065 S    
O4    C4    1.268505 A    
C19   H1    1.107009 S    
O4    Zn1   1.965714 S    
C16   C18   1.430883 S    
N1    N2    1.198854 T    
C9    C15   1.547166 S    
C7    O11   1.410513 S    
C20   H5    1.107004 S    
O6    Zn2   1.955151 S    
C14   N3    1.458804 S    
C7    C16   1.547934 S    
C9    O9    1.411004 S    
C8    C14   1.537192 S    
C11   C17   1.184553 T    
O10   C20   1.407022 S    
C7    C9    1.544859 S    
O8    C6    1.271178 A    
C20   H6    1.106367 S    
O3    C3    1.268505 A    
O5    Zn1   1.955148 S    
C1    C2    1.169205 T    
C7    C13   1.537183 S    
N4    O16   1.300393 A    
C12   C18   1.184558 T    
C15   C17   1.430875 S    
C21   H7    1.110128 S    
N3    O13   1.296581 A    
C19   H3    1.106374 S    
C8    O12   1.410514 S    
O7    C5    1.271185 A    
O2    Zn2   1.960078 S    
C13   N4    1.458809 S    
C5    C11   1.399494 S    
C22   H11   1.110171 S    
O6    C6    1.277689 A    
C6    C12   1.399498 S    
C1    C3    1.372663 S    
O5    C5    1.277685 A    
O12   C22   1.410365 S    
C10   C16   1.547234 S    
O1    C3    1.266049 A    
C21   H9    1.109041 S    
O7    Zn2   1.993293 S    
O2    C4    1.266049 A    
O3    Zn2   1.965715 S    
C22   H10   1.109277 S    
C8    C10   1.544773 S    
Zn2   N1    1.982760 S    
N3    O14   1.299976 A    
C10   C13   1.537382 S    
C19   H2    1.113193 S    
