data_mof_unit_42919.cif
_audit_creation_date              2012-12-10T17:23:14-0500
_audit_creation_method            fapswitch 2.2
_symmetry_space_group_name_H-M    P1
_symmetry_Int_Tables_number       1
_space_group_crystal_system       triclinic
_cell_length_a                    15.864907
_cell_length_b                    10.788163
_cell_length_c                    9.61485
_cell_angle_alpha                 90.031246
_cell_angle_beta                  90.110984
_cell_angle_gamma                 92.583165
_cell_volume                      1643.93677721

loop_
_atom_site_label
_atom_site_type_symbol
_atom_type_description
_atom_site_fract_x
_atom_site_fract_y
_atom_site_fract_z
_atom_type_partial_charge
C1    C     C_R   0.497950 0.262671 0.499982 0.821102
C2    C     C_R   0.298361 0.052504 0.706900 -0.139374
C3    C     C_R   0.298199 0.923637 0.707915 -0.135250
C4    C     C_R   0.339993 0.499665 0.499859 0.796261
C5    C     C_R   0.361964 0.862459 0.640464 -0.157328
C6    C     C_R   0.428258 0.929993 0.572191 0.097968
C7    C     C_R   0.428760 0.061071 0.571579 0.046175
C8    C     C_R   0.494098 0.128295 0.499953 -0.135119
C9    C     C_R   0.555756 0.066434 0.425184 0.233938
C10   C     C_R   0.553569 0.937929 0.424649 -0.265787
C11   C     C_R   0.492422 0.870226 0.499965 -0.119838
C12   C     C_3   0.083080 0.500503 0.498888 0.166194
C13   C     C_R   0.613141 0.663887 0.143979 -0.221926
C14   C     C_R   0.669629 0.743523 0.072499 0.009545
C15   C     C_R   0.668458 0.743443 0.928336 -0.173655
C16   C     C_R   0.497449 0.736932 0.500033 0.775328
C17   C     C_R   0.612461 0.664245 0.856590 -0.181201
C18   C     C_R   0.555288 0.580811 0.925468 0.216204
C19   C     C_R   0.555416 0.580734 0.074796 0.217996
C20   C     C_R   0.447431 0.423047 0.073616 -0.047147
C21   C     C_R   0.447472 0.423046 0.925838 -0.051040
C22   C     C_R   0.659981 0.500949 0.500148 0.794110
C23   C     C_3   0.975093 0.595803 0.576553 -0.188004
C24   C     C_3   0.969553 0.394251 0.552213 0.034708
C25   C     C_3   0.025688 0.404604 0.421195 -0.295388
C26   C     C_1   0.250290 0.500105 0.499555 -0.186650
C27   C     C_1   0.749628 0.501490 0.500421 -0.136731
C28   C     C_3   0.028380 0.488391 0.630550 -0.198304
C29   C     C_2   0.730043 0.826015 0.150646 0.397573
C30   C     C_2   0.937827 0.273445 0.613453 0.355616
C31   C     C_2   0.944287 0.526231 0.221925 0.361430
C32   C     C_3   0.693393 0.169727 0.436760 -0.549615
C33   C     C_3   0.916856 0.500365 0.499299 0.158930
C34   C     C_3   0.031638 0.608186 0.445067 -0.204407
C35   C     C_3   0.972719 0.512256 0.369497 0.026645
C36   C     C_1   0.174738 0.500438 0.499230 -0.054931
C37   C     C_1   0.825139 0.501349 0.500255 0.063853
C38   C     C_R   0.362377 0.120960 0.638665 -0.170861
Cu1   Cu    Cu3+1 0.499990 0.499990 0.640660 0.936603
Cu2   Cu    Cu3+1 0.500010 0.500010 0.359340 0.956297
H1    H     H_    0.047081 0.326168 0.357448 0.142237
H2    H     H_    0.058291 0.696292 0.400269 0.139941
H3    H     H_    0.953575 0.674144 0.640267 0.152011
H4    H     H_    0.052331 0.478005 0.738307 0.135120
H5    H     H_    0.358066 0.220631 0.637217 0.133706
H6    H     H_    0.248088 0.099673 0.757754 0.129684
H7    H     H_    0.732699 0.821218 0.263321 0.040230
H8    H     H_    0.982469 0.205614 0.645141 0.064996
H9    H     H_    0.990785 0.533308 0.139449 0.063363
H10   H     H_    0.638609 0.090811 0.260861 0.265285
H11   H     H_    0.738611 0.228224 0.374447 0.244317
H12   H     H_    0.247815 0.870738 0.759567 0.136153
H13   H     H_    0.725583 0.086241 0.473182 0.225030
H14   H     H_    0.673905 0.224471 0.528154 0.230955
H15   H     H_    0.357613 0.762228 0.640383 0.149624
H16   H     H_    0.601820 0.890468 0.368813 0.125206
H17   H     H_    0.404317 0.359870 0.128450 0.135009
H18   H     H_    0.617014 0.671013 0.253671 0.183546
H19   H     H_    0.711333 0.804722 0.870109 0.187686
H20   H     H_    0.617237 0.672447 0.746980 0.202531
H21   H     H_    0.404392 0.359842 0.870602 0.132901
N1    N     N_R   0.500800 0.501210 0.147910 -0.191470
N2    N     N_R   0.500830 0.501290 0.852040 -0.194425
N3    N     N_2   0.621096 0.133377 0.351828 -0.428473
O1    O     O_R   0.499990 0.319640 0.618810 -0.583296
O2    O     O_2   0.862374 0.250675 0.628288 -0.545656
O3    O     O_2   0.869439 0.529815 0.193589 -0.530740
O4    O     O_R   0.500000 0.319660 0.381240 -0.550297
O5    O     O_R   0.379070 0.499980 0.618770 -0.589968
O6    O     O_R   0.379080 0.500000 0.381190 -0.573721
O7    O     O_R   0.500000 0.680340 0.618760 -0.603228
O8    O     O_R   0.500010 0.680360 0.381190 -0.593887
O9    O     O_R   0.620920 0.500000 0.618810 -0.584582
O10   O     O_R   0.620930 0.500020 0.381230 -0.569807
O11   O     O_2   0.777732 0.899971 0.090481 -0.533901

loop_
_geom_bond_atom_site_label_1
_geom_bond_atom_site_label_2
_ccdc_geom_bond_type
C9    N3    S    
H10   N3    S    
C34   H2    S    
C4    O6    A    
C23   H3    S    
C7    C8    A    
C2    H6    S    
C31   O3    D    
Cu2   O6    S    
C29   H7    S    
C30   H8    S    
C18   C19   A    
C5    C6    A    
C18   N2    A    
C19   N1    A    
C1    C8    S    
C1    O4    A    
Cu2   N1    S    
C34   C35   S    
C38   H5    S    
C8    C9    A    
C23   C33   S    
C16   O8    A    
C1    O1    A    
C12   C36   S    
C10   H16   S    
C9    C10   A    
C21   H21   S    
C13   C14   A    
Cu1   O1    S    
C16   O7    A    
C31   H9    S    
C32   H14   S    
C4    O5    A    
C13   C19   A    
C24   C25   S    
C32   N3    S    
C25   H1    S    
C6    C11   A    
C13   H18   S    
C28   H4    S    
C33   C37   S    
C32   H11   S    
C11   C16   S    
C2    C38   A    
C23   C34   S    
C17   C18   A    
Cu1   O5    S    
C23   C28   S    
C30   O2    D    
C25   C35   S    
C26   C36   T    
C12   C28   S    
C22   C27   S    
C31   C35   S    
C22   O10   A    
C14   C29   S    
C12   C34   S    
C32   H13   S    
Cu1   Cu2   S    
C15   C17   A    
Cu2   O8    S    
C15   H19   S    
C5    H15   S    
C24   C28   S    
C3    C5    A    
C4    C26   S    
C3    H12   S    
C6    C7    A    
C29   O11   D    
Cu1   N2    S    
C24   C33   S    
C12   C25   S    
C2    C3    A    
C27   C37   T    
C33   C35   S    
C7    C38   A    
Cu2   O10   S    
Cu1   O9    S    
C20   N1    A    
C24   C30   S    
C21   N2    A    
C10   C11   A    
C17   H20   S    
C20   C21   A    
Cu2   O4    S    
Cu1   O7    S    
C14   C15   A    
C22   O9    A    
C20   H17   S    
