data_mof_unit_13289.cif
_audit_creation_date              2012-12-10T18:58:45-0500
_audit_creation_method            fapswitch 2.2
_symmetry_space_group_name_H-M    P1
_symmetry_Int_Tables_number       1
_space_group_crystal_system       triclinic
_cell_length_a                    12.96181
_cell_length_b                    10.867246
_cell_length_c                    9.557179
_cell_angle_alpha                 90.226099
_cell_angle_beta                  96.71822
_cell_angle_gamma                 91.494338
_cell_volume                      1336.48469121

loop_
_atom_site_label
_atom_site_type_symbol
_atom_type_description
_atom_site_fract_x
_atom_site_fract_y
_atom_site_fract_z
_atom_type_partial_charge
C1    C     C_R   0.496944 0.262455 0.498995 0.783667
C2    C     C_R   0.026865 0.479846 0.563369 0.142186
C3    C     C_R   0.970473 0.448060 0.431574 0.166972
C4    C     C_R   0.861941 0.424831 0.423476 0.092670
C5    C     C_R   0.868554 0.484263 0.670465 -0.236992
C6    C     C_R   0.975852 0.491413 0.683010 -0.231766
C7    C     C_R   0.449676 0.062820 0.602985 0.053649
C8    C     C_R   0.486877 0.129353 0.493761 -0.105587
C9    C     C_R   0.511893 0.064913 0.375020 -0.206022
C10   C     C_R   0.513988 0.936763 0.376092 -0.214286
C11   C     C_R   0.492418 0.871258 0.496372 -0.086048
C12   C     C_R   0.300267 0.498233 0.473031 0.804081
C13   C     C_R   0.455107 0.936022 0.605535 0.088736
C14   C     C_3   0.487953 0.935640 0.760347 -0.494983
C15   C     C_3   0.476684 0.074477 0.758838 -0.034337
C16   C     C_R   0.583528 0.545549 0.088162 0.217364
C17   C     C_R   0.419717 0.448745 0.061360 -0.080327
C18   C     C_R   0.419067 0.450275 0.912837 -0.076570
C19   C     C_R   0.585615 0.544330 0.940566 0.215742
C20   C     C_3   0.629193 0.675526 0.949997 -0.103235
C21   C     C_3   0.623475 0.673284 0.107430 -0.541529
C22   C     C_R   0.499614 0.737867 0.499908 0.799320
C23   C     C_R   0.698301 0.485114 0.525864 0.791001
C24   C     C_R   0.810489 0.462306 0.539731 -0.098091
C25   C     C_R   0.186946 0.487889 0.456323 -0.048194
C26   C     C_R   0.024279 0.442035 0.311957 -0.222733
C27   C     C_R   0.131446 0.461808 0.324407 -0.207489
C28   C     C_R   0.134100 0.498042 0.574981 -0.259351
Cu1   Cu    Cu3+1 0.499990 0.499980 0.640670 0.933125
Cu2   Cu    Cu3+1 0.500010 0.500020 0.359330 0.927846
H1    H     H_    0.570481 0.911822 0.784389 0.179427
H2    H     H_    0.550972 0.126900 0.788957 0.172129
H3    H     H_    0.351864 0.413380 0.847268 0.133988
H4    H     H_    0.574097 0.740161 0.896118 0.186373
H5    H     H_    0.563948 0.735688 0.138943 0.198459
H6    H     H_    0.830703 0.497969 0.763072 0.172552
H7    H     H_    0.170977 0.454428 0.231066 0.148711
H8    H     H_    0.535997 0.113206 0.284900 0.166422
H9    H     H_    0.432083 0.883680 0.819253 0.199787
N1    N     N_R   0.500660 0.500930 0.148010 -0.181101
N2    N     N_R   0.500660 0.500890 0.852110 -0.193718
O1    O     O_R   0.500000 0.319640 0.618810 -0.588502
O2    O     O_R   0.500010 0.319680 0.381230 -0.590402
O3    O     O_R   0.348990 0.499960 0.599490 -0.593393
O4    O     O_R   0.349000 0.500000 0.361910 -0.587290
O5    O     O_R   0.499990 0.680320 0.618770 -0.579809
O6    O     O_R   0.500000 0.680360 0.381190 -0.577413
O7    O     O_R   0.651000 0.500000 0.638090 -0.577399
O8    O     O_R   0.651010 0.500040 0.400510 -0.592496
C29   C     C_3   0.805225 0.350187 0.300107 -0.404078
C30   C     C_3   0.847767 0.220466 0.292607 -0.862510
H10   H     H_    0.929665 0.221996 0.269944 0.257809
H11   H     H_    0.842448 0.172017 0.393786 0.257580
H12   H     H_    0.800765 0.167242 0.207162 0.238145
H13   H     H_    0.722020 0.333770 0.310087 0.236207
H14   H     H_    0.809593 0.399310 0.199235 0.186689
C31   C     C_3   0.384914 0.118203 0.832453 -0.344634
C32   C     C_3   0.413368 0.124389 0.991892 -0.852487
H15   H     H_    0.431833 0.031425 0.034081 0.254545
H16   H     H_    0.481698 0.187373 0.019217 0.250974
H17   H     H_    0.346886 0.159496 0.042264 0.238018
H18   H     H_    0.363358 0.210779 0.793070 0.204777
H19   H     H_    0.315537 0.056113 0.807298 0.205261
H20   H     H_    0.354000 0.408390 0.106203 0.135451
C33   C     C_3   0.743087 0.694024 0.919851 -0.348565
C34   C     C_3   0.753479 0.754151 0.777826 -0.828620
H21   H     H_    0.697712 0.713880 0.692956 0.279455
H22   H     H_    0.739903 0.854263 0.784249 0.228644
H23   H     H_    0.833528 0.742745 0.750197 0.239572
H24   H     H_    0.785643 0.756565 0.000564 0.204667
H25   H     H_    0.783268 0.605489 0.930410 0.185200
H26   H     H_    0.698802 0.677450 0.176467 0.192347
H27   H     H_    0.984477 0.423308 0.207957 0.144142
H28   H     H_    0.018598 0.511561 0.785278 0.138434
H29   H     H_    0.176421 0.519797 0.677184 0.146960
H30   H     H_    0.538274 0.890351 0.286015 0.150875

loop_
_geom_bond_atom_site_label_1
_geom_bond_atom_site_label_2
_ccdc_geom_bond_type
C34   H22   S    
C16   C21   S    
Cu1   O1    S    
C1    C8    S    
Cu2   O4    S    
C19   C20   S    
C14   H1    S    
C31   H18   S    
C25   C28   A    
C26   C27   A    
C17   H20   S    
C5    C6    A    
C4    C24   A    
C23   O8    A    
C34   H23   S    
C32   H16   S    
C33   H24   S    
C5    H6    S    
C26   H27   S    
C14   H9    S    
C10   H30   S    
C1    O2    A    
C8    C9    A    
C23   C24   S    
C31   H19   S    
C9    C10   A    
C20   H4    S    
C32   H17   S    
C7    C15   S    
C22   O6    A    
C13   C14   S    
C15   C31   S    
C2    C6    A    
C6    H28   S    
Cu1   O7    S    
C30   H10   S    
Cu2   O6    S    
C7    C8    A    
C18   N2    A    
C21   H26   S    
C29   C30   S    
C32   H15   S    
C33   H25   S    
C29   H14   S    
C4    C29   S    
C30   H11   S    
C17   N1    A    
Cu1   Cu2   S    
C20   C33   S    
C17   C18   A    
Cu2   N1    S    
C16   N1    A    
C22   O5    A    
Cu2   O8    S    
Cu1   O3    S    
Cu2   O2    S    
C3    C4    A    
C23   O7    A    
Cu1   N2    S    
C3    C26   A    
C12   O4    A    
C15   H2    S    
C21   H5    S    
C25   C27   A    
C12   C25   S    
C11   C22   S    
C29   H13   S    
Cu1   O5    S    
C30   H12   S    
C2    C3    A    
C12   O3    A    
C11   C13   A    
C31   C32   S    
C5    C24   A    
C27   H7    S    
C16   C19   A    
C9    H8    S    
C34   H21   S    
C18   H3    S    
C10   C11   A    
C1    O1    A    
C7    C13   A    
C20   C21   S    
C33   C34   S    
C14   C15   S    
C2    C28   A    
C28   H29   S    
C19   N2    A    
