data_mof_unit_49496.cif
_audit_creation_date              2012-12-11T15:22:24-0500
_audit_creation_method            fapswitch 2.2
_symmetry_space_group_name_H-M    P1
_symmetry_Int_Tables_number       1
_space_group_crystal_system       triclinic
_cell_length_a                    22.469775
_cell_length_b                    12.991441
_cell_length_c                    26.98155
_cell_angle_alpha                 90.008194
_cell_angle_beta                  90.619584
_cell_angle_gamma                 90.001761
_cell_volume                      7875.85199033

loop_
_atom_site_label
_atom_site_type_symbol
_atom_type_description
_atom_site_fract_x
_atom_site_fract_y
_atom_site_fract_z
_atom_type_partial_charge
C1    C     C_R   0.720172 0.344025 0.177965 0.544308
C2    C     C_R   0.480654 0.256101 0.897357 -0.148406
C3    C     C_R   0.993693 0.580473 0.552346 -0.117098
C4    C     C_R   0.519355 0.075600 0.397789 -0.122869
C5    C     C_R   0.442100 0.086855 0.594325 -0.123854
C6    C     C_R   0.057639 0.586576 0.405643 -0.124224
C7    C     C_R   0.979959 0.575550 0.602006 -0.121760
C8    C     C_R   0.737299 0.964755 0.374678 0.035248
C9    C     C_R   0.263645 0.975539 0.625426 0.046942
C10   C     C_R   0.236348 0.475495 0.374568 0.046957
C11   C     C_R   0.762425 0.463468 0.625648 0.054508
C12   C     C_R   0.792677 0.958831 0.400088 0.094130
C13   C     C_R   0.019482 0.756299 0.102806 -0.147557
C14   C     C_R   0.232356 0.889138 0.607691 0.106904
C15   C     C_R   0.267774 0.389238 0.392287 0.106912
C16   C     C_R   0.707031 0.461666 0.600465 0.099661
C17   C     C_R   0.793349 0.946860 0.451481 -0.018522
C18   C     C_R   0.227586 0.874089 0.556554 0.018548
C19   C     C_R   0.272519 0.374137 0.443420 0.018812
C20   C     C_R   0.706147 0.450991 0.548742 -0.055815
C21   C     C_R   0.739921 0.943172 0.477794 0.039288
C22   C     C_R   0.253549 0.944830 0.523928 0.037185
C23   C     C_R   0.246407 0.444698 0.476061 0.037332
C24   C     C_R   0.979200 0.757608 0.896913 -0.135541
C25   C     C_R   0.759536 0.443705 0.522469 0.050193
C26   C     C_R   0.685607 0.941330 0.452345 -0.103616
C27   C     C_R   0.284811 0.029878 0.541986 -0.116653
C28   C     C_R   0.215004 0.529594 0.458021 -0.116564
C29   C     C_R   0.813695 0.437631 0.548062 -0.100948
C30   C     C_R   0.684321 0.950751 0.401303 -0.118066
C31   C     C_R   0.289371 0.045518 0.592505 -0.137254
C32   C     C_R   0.210450 0.545269 0.407504 -0.137093
C33   C     C_R   0.815083 0.446036 0.599133 -0.125551
C34   C     C_R   0.773401 0.006423 0.561815 0.043730
C35   C     C_R   0.508161 0.258979 0.052316 0.006044
C36   C     C_R   0.217971 0.001250 0.439827 0.046711
C37   C     C_R   0.282021 0.501150 0.560150 0.046648
C38   C     C_R   0.726600 0.507019 0.438136 0.044410
C39   C     C_R   0.721879 0.349199 0.320930 0.583386
C40   C     C_R   0.278421 0.348826 0.678787 0.571240
C41   C     C_R   0.221582 0.848841 0.321208 0.571227
C42   C     C_R   0.778094 0.849229 0.679101 0.582365
C43   C     C_R   0.780461 0.986257 0.613100 0.030624
C44   C     C_R   0.215490 0.983127 0.388100 0.034789
C45   C     C_R   0.284526 0.483053 0.611878 0.034713
C46   C     C_R   0.491177 0.257846 0.948690 0.006470
C47   C     C_R   0.719682 0.486539 0.386838 0.029942
C48   C     C_R   0.718310 0.833269 0.603273 -0.146580
C49   C     C_R   0.274492 0.826855 0.400117 -0.163129
C50   C     C_R   0.225508 0.326780 0.599876 -0.163202
C51   C     C_R   0.781019 0.332742 0.397050 -0.148020
C52   C     C_R   0.710413 0.854652 0.553683 -0.116631
C53   C     C_R   0.278164 0.846163 0.450301 -0.157987
C54   C     C_R   0.221826 0.346053 0.549691 -0.157947
C55   C     C_R   0.788753 0.354303 0.446634 -0.118423
C56   C     C_R   0.740816 0.936280 0.531995 -0.012419
C57   C     C_R   0.008732 0.757951 0.051522 0.007279
C58   C     C_R   0.248512 0.930075 0.470544 -0.025034
C59   C     C_R   0.251470 0.429955 0.529441 -0.025027
C60   C     C_R   0.758704 0.436579 0.468190 -0.008709
C61   C     C_R   0.756441 0.893994 0.632447 -0.011254
C62   C     C_R   0.240836 0.891357 0.369099 -0.010971
C63   C     C_R   0.259174 0.391302 0.630889 -0.010990
C64   C     C_R   0.743395 0.393863 0.367667 -0.009994
C65   C     C_R   0.554192 0.158650 0.321454 0.542455
C66   C     C_R   0.444651 0.158432 0.677974 0.537671
C67   C     C_R   0.055384 0.658436 0.322042 0.537523
C68   C     C_R   0.991320 0.758821 0.947961 0.010780
C69   C     C_R   0.945788 0.658630 0.678537 0.542487
C70   C     C_R   0.731357 0.003273 0.323683 0.540538
C71   C     C_R   0.268063 0.001851 0.677305 0.525225
C72   C     C_R   0.231934 0.501856 0.322695 0.525280
C73   C     C_R   0.768657 0.503098 0.676395 0.558023
C74   C     C_R   0.510130 0.071481 0.104172 -0.127993
C75   C     C_R   0.478479 0.069025 0.899177 -0.125123
C76   C     C_R   0.019806 0.569165 0.101322 -0.127718
C77   C     C_R   0.988245 0.571087 0.896330 -0.130093
C78   C     C_R   0.499784 0.071111 0.053320 0.010139
C79   C     C_R   0.499834 0.164934 0.027025 0.061181
C80   C     C_R   0.486638 0.069622 0.950221 0.010631
C81   C     C_R   0.011365 0.569590 0.050304 0.008435
C82   C     C_R   0.998203 0.570740 0.947216 0.009134
C83   C     C_R   0.486515 0.976897 0.976718 -0.139901
C84   C     C_R   0.492530 0.977697 0.028061 -0.143029
C85   C     C_R   0.004416 0.477282 0.972616 -0.144263
C86   C     C_R   0.010419 0.476667 0.023959 -0.144234
C87   C     C_2   0.796678 0.102082 0.539526 0.578923
C88   C     C_2   0.187406 0.091290 0.462204 0.586139
C89   C     C_2   0.312558 0.591202 0.537763 0.585855
C90   C     C_R   0.492637 0.164244 0.975282 0.060446
C91   C     C_2   0.703647 0.603234 0.460159 0.581124
C92   C     C_2   0.809137 0.062213 0.647179 0.599914
C93   C     C_2   0.185266 0.056808 0.353899 0.626257
C94   C     C_2   0.314779 0.556744 0.646068 0.626283
C95   C     C_2   0.691553 0.562599 0.352518 0.601027
C96   C     C_R   0.006241 0.664197 0.025098 0.061059
C97   C     C_R   0.279761 0.344213 0.821951 0.544911
C98   C     C_R   0.998943 0.664729 0.973371 0.061266
C99   C     C_R   0.507188 0.351759 0.025648 -0.144093
C100  C     C_R   0.498200 0.351251 0.974238 -0.142677
C101  C     C_R   0.002541 0.851367 0.025855 -0.137551
C102  C     C_R   0.993272 0.851760 0.974482 -0.137601
C103  C     C_R   0.735383 0.974740 0.127146 0.004627
C104  C     C_R   0.259636 0.956855 0.869960 -0.007929
C105  C     C_R   0.240398 0.456588 0.130088 -0.007979
C106  C     C_R   0.759378 0.456066 0.869772 -0.006099
C107  C     C_R   0.743460 0.054839 0.093213 -0.128068
C108  C     C_R   0.220239 0.844201 0.178048 0.545089
C109  C     C_R   0.212865 0.993196 0.899130 -0.135046
C110  C     C_R   0.287493 0.492136 0.101059 -0.134677
C111  C     C_R   0.712732 0.492483 0.899065 -0.137197
C112  C     C_R   0.741677 0.035539 0.042828 -0.145352
C113  C     C_R   0.210679 0.968940 0.949066 -0.144325
C114  C     C_R   0.289742 0.467824 0.051121 -0.143975
C115  C     C_R   0.710396 0.467386 0.948910 -0.142205
C116  C     C_R   0.733482 0.935147 0.025159 0.033864
C117  C     C_R   0.254545 0.906521 0.970912 0.036103
C118  C     C_R   0.245586 0.406192 0.029138 0.035854
C119  C     C_R   0.779543 0.844896 0.821912 0.552539
C120  C     C_R   0.754012 0.404131 0.970553 0.036649
C121  C     C_R   0.725256 0.853294 0.059267 0.111727
C122  C     C_R   0.299928 0.864237 0.941286 0.108849
C123  C     C_R   0.199872 0.364624 0.058640 0.108838
C124  C     C_R   0.799211 0.361722 0.940761 0.107597
C125  C     C_R   0.553350 0.157347 0.177718 0.542541
C126  C     C_R   0.445956 0.157081 0.822719 0.543776
C127  C     C_R   0.053930 0.657098 0.177361 0.543704
C128  C     C_R   0.946488 0.657315 0.822368 0.547714
C129  C     C_R   0.724925 0.874486 0.110227 -0.077621
C130  C     C_R   0.472397 0.161716 0.872730 -0.007925
C131  C     C_R   0.302280 0.890352 0.891047 -0.073026
C132  C     C_R   0.197500 0.390717 0.108881 -0.072477
C133  C     C_R   0.801672 0.388573 0.890607 -0.070551
C134  C     C_R   0.697317 0.870741 0.942390 -0.119810
C135  C     C_R   0.294788 0.913329 0.057969 -0.117347
C136  C     C_R   0.205496 0.414012 0.942061 -0.117259
C137  C     C_R   0.794609 0.410823 0.057497 -0.111198
C138  C     C_R   0.707875 0.851789 0.892260 -0.126664
C139  C     C_R   0.286170 0.900799 0.108916 -0.131234
C140  C     C_R   0.214080 0.401528 0.891107 -0.131355
C141  C     C_R   0.523909 0.163607 0.128938 -0.007806
C142  C     C_R   0.786071 0.399120 0.108505 -0.127701
C143  C     C_R   0.803806 0.936327 0.899976 -0.117341
C144  C     C_R   0.186682 0.836141 0.091963 -0.114422
C145  C     C_R   0.313191 0.335159 0.908044 -0.114374
C146  C     C_R   0.686287 0.335583 0.091926 -0.127046
C147  C     C_R   0.793805 0.953051 0.949910 -0.121699
C148  C     C_R   0.195817 0.845568 0.041541 -0.126729
C149  C     C_R   0.304076 0.344575 0.958475 -0.126583
C150  C     C_R   0.695360 0.344041 0.041444 -0.135135
C151  C     C_R   0.741287 0.918157 0.971776 0.028796
C152  C     C_R   0.975286 0.663379 0.871391 -0.004917
C153  C     C_R   0.249600 0.884999 0.024114 0.025099
C154  C     C_R   0.250496 0.384818 0.975914 0.024808
C155  C     C_R   0.749236 0.382618 0.023790 0.023708
C156  C     C_R   0.761914 0.882409 0.870988 0.026663
C157  C     C_R   0.231447 0.864266 0.125907 0.038702
C158  C     C_R   0.268604 0.364146 0.874110 0.038635
C159  C     C_R   0.731228 0.363650 0.125729 0.031766
C160  C     C_R   0.525955 0.166013 0.370076 0.023841
C161  C     C_R   0.463096 0.164130 0.626268 0.027426
C162  C     C_R   0.036938 0.664158 0.373749 0.024303
C163  C     C_R   0.027035 0.661894 0.127543 -0.008266
C164  C     C_R   0.973933 0.665898 0.629881 0.024182
C165  C     C_R   0.514570 0.261665 0.392405 -0.111943
C166  C     C_R   0.492864 0.249609 0.606716 -0.116505
C167  C     C_R   0.007504 0.749935 0.393360 -0.110194
C168  C     C_R   0.985833 0.761497 0.607706 -0.111607
C169  C     C_R   0.498782 0.266358 0.442363 -0.104617
C170  C     C_R   0.503245 0.255111 0.555662 -0.100489
C171  C     C_R   0.997139 0.755449 0.444414 -0.095233
C172  C     C_R   0.001658 0.766223 0.557756 -0.104218
C173  C     C_R   0.731048 0.002816 0.179219 0.534419
C174  C     C_R   0.520094 0.257803 0.103391 -0.148334
C175  C     C_R   0.268817 0.002285 0.820784 0.539885
C176  C     C_R   0.231191 0.502235 0.179226 0.540067
C177  C     C_R   0.768771 0.502147 0.820744 0.542644
C178  C     C_R   0.495295 0.175566 0.470511 0.033684
C179  C     C_R   0.481742 0.177105 0.523877 0.033194
C180  C     C_R   0.018310 0.677111 0.476137 0.029651
C181  C     C_R   0.004662 0.675534 0.529475 0.033532
C182  C     C_R   0.505678 0.080454 0.447468 -0.118333
C183  C     C_R   0.449578 0.094896 0.543856 -0.128759
C184  C     C_R   0.050162 0.594579 0.456115 -0.129038
Cr1   Cr    Cr6+3 0.756570 0.170940 0.251190 1.025683
Cr2   Cr    Cr6+3 0.374010 0.036240 0.749520 1.028267
Cr3   Cr    Cr6+3 0.125990 0.536240 0.250480 1.028067
Cr4   Cr    Cr6+3 0.874010 0.536240 0.749520 1.023876
Cr5   Cr    Cr6+3 0.243430 0.170940 0.748810 1.027723
Cr6   Cr    Cr6+3 0.256570 0.670940 0.251190 1.028089
Cr7   Cr    Cr6+3 0.743430 0.670940 0.748810 1.041191
Cr8   Cr    Cr6+3 0.623740 0.299110 0.249580 1.045568
Cr9   Cr    Cr6+3 0.376260 0.299110 0.750420 1.048242
Cr10  Cr    Cr6+3 0.123740 0.799110 0.249580 1.048529
Cr11  Cr    Cr6+3 0.876260 0.799110 0.750420 1.045231
Cr12  Cr    Cr6+3 0.625990 0.036240 0.250480 1.028667
H1    H     H_    0.472417 0.995582 0.880692 0.137859
H2    H     H_    0.338494 0.861033 0.868918 0.144694
H3    H     H_    0.631942 0.688034 0.478612 0.326761
H4    H     H_    0.807535 0.133107 0.713726 0.335979
H5    H     H_    0.188127 0.134748 0.289308 0.333038
H6    H     H_    0.311966 0.634718 0.710662 0.333009
H7    H     H_    0.694022 0.633216 0.285940 0.336554
H8    H     H_    0.161039 0.361973 0.130899 0.145433
H9    H     H_    0.837746 0.359116 0.868364 0.144868
H10   H     H_    0.519733 0.332594 0.371812 0.143608
H11   H     H_    0.508240 0.311053 0.630777 0.124282
H12   H     H_    0.992384 0.811618 0.369341 0.136379
H13   H     H_    0.981089 0.832371 0.628425 0.143409
H14   H     H_    0.429977 0.035923 0.520482 0.114873
H15   H     H_    0.505400 0.009048 0.468132 0.110070
H16   H     H_    0.993579 0.509201 0.531559 0.110260
H17   H     H_    0.512138 0.998553 0.123673 0.135172
H18   H     H_    0.069495 0.535312 0.479461 0.115242
H19   H     H_    0.417155 0.021666 0.608087 0.151307
H20   H     H_    0.528385 0.000598 0.382031 0.136027
H21   H     H_    0.970458 0.500607 0.617624 0.135814
H22   H     H_    0.082359 0.521152 0.391849 0.151632
H23   H     H_    0.490230 0.340633 0.459024 0.130843
H24   H     H_    0.528540 0.319219 0.541293 0.115049
H25   H     H_    0.972103 0.819815 0.458836 0.129835
H26   H     H_    0.010640 0.840443 0.541207 0.131857
H27   H     H_    0.481293 0.903842 0.957759 0.116565
H28   H     H_    0.985901 0.498072 0.876915 0.134936
H29   H     H_    0.492597 0.905187 0.047920 0.107938
H30   H     H_    0.003589 0.404637 0.952864 0.114318
H31   H     H_    0.014906 0.403602 0.043022 0.118773
H32   H     H_    0.835634 0.942797 0.471094 0.154596
H33   H     H_    0.203351 0.808191 0.542184 0.148411
H34   H     H_    0.296857 0.308350 0.457777 0.148311
H35   H     H_    0.664026 0.449914 0.528821 0.130241
H36   H     H_    0.683472 0.802947 0.531522 0.153882
H37   H     H_    0.303070 0.793849 0.473795 0.164396
H38   H     H_    0.196911 0.293727 0.526203 0.164489
H39   H     H_    0.025238 0.495738 0.119942 0.137863
H40   H     H_    0.815340 0.302233 0.468872 0.153772
H41   H     H_    0.698120 0.763837 0.617672 0.164711
H42   H     H_    0.294531 0.756781 0.386291 0.157304
H43   H     H_    0.205466 0.256720 0.613708 0.157299
H44   H     H_    0.800929 0.262920 0.382800 0.151237
H45   H     H_    0.644014 0.936146 0.472156 0.112756
H46   H     H_    0.305073 0.084470 0.516910 0.122456
H47   H     H_    0.194634 0.584049 0.483111 0.122462
H48   H     H_    0.855226 0.429881 0.528356 0.111590
H49   H     H_    0.641126 0.954258 0.383206 0.143317
H50   H     H_    0.845983 0.960769 0.884880 0.134396
H51   H     H_    0.312465 0.113335 0.606124 0.117397
H52   H     H_    0.187243 0.612973 0.393902 0.117429
H53   H     H_    0.858256 0.446407 0.617354 0.142476
H54   H     H_    0.475945 0.327829 0.877167 0.125645
H55   H     H_    0.530195 0.329286 0.122432 0.126231
H56   H     H_    0.969432 0.829149 0.877809 0.124229
H57   H     H_    0.025005 0.828056 0.122845 0.126648
H58   H     H_    0.497040 0.423791 0.954444 0.112606
H59   H     H_    0.513617 0.424606 0.044514 0.112061
H60   H     H_    0.987478 0.924649 0.955521 0.108682
H61   H     H_    0.144828 0.804813 0.104571 0.129264
H62   H     H_    0.004551 0.924011 0.045532 0.115370
H63   H     H_    0.749843 0.133319 0.105786 0.141116
H64   H     H_    0.179499 0.044999 0.884093 0.142522
H65   H     H_    0.321082 0.543388 0.116201 0.142467
H66   H     H_    0.679630 0.545032 0.884226 0.137598
H67   H     H_    0.655354 0.847480 0.958205 0.106507
H68   H     H_    0.335821 0.947403 0.045188 0.115275
H69   H     H_    0.164645 0.448721 0.954852 0.115177
H70   H     H_    0.835727 0.444282 0.044548 0.116265
H71   H     H_    0.674749 0.810475 0.870641 0.124089
H72   H     H_    0.354884 0.303216 0.895414 0.129483
H73   H     H_    0.321292 0.921390 0.134875 0.112220
H74   H     H_    0.179100 0.422814 0.865151 0.112115
H75   H     H_    0.821363 0.419552 0.134330 0.115526
H76   H     H_    0.747948 0.099102 0.017398 0.116846
H77   H     H_    0.175206 0.001133 0.971138 0.117032
H78   H     H_    0.325472 0.499439 0.029148 0.117064
H79   H     H_    0.675090 0.499775 0.971102 0.118272
H80   H     H_    0.827969 0.990964 0.971927 0.113909
H81   H     H_    0.160447 0.823674 0.016006 0.121732
H82   H     H_    0.339305 0.322022 0.984006 0.122578
H83   H     H_    0.644418 0.304716 0.104703 0.129940
H84   H     H_    0.659857 0.322168 0.016037 0.124313
H85   H     H_    0.680700 0.739894 0.022995 0.223468
H86   H     H_    0.756057 0.730471 0.020915 0.244535
H87   H     H_    0.369708 0.831698 0.986934 0.224568
H88   H     H_    0.320809 0.733489 0.978460 0.240286
H89   H     H_    0.129936 0.333479 0.012917 0.225633
H90   H     H_    0.178307 0.234427 0.021249 0.240115
H91   H     H_    0.868995 0.328018 0.986220 0.228753
H92   H     H_    0.819759 0.230363 0.977555 0.230472
H93   H     H_    0.847462 0.915691 0.344577 0.243504
H94   H     H_    0.717718 0.812809 0.136519 0.132286
H95   H     H_    0.854775 0.040673 0.362866 0.258962
H96   H     H_    0.238396 0.787542 0.664083 0.258548
H97   H     H_    0.174592 0.856640 0.662324 0.231913
H98   H     H_    0.261966 0.287684 0.335847 0.258455
H99   H     H_    0.325646 0.357128 0.337677 0.232216
H100  H     H_    0.615995 0.473664 0.602771 0.224940
H101  H     H_    0.647698 0.407928 0.649526 0.231662
H102  H     H_    0.868640 0.185204 0.520095 0.326702
H103  H     H_    0.132430 0.143807 0.515241 0.331728
H104  H     H_    0.367458 0.643747 0.484684 0.331522
N1    N     N_3   0.720013 0.748298 0.043550 -0.633612
N2    N     N_3   0.343155 0.793569 0.960809 -0.647744
N3    N     N_3   0.156280 0.294766 0.038983 -0.646407
N4    N     N_3   0.842248 0.290433 0.960043 -0.648422
N5    N     N_3   0.848505 0.965239 0.375115 -0.631545
N6    N     N_3   0.205251 0.816977 0.640580 -0.607571
N7    N     N_3   0.295037 0.317269 0.359384 -0.607612
N8    N     N_3   0.652449 0.473114 0.627199 -0.597132
O1    O     O_R   0.769900 0.064540 0.196060 -0.511398
O2    O     O_R   0.433710 0.069580 0.694600 -0.512937
O3    O     O_R   0.066290 0.569580 0.305400 -0.513084
O4    O     O_R   0.933710 0.569580 0.694600 -0.523553
O5    O     O_R   0.680760 0.993330 0.302620 -0.503008
O6    O     O_R   0.319240 0.993330 0.697380 -0.498638
O7    O     O_R   0.180760 0.493330 0.302620 -0.498704
O8    O     O_R   0.819240 0.493330 0.697380 -0.514309
O9    O     O_3   0.668770 0.168760 0.250420 -0.253211
O10   O     O_3   0.331230 0.168760 0.749580 -0.255817
O11   O     O_3   0.168770 0.668760 0.250420 -0.255744
O12   O     O_R   0.230100 0.064540 0.803940 -0.515994
O13   O     O_3   0.831230 0.668760 0.749580 -0.253344
O14   O     O_R   0.750800 0.274080 0.199250 -0.503241
O15   O     O_R   0.249200 0.274080 0.800750 -0.497939
O16   O     O_R   0.250800 0.774080 0.199250 -0.497946
O17   O     O_R   0.749200 0.774080 0.800750 -0.504071
O18   O     O_R   0.669990 0.371670 0.194150 -0.507458
O19   O     O_R   0.330010 0.371670 0.805850 -0.509530
O20   O     O_R   0.169990 0.871670 0.194150 -0.509524
O21   O     O_R   0.830010 0.871670 0.805850 -0.516076
O22   O     O_R   0.574600 0.238480 0.197800 -0.509311
O23   O     O_R   0.269900 0.564540 0.196060 -0.515810
O24   O     O_R   0.425400 0.238480 0.802200 -0.506911
O25   O     O_R   0.074600 0.738480 0.197800 -0.506855
O26   O     O_R   0.925400 0.738480 0.802200 -0.504472
O27   O     O_R   0.566130 0.068680 0.194240 -0.515594
O28   O     O_R   0.433870 0.068680 0.805760 -0.518478
O29   O     O_R   0.066130 0.568680 0.194240 -0.518589
O30   O     O_R   0.933870 0.568680 0.805760 -0.519038
O31   O     O_R   0.680610 0.992490 0.199570 -0.495796
O32   O     O_R   0.319390 0.992490 0.800430 -0.506249
O33   O     O_R   0.180610 0.492490 0.199570 -0.506080
O34   O     O_R   0.730100 0.564540 0.803940 -0.518195
O35   O     O_R   0.819390 0.492490 0.800430 -0.504210
O36   O     O_R   0.770060 0.065440 0.307230 -0.524864
O37   O     O_R   0.229940 0.065440 0.692770 -0.513472
O38   O     O_R   0.270060 0.565440 0.307230 -0.513412
O39   O     O_R   0.729940 0.565440 0.692770 -0.476994
O40   O     O_R   0.750960 0.274920 0.302300 -0.508842
O41   O     O_R   0.249040 0.274920 0.697700 -0.508423
O42   O     O_R   0.250960 0.774920 0.302300 -0.508398
O43   O     O_R   0.749040 0.774920 0.697700 -0.507997
O44   O     O_R   0.670160 0.372580 0.305320 -0.481380
O45   O     O_R   0.574760 0.239320 0.300850 -0.500510
O46   O     O_R   0.329840 0.372580 0.694680 -0.482671
O47   O     O_R   0.170160 0.872580 0.305320 -0.482698
O48   O     O_R   0.829840 0.872580 0.694680 -0.481786
O49   O     O_2   0.761909 0.166534 0.523419 -0.536187
O50   O     O_R   0.858076 0.116756 0.535666 -0.664191
O51   O     O_2   0.193538 0.177098 0.444416 -0.522378
O52   O     O_R   0.151568 0.077467 0.503735 -0.694937
O53   O     O_2   0.306447 0.677005 0.555572 -0.522243
O54   O     O_R   0.348343 0.577397 0.496197 -0.695599
O55   O     O_2   0.738591 0.666891 0.476761 -0.532092
O56   O     O_R   0.425240 0.239320 0.699150 -0.497073
O57   O     O_R   0.642290 0.619283 0.463247 -0.666329
O58   O     O_2   0.854446 0.107512 0.635279 -0.475867
O59   O     O_R   0.784194 0.080621 0.693619 -0.695900
O60   O     O_2   0.135852 0.090354 0.363489 -0.479056
O61   O     O_R   0.213012 0.085121 0.309814 -0.696863
O62   O     O_2   0.364190 0.590272 0.636458 -0.479536
O63   O     O_R   0.287061 0.585090 0.690165 -0.696888
O64   O     O_2   0.646195 0.608187 0.364034 -0.474490
O65   O     O_R   0.717029 0.580649 0.306254 -0.695661
O66   O     O_R   0.074760 0.739320 0.300850 -0.497465
O67   O     O_R   0.925240 0.739320 0.699150 -0.501299
O68   O     O_R   0.566290 0.069580 0.305400 -0.523788

loop_
_geom_bond_atom_site_label_1
_geom_bond_atom_site_label_2
_ccdc_geom_bond_type
C21   C26   A    
C34   C56   A    
C86   H31   S    
C108  O16   A    
C72   O38   A    
C107  C112  A    
Cr1   O36   S    
Cr6   O16   S    
C105  C110  A    
C92   O58   D    
C97   O15   A    
C48   H41   S    
C93   O61   S    
C135  C139  A    
C139  H73   S    
C101  C102  A    
C124  C133  A    
C32   H52   S    
C17   H32   S    
H93   N5    S    
C29   C33   A    
C148  H81   S    
Cr10  O66   S    
Cr7   O39   S    
C176  O33   A    
C79   C90   A    
C146  C150  A    
C106  C133  A    
C16   N8    S    
C105  C176  S    
C25   C60   S    
C177  O35   A    
H101  N8    S    
C170  H24   S    
C81   C86   A    
H7    O65   S    
C136  C140  A    
C106  C111  A    
C83   H27   S    
C82   C98   A    
C80   C83   A    
C100  H58   S    
C13   C163  A    
C25   C29   A    
C116  C121  A    
C27   C31   A    
H90   N3    S    
C1    C159  S    
C89   O53   D    
C47   C64   A    
C167  C171  A    
H100  N8    S    
C120  C155  S    
C17   C21   A    
Cr7   O17   S    
C66   C161  S    
C6    C184  A    
C5    C161  A    
C19   C23   A    
Cr9   O56   S    
C16   C20   A    
C70   O36   A    
C94   O62   D    
C173  O1    A    
C173  O31   A    
C164  C168  A    
Cr12  O5    S    
C22   C27   A    
C117  C153  S    
C36   C44   A    
C166  H11   S    
C69   O4    A    
C37   C45   A    
C27   H46   S    
C43   C61   A    
C175  O12   A    
C49   C62   A    
C122  N2    S    
C168  H13   S    
C51   C64   A    
C22   C58   S    
C53   C58   A    
C41   O47   A    
C72   O7    A    
H104  O54   S    
C82   C85   A    
Cr5   O15   S    
C67   C162  S    
C52   C56   A    
C77   C82   A    
C49   C53   A    
C134  C151  A    
Cr8   O45   S    
C145  H72   S    
C51   C55   A    
C34   C87   S    
C68   C98   A    
C48   C52   A    
C139  C157  A    
Cr10  O25   S    
C103  C107  A    
C70   O5    A    
Cr11  O13   S    
Cr12  O31   S    
C127  O29   A    
C180  C184  A    
C137  C142  A    
Cr1   O9    S    
C134  H67   S    
C4    H20   S    
C123  C132  A    
Cr2   O6    S    
Cr3   O11   S    
C55   H40   S    
C178  C179  S    
C85   C86   A    
C36   C88   S    
C23   C59   S    
C128  O26   A    
Cr11  O48   S    
C50   H43   S    
Cr5   O10   S    
C174  H55   S    
C13   C57   A    
C138  H71   S    
C5    H19   S    
C39   O40   A    
C137  C155  A    
C107  H63   S    
C140  C158  A    
C172  C181  A    
C128  C152  S    
C28   C32   A    
C66   O56   A    
C104  C131  A    
C96   C98   A    
C108  O20   A    
C51   H44   S    
Cr1   O40   S    
C110  C114  A    
Cr1   O14   S    
C135  H68   S    
C20   H35   S    
C50   C63   A    
C65   C160  S    
C84   H29   S    
H102  O50   S    
C77   C152  A    
C171  H25   S    
C54   C59   A    
Cr5   O41   S    
Cr7   O43   S    
C11   C33   A    
C113  H77   S    
C108  C157  S    
C78   C84   A    
C147  C151  A    
C117  C122  A    
C137  H70   S    
C184  H18   S    
C83   C84   A    
C176  O23   A    
C8    C12   A    
Cr12  O27   S    
Cr8   O9    S    
C127  O25   A    
H4    O59   S    
H3    O57   S    
C23   C28   A    
C144  H61   S    
C37   C59   A    
C113  C117  A    
C74   C141  A    
C129  H94   S    
C26   C30   A    
H91   N4    S    
C141  C174  A    
C38   C60   A    
C54   H38   S    
C122  C131  A    
C112  C116  A    
Cr8   O44   S    
C106  C177  S    
C126  O24   A    
C18   C22   A    
C34   C43   A    
Cr5   O12   S    
Cr3   O33   S    
C166  C170  A    
Cr6   O11   S    
C57   C101  A    
C8    C70   S    
C43   C92   S    
C143  H50   S    
C170  C179  A    
C150  C155  A    
C128  O30   A    
C167  H12   S    
H97   N6    S    
Cr12  O9    S    
C35   C79   A    
C118  C154  S    
C102  H60   S    
Cr6   O42   S    
Cr7   O34   S    
C172  H26   S    
C42   O43   A    
C73   O39   A    
C76   C163  A    
C144  C157  A    
C177  O34   A    
C69   O67   A    
C116  C151  S    
C10   C72   S    
H99   N7    S    
C119  C156  S    
C87   O50   S    
C71   O37   A    
C69   C164  S    
C142  C159  A    
C66   O2    A    
C26   H45   S    
Cr12  O68   S    
C183  H14   S    
C15   C19   A    
C39   C64   S    
C50   C54   A    
C40   C63   S    
H89   N3    S    
H6    O63   S    
C68   C102  A    
C3    C7    A    
C20   C25   A    
C126  C130  S    
C88   O51   D    
C142  H75   S    
C110  H65   S    
C46   C100  A    
C24   C152  A    
C6    H22   S    
Cr11  O67   S    
C57   C96   A    
C12   C17   A    
Cr2   O10   S    
C94   O63   S    
C92   O59   S    
Cr3   O7    S    
C1    O18   A    
C75   C130  A    
C144  C148  A    
C91   O57   S    
C65   O45   A    
Cr9   O19   S    
C55   C60   A    
C165  C169  A    
Cr9   O24   S    
C41   C62   S    
Cr9   O46   S    
C1    O14   A    
C105  C132  A    
C75   H1    S    
C67   O66   A    
C39   O44   A    
C132  H8    S    
C93   O60   D    
C24   H56   S    
C131  H2    S    
H5    O61   S    
Cr9   O10   S    
C11   C73   S    
C81   C96   A    
H98   N7    S    
Cr4   O30   S    
C38   C91   S    
Cr4   O4    S    
C149  C154  A    
C111  H66   S    
Cr11  O21   S    
C136  C154  A    
C11   C16   A    
C77   H28   S    
Cr2   O28   S    
C40   O41   A    
C101  H62   S    
C73   O8    A    
Cr1   O1    S    
C12   N5    S    
C160  C165  A    
C95   O65   S    
Cr3   O3    S    
C103  C129  A    
H87   N2    S    
C169  H23   S    
Cr4   O35   S    
Cr5   O37   S    
C74   H17   S    
C40   O46   A    
C125  O22   A    
C53   H37   S    
H96   N6    S    
C180  C181  S    
C114  H78   S    
C127  C163  S    
C9    C71   S    
C121  C129  A    
C49   H42   S    
C18   H33   S    
C119  O21   A    
C89   O54   S    
C21   C56   S    
C46   C90   A    
C15   N7    S    
C7    C164  A    
C37   C89   S    
C8    C30   A    
C109  H64   S    
Cr4   O8    S    
C175  O32   A    
C97   C158  S    
C145  C158  A    
C182  H15   S    
C2    C130  A    
C29   H48   S    
C140  H74   S    
C118  C123  A    
C19   H34   S    
C150  H84   S    
C24   C68   A    
C71   O6    A    
C91   O55   D    
C168  C172  A    
C74   C78   A    
C126  O28   A    
C4    C182  A    
C5    C183  A    
C145  C149  A    
Cr3   O29   S    
C30   H49   S    
C42   O48   A    
C14   C18   A    
C41   O42   A    
C95   O64   D    
C9    C14   A    
Cr10  O11   S    
C112  H76   S    
C48   C61   A    
C2    C46   A    
C143  C147  A    
H88   N2    S    
C10   C32   A    
Cr6   O38   S    
C36   C58   A    
C10   C15   A    
C2    H54   S    
C104  C109  A    
C133  H9    S    
C103  C173  S    
Cr8   O22   S    
H103  O52   S    
C99   H59   S    
C44   C93   S    
H86   N1    S    
C6    C162  A    
H95   N5    S    
Cr7   O13   S    
C28   H47   S    
C165  H10   S    
C147  H80   S    
C109  C113  A    
H92   N4    S    
C31   H51   S    
C14   N6    S    
C35   C99   A    
C45   C94   S    
C65   O68   A    
Cr10  O20   S    
C104  C175  S    
C179  C183  A    
C125  C141  S    
C78   C79   A    
C52   H36   S    
C146  C159  A    
C44   C62   A    
C119  O17   A    
C45   C63   A    
C121  N1    S    
C136  H69   S    
C123  N3    S    
C124  N4    S    
Cr8   O18   S    
C3    C181  A    
Cr10  O47   S    
C99   C100  A    
C13   H57   S    
C178  C182  A    
C149  H82   S    
C42   C61   S    
C38   C47   A    
C114  C118  A    
Cr11  O26   S    
C171  C180  A    
C146  H83   S    
H85   N1    S    
C169  C178  A    
C75   C80   A    
C138  C156  A    
C3    H16   S    
C97   O19   A    
C87   O49   D    
C35   C174  A    
C125  O27   A    
C161  C166  A    
C76   C81   A    
C134  C138  A    
Cr2   O32   S    
C135  C153  A    
Cr2   O2    S    
C143  C156  A    
C4    C160  A    
C67   O3    A    
C33   H53   S    
C88   O52   S    
Cr4   O13   S    
C76   H39   S    
C80   C90   A    
Cr6   O23   S    
C9    C31   A    
C162  C167  A    
C7    H21   S    
C115  H79   S    
C115  C120  A    
C148  C153  A    
C47   C95   S    
C111  C115  A    
C85   H30   S    
C120  C124  A    
