data_mof_unit_32726.cif
_audit_creation_date              2013-03-05T15:50:10-0500
_audit_creation_method            fapswitch 2.2
_symmetry_space_group_name_H-M    P1
_symmetry_Int_Tables_number       1
_space_group_crystal_system       triclinic
_cell_length_a                    19.992777
_cell_length_b                    6.876805
_cell_length_c                    18.205493
_cell_angle_alpha                 90.000956
_cell_angle_beta                  104.179691
_cell_angle_gamma                 89.999245
_cell_volume                      2426.74716465

loop_
_atom_site_label
_atom_site_type_symbol
_atom_site_description
_atom_site_fract_x
_atom_site_fract_y
_atom_site_fract_z
_atom_type_partial_charge
O1    O     O_R   0.312200 0.620210 0.189560 -0.575869
O2    O     O_R   0.687800 0.379790 0.810440 -0.574886
O3    O     O_R   0.187800 0.120210 0.310440 -0.575883
O4    O     O_R   0.812200 0.879790 0.689560 -0.574870
O5    O     O_R   0.171590 0.286140 0.165000 -0.588302
O6    O     O_R   0.828410 0.713860 0.835000 -0.587865
O7    O     O_R   0.328410 0.786140 0.335000 -0.588300
O8    O     O_R   0.671590 0.213860 0.665000 -0.587864
C1    C     C_R   0.145680 0.459548 0.143779 0.988806
C2    C     C_R   0.854316 0.540451 0.856226 0.990019
C3    C     C_R   0.354320 0.959548 0.356221 0.988798
C4    C     C_R   0.645684 0.040451 0.643774 0.989962
O9    O     O_R   0.310670 0.290220 0.180540 -0.575807
O10   O     O_R   0.689330 0.709780 0.819460 -0.574905
O11   O     O_R   0.189330 0.790220 0.319460 -0.575808
O12   O     O_R   0.810670 0.209780 0.680540 -0.574864
O13   O     O_R   0.327870 0.124170 0.326080 -0.583033
O14   O     O_R   0.672130 0.875830 0.673920 -0.584661
O15   O     O_R   0.172130 0.624170 0.173920 -0.583022
O16   O     O_R   0.827870 0.375830 0.826080 -0.584628
C5    C     C_R   0.330449 0.459911 0.163257 1.003841
C6    C     C_R   0.669452 0.540132 0.836615 1.000237
C7    C     C_R   0.169552 0.959915 0.336743 1.003877
C8    C     C_R   0.830550 0.040128 0.663389 1.000171
O17   O     O_3   0.255480 0.455050 0.297740 -0.239999
O18   O     O_3   0.744520 0.544950 0.702260 -0.240406
O19   O     O_3   0.244520 0.955050 0.202260 -0.240001
O20   O     O_3   0.755480 0.044950 0.797740 -0.240439
V1    V     V_3+5 0.248980 0.178550 0.241140 1.295337
V2    V     V_3+5 0.751020 0.821450 0.758860 1.295403
V3    V     V_3+5 0.251020 0.678550 0.258860 1.295342
V4    V     V_3+5 0.748980 0.321450 0.741140 1.295422
C9    C     C_R   0.930423 0.165796 0.619610 -0.061169
C10   C     C_R   0.070262 0.833417 0.381461 -0.054659
C11   C     C_R   0.569591 0.665825 0.880410 -0.061238
C12   C     C_R   0.429748 0.333431 0.118547 -0.054690
C13   C     C_R   0.877704 0.028859 0.611671 -0.310555
C14   C     C_R   0.122539 0.971465 0.388645 -0.310399
C15   C     C_R   0.622308 0.528877 0.888344 -0.310645
C16   C     C_R   0.377460 0.471453 0.111354 -0.310387
C17   C     C_R   0.872090 0.879219 0.557292 0.391437
C18   C     C_R   0.127739 0.122631 0.442409 0.373288
C19   C     C_R   0.627925 0.379240 0.942724 0.391459
C20   C     C_R   0.372251 0.622599 0.057581 0.373492
C21   C     C_R   0.920016 0.868366 0.510573 -0.120718
C22   C     C_R   0.080230 0.132752 0.489684 -0.124312
C23   C     C_R   0.580009 0.368429 0.989458 -0.120627
C24   C     C_R   0.419764 0.632729 0.010310 -0.124121
C25   C     C_R   0.974879 0.006481 0.521670 0.044327
C26   C     C_R   0.025244 0.995176 0.478513 0.055010
C27   C     C_R   0.525135 0.506513 0.978347 0.044228
C28   C     C_R   0.474759 0.495182 0.021492 0.054883
C29   C     C_R   0.979460 0.156124 0.576070 0.009114
C30   C     C_R   0.020541 0.845896 0.424004 0.002120
C31   C     C_R   0.520551 0.656147 0.923946 0.008937
C32   C     C_R   0.479465 0.345909 0.076000 0.002091
C33   C     C_R   0.915294 0.723997 0.453429 0.217466
C34   C     C_R   0.085245 0.276403 0.547156 0.214028
C35   C     C_R   0.584748 0.224115 0.046624 0.217310
C36   C     C_R   0.414748 0.776378 0.952839 0.214133
C37   C     C_R   0.965574 0.712228 0.411603 0.205864
C38   C     C_R   0.034565 0.289762 0.588555 0.202219
C39   C     C_R   0.534448 0.212296 0.088420 0.206018
C40   C     C_R   0.465438 0.789763 0.911453 0.202196
H1    H     H_    0.934340 0.276133 0.662842 0.175619
H2    H     H_    0.067302 0.719062 0.339890 0.175264
H3    H     H_    0.565671 0.776158 0.837178 0.175651
H4    H     H_    0.432728 0.219115 0.160138 0.175201
C41   C     C_1   0.583195 0.027420 0.581552 -0.226832
C42   C     C_1   0.416815 0.972581 0.418435 -0.223993
C43   C     C_1   0.916805 0.527420 0.918447 -0.226839
C44   C     C_1   0.083185 0.472581 0.081565 -0.223953
C45   C     C_1   0.530870 0.010863 0.530162 0.117415
C46   C     C_1   0.469143 0.989140 0.469821 0.118803
C47   C     C_1   0.969130 0.510863 0.969837 0.117427
C48   C     C_1   0.030857 0.489140 0.030179 0.118829
N1    N     N_R   0.818484 0.737479 0.551454 0.247080
O21   O     O_R   0.833333 0.566573 0.581670 -0.341849
O22   O     O_R   0.754187 0.789617 0.528262 -0.353762
N2    N     N_R   0.180448 0.266588 0.447050 0.248094
O23   O     O_R   0.245136 0.217154 0.468649 -0.352802
O24   O     O_R   0.164117 0.437867 0.417844 -0.362140
N3    N     N_R   0.681502 0.237419 0.948528 0.247144
O25   O     O_R   0.666593 0.066383 0.918460 -0.342023
O26   O     O_R   0.745816 0.289506 0.971576 -0.353791
N4    N     N_R   0.319538 0.766549 0.052937 0.248081
O27   O     O_R   0.254852 0.717099 0.031346 -0.352856
O28   O     O_R   0.335865 0.937841 0.082134 -0.361955
N5    N     N_R   0.856914 0.596963 0.432387 0.278962
O29   O     O_R   0.864452 0.411005 0.444899 -0.301434
O30   O     O_R   0.799448 0.662081 0.389394 -0.249753
N6    N     N_R   0.142858 0.406621 0.566819 0.281842
O31   O     O_R   0.202047 0.342239 0.606064 -0.245030
O32   O     O_R   0.133022 0.593283 0.558835 -0.316905
N7    N     N_R   0.643156 0.097184 0.067714 0.278940
O33   O     O_R   0.635607 0.911101 0.055555 -0.301328
O34   O     O_R   0.700680 0.162651 0.110453 -0.249849
N8    N     N_R   0.357126 0.906563 0.933163 0.281834
O35   O     O_R   0.297941 0.842136 0.893925 -0.245074
O36   O     O_R   0.366947 0.093235 0.941135 -0.316800
N9    N     N_R   0.957803 0.569507 0.352664 0.257006
O37   O     O_R   0.936596 0.621406 0.282063 -0.320325
O38   O     O_R   0.973495 0.388674 0.369407 -0.363019
N10   N     N_R   0.041405 0.436283 0.646149 0.249800
O39   O     O_R   0.997289 0.578425 0.637922 -0.397928
O40   O     O_R   0.094373 0.435175 0.704279 -0.275125
N11   N     N_R   0.542222 0.069606 0.147365 0.257073
O41   O     O_R   0.563725 0.121402 0.217945 -0.319880
O42   O     O_R   0.526084 0.889020 0.130661 -0.363490
N12   N     N_R   0.458598 0.936283 0.853859 0.249809
O43   O     O_R   0.502702 0.078454 0.862100 -0.397905
O44   O     O_R   0.405639 0.935148 0.795720 -0.275142

loop_
_geom_bond_atom_site_label_1
_geom_bond_atom_site_label_2
_geom_bond_distance
_ccdc_geom_bond_type
C34   C38   1.406159 A    
C4    C41   1.469246 S    
O18   V4    1.685334 S    
N9    O37   1.300850 A    
O19   V1    1.685314 S    
O13   V1    1.955467 S    
C45   C46   1.444966 S    
O3    C7    1.289625 A    
N7    O33   1.301127 A    
C1    C44   1.469245 S    
C44   C48   1.226020 T    
O15   V3    1.955465 S    
C10   H2    1.082933 S    
N10   O40   1.300921 A    
C3    C42   1.469245 S    
C9    H1    1.082172 S    
N1    O21   1.300789 A    
O1    C5    1.289625 A    
C21   C33   1.424321 A    
O5    C1    1.319693 A    
C26   C30   1.414821 A    
C33   N5    1.432888 S    
O9    V1    1.998690 S    
C14   C18   1.414084 A    
C36   N8    1.433448 S    
C17   N1    1.433235 S    
C11   C15   1.394274 A    
O4    C8    1.289593 A    
N4    O28   1.300630 A    
N8    O35   1.300998 A    
O1    V3    2.001208 S    
C19   N3    1.433260 S    
O2    V4    2.001205 S    
C18   C22   1.431171 A    
O3    V1    2.001219 S    
N12   O43   1.300413 A    
C12   C16   1.394185 A    
C40   N12   1.436349 S    
C1    O15   1.311554 A    
C2    O16   1.311556 A    
O2    C6    1.289599 A    
N11   O41   1.300817 A    
C41   C45   1.226022 T    
O14   V2    1.955466 S    
C21   C25   1.427395 A    
N5    O30   1.300985 A    
C16   C20   1.414095 A    
C38   N10   1.436351 S    
C2    C43   1.469246 S    
O11   C7    1.295408 A    
O12   C8    1.295127 A    
C22   C34   1.424514 A    
O17   V1    2.151388 S    
N11   O42   1.300270 A    
C35   N7    1.432923 S    
O10   V2    1.998687 S    
C20   N4    1.433209 S    
N10   O39   1.300413 A    
C24   C36   1.424515 A    
O5    V1    1.952450 S    
N1    O22   1.301305 A    
C9    C29   1.405207 A    
O7    V3    1.952448 S    
C11   C31   1.405206 A    
C27   C28   1.423008 A    
O8    V4    1.952451 S    
O20   V4    2.151415 S    
N2    O24   1.300624 A    
N4    O27   1.301383 A    
C15   C19   1.413235 A    
O19   V3    2.151416 S    
C9    C13   1.394261 A    
C37   N9    1.434253 S    
C47   C48   1.444966 S    
C42   C46   1.226020 T    
C12   C32   1.404487 A    
C29   C38   1.409727 A    
O7    C3    1.319694 A    
N3    O25   1.300753 A    
C11   H3    1.082172 S    
O8    C4    1.319689 A    
C31   C40   1.409731 A    
N6    O32   1.301359 A    
C8    C13   1.488666 S    
C32   C39   1.407817 A    
O9    C5    1.295405 A    
C33   C37   1.404242 A    
O6    V2    1.952453 S    
C10   C30   1.404490 A    
N8    O36   1.301368 A    
C39   N11   1.434188 S    
O16   V4    1.955464 S    
N7    O34   1.300902 A    
C3    O13   1.311555 A    
N3    O26   1.301282 A    
C10   C14   1.394176 A    
O17   V3    1.685333 S    
N2    O23   1.301383 A    
O6    C2    1.319688 A    
C23   C27   1.427403 A    
C12   H4    1.082951 S    
O11   V3    1.998659 S    
C30   C37   1.407859 A    
O12   V4    1.998662 S    
C7    C14   1.489194 S    
C22   C26   1.426679 A    
C35   C39   1.404220 A    
C36   C40   1.406165 A    
O10   C6    1.295124 A    
O20   V2    1.685314 S    
C43   C47   1.226022 T    
C5    C16   1.489197 S    
C19   C23   1.430529 A    
C25   C29   1.415537 A    
C6    C15   1.488679 S    
N6    O31   1.300992 A    
C27   C31   1.415525 A    
C13   C17   1.413214 A    
N12   O44   1.300920 A    
C23   C35   1.424333 A    
C28   C32   1.414804 A    
C24   C28   1.426670 A    
N9    O38   1.300358 A    
C25   C26   1.423001 A    
C4    O14   1.311558 A    
C18   N2    1.433207 S    
C17   C21   1.430515 A    
N5    O29   1.301197 A    
C34   N6    1.433445 S    
O4    V2    2.001222 S    
C20   C24   1.431180 A    
O18   V2    2.151389 S    
