data_mof_unit_58071.cif
_audit_creation_date              2012-12-10T17:32:56-0500
_audit_creation_method            fapswitch 2.2
_symmetry_space_group_name_H-M    P1
_symmetry_Int_Tables_number       1
_space_group_crystal_system       triclinic
_cell_length_a                    12.353466
_cell_length_b                    13.267964
_cell_length_c                    14.273143
_cell_angle_alpha                 93.287374
_cell_angle_beta                  107.637865
_cell_angle_gamma                 117.022921
_cell_volume                      1932.95725144

loop_
_atom_site_label
_atom_site_type_symbol
_atom_type_description
_atom_site_fract_x
_atom_site_fract_y
_atom_site_fract_z
_atom_type_partial_charge
C1    C     C_R   0.650822 0.714043 0.508583 0.779374
C2    C     C_R   0.881382 0.547474 0.924667 0.089819
C3    C     C_R   0.835502 0.570225 0.998723 0.170179
C4    C     C_R   0.998244 0.540663 0.954488 0.064147
C5    C     C_R   0.058184 0.541984 0.056996 0.066127
C6    C     C_R   0.011433 0.567770 0.129042 -0.225558
C7    C     C_R   0.902943 0.582817 0.100196 -0.235319
C8    C     C_R   0.058104 0.534199 0.885671 -0.228141
C9    C     C_R   0.167840 0.520920 0.914870 -0.232035
C10   C     C_R   0.220075 0.510996 0.012707 0.165719
C11   C     C_R   0.164511 0.519594 0.084288 0.088715
C12   C     C_R   0.619736 0.518585 0.686834 0.797561
C13   C     C_R   0.327635 0.492541 0.039890 -0.200308
C14   C     C_R   0.380315 0.481743 0.137433 -0.200767
C15   C     C_R   0.215313 0.502618 0.180315 -0.248774
C16   C     C_R   0.139561 0.966652 0.362651 -0.189744
C17   C     C_R   0.248907 0.162350 0.463091 -0.050511
C18   C     C_R   0.730464 0.921054 0.573950 -0.186854
C19   C     C_R   0.820649 0.037953 0.592705 -0.143741
C20   C     C_R   0.921513 0.072594 0.556454 -0.182439
C21   C     C_R   0.931381 0.990168 0.496870 0.079682
C22   C     C_R   0.829840 0.872727 0.467577 0.082331
C23   C     C_R   0.345222 0.285289 0.484949 0.804616
C24   C     C_R   0.037999 0.020640 0.464552 0.073935
C25   C     C_R   0.034846 0.937213 0.395243 0.168082
C26   C     C_R   0.926133 0.826214 0.357617 -0.240516
C27   C     C_R   0.824348 0.794714 0.392207 -0.199147
C28   C     C_R   0.148782 0.131455 0.500196 -0.253505
C29   C     C_R   0.245901 0.079183 0.395881 -0.193908
C30   C     C_R   0.735740 0.837212 0.513754 -0.102501
C31   C     C_R   0.253843 0.685126 0.661615 -0.305285
C32   C     C_R   0.654787 0.342249 0.363728 0.067951
C33   C     C_R   0.732547 0.307934 0.333520 -0.251780
C34   C     C_R   0.382603 0.484691 0.313485 0.792284
C35   C     C_R   0.867881 0.367305 0.384577 -0.195429
C36   C     C_R   0.927866 0.462587 0.467151 -0.007420
C37   C     C_R   0.843813 0.494847 0.495302 0.290898
C38   C     C_R   0.067455 0.526832 0.522824 -0.037290
C39   C     C_R   0.119020 0.621133 0.605171 0.177577
C40   C     C_R   0.036031 0.651438 0.630965 -0.297799
C41   C     C_R   0.902051 0.590080 0.577365 -0.195612
C42   C     C_R   0.159327 0.502265 0.501084 0.013071
C43   C     C_R   0.338296 0.656478 0.636524 0.062676
C44   C     C_R   0.691988 0.536019 0.794482 -0.051459
C45   C     C_R   0.324229 0.486971 0.208120 -0.051172
C46   C     C_R   0.721665 0.579193 0.970354 -0.202509
C47   C     C_R   0.650728 0.562959 0.868796 -0.196255
C48   C     C_R   0.805798 0.527753 0.822769 -0.262247
Cu1   Cu    Cu3+1 0.416420 0.526630 0.522910 0.931523
Cu2   Cu    Cu3+1 0.583580 0.473370 0.477090 0.920751
H1    H     H_    0.870074 0.602106 0.157661 0.137355
H2    H     H_    0.371573 0.487343 0.985877 0.130805
H3    H     H_    0.322851 0.102240 0.366105 0.148458
H4    H     H_    0.919868 0.763208 0.301422 0.137819
H5    H     H_    0.137487 0.903499 0.309444 0.137861
H6    H     H_    0.159708 0.196477 0.556624 0.147348
H7    H     H_    0.657988 0.896113 0.608601 0.152573
H8    H     H_    0.988072 0.164795 0.574406 0.129839
H9    H     H_    0.814762 0.102010 0.638307 0.144879
H10   H     H_    0.740085 0.709334 0.356791 0.172994
H11   H     H_    0.442310 0.705776 0.679986 0.120164
H12   H     H_    0.170159 0.499222 0.234674 0.149098
H13   H     H_    0.293764 0.757119 0.724911 0.139906
H14   H     H_    0.128594 0.432169 0.439735 0.121784
H15   H     H_    0.549976 0.295463 0.323456 0.123806
H16   H     H_    0.923092 0.336842 0.357977 0.136387
H17   H     H_    0.687642 0.234857 0.270183 0.146690
H18   H     H_    0.847760 0.620646 0.603469 0.207811
H19   H     H_    0.465234 0.470299 0.157646 0.151565
H20   H     H_    0.210901 0.516691 0.859923 0.146796
H21   H     H_    0.686966 0.597854 0.026735 0.130211
H22   H     H_    0.563097 0.570226 0.848504 0.149993
H23   H     H_    0.831559 0.502206 0.763607 0.157545
H24   H     H_    0.058949 0.580459 0.209136 0.146381
H25   H     H_    0.024957 0.542815 0.809119 0.154028
N1    N     N_R   0.290690 0.566960 0.557640 -0.176640
N2    N     N_R   0.709100 0.433710 0.442970 -0.204987
O1    O     O_R   0.545970 0.684450 0.528810 -0.577885
O2    O     O_R   0.687130 0.639470 0.490120 -0.603258
O3    O     O_R   0.519670 0.535100 0.660030 -0.584826
O4    O     O_R   0.660830 0.490120 0.621340 -0.599595
O5    O     O_R   0.312870 0.360530 0.509880 -0.585785
O6    O     O_R   0.454030 0.315550 0.471190 -0.583828
O7    O     O_R   0.339170 0.509880 0.378660 -0.585000
O8    O     O_R   0.480330 0.464900 0.339970 -0.596297
H26   H     H_    0.075157 0.723720 0.693856 0.157011

loop_
_geom_bond_atom_site_label_1
_geom_bond_atom_site_label_2
_ccdc_geom_bond_type
C23   O5    A    
C17   C29   A    
C35   C36   A    
C4    C8    A    
Cu2   O2    S    
C28   H6    S    
C43   H11   S    
C26   C27   A    
C17   C23   S    
C31   C43   A    
Cu1   O7    S    
C36   C37   A    
C5    C11   A    
C3    C7    A    
C27   H10   S    
C5    C6    A    
C16   C25   A    
Cu1   O1    S    
C18   C19   A    
C40   H26   S    
Cu2   O8    S    
C32   N2    A    
C11   C15   A    
C19   C20   A    
C8    C9    A    
C18   C30   A    
C41   H18   S    
C9    C10   A    
C44   C47   A    
C21   C22   A    
C1    O1    A    
C34   O7    A    
C26   H4    S    
Cu2   O6    S    
C6    H24   S    
C14   C45   A    
C31   H13   S    
C24   C25   A    
C39   C40   A    
C35   H16   S    
C2    C48   A    
C16   C29   A    
C37   N2    A    
C8    H25   S    
C34   O8    A    
Cu1   O5    S    
C2    C4    A    
C13   H2    S    
C18   H7    S    
Cu1   N1    S    
C34   C45   S    
C9    H20   S    
C46   H21   S    
C23   O6    A    
C40   C41   A    
C22   C27   A    
C1    O2    A    
C14   H19   S    
C15   C45   A    
C20   H8    S    
Cu2   N2    S    
C42   H14   S    
C33   H17   S    
C43   N1    A    
C46   C47   A    
C22   C30   A    
C17   C28   A    
C48   H23   S    
C24   C28   A    
C4    C5    A    
C10   C13   A    
C38   C42   A    
C6    C7    A    
C3    C46   A    
C42   N1    A    
Cu1   O3    S    
C19   H9    S    
C32   C33   A    
C36   C38   A    
C2    C3    A    
C25   C26   A    
C16   H5    S    
C7    H1    S    
C12   C44   S    
C38   C39   A    
C29   H3    S    
C12   O3    A    
C1    C30   S    
C33   C35   A    
C15   H12   S    
C31   C39   A    
C12   O4    A    
C37   C41   A    
C47   H22   S    
C10   C11   A    
C20   C21   A    
Cu1   Cu2   S    
C21   C24   A    
C13   C14   A    
C44   C48   A    
Cu2   O4    S    
C32   H15   S    
