data_mof_unit_44945.cif
_audit_creation_date              2012-12-11T17:45:28-0500
_audit_creation_method            fapswitch 2.2
_symmetry_space_group_name_H-M    P1
_symmetry_Int_Tables_number       1
_space_group_crystal_system       triclinic
_cell_length_a                    14.947334
_cell_length_b                    14.928404
_cell_length_c                    15.063524
_cell_angle_alpha                 110.359321
_cell_angle_beta                  108.901445
_cell_angle_gamma                 108.655272
_cell_volume                      2602.77057173

loop_
_atom_site_label
_atom_site_type_symbol
_atom_type_description
_atom_site_fract_x
_atom_site_fract_y
_atom_site_fract_z
_atom_type_partial_charge
C1    C     C_R   0.914368 0.198059 0.000050 -0.150871
C2    C     C_R   0.685911 0.244303 0.776582 -0.141261
C3    C     C_R   0.790856 0.590890 0.097812 -0.144587
C4    C     C_R   0.297545 0.801762 0.206844 -0.154069
C5    C     C_R   0.006388 0.407742 0.702649 -0.159142
C6    C     C_R   0.700643 0.499913 0.070747 -0.015568
C7    C     C_R   0.062664 0.497318 0.697787 0.062923
C8    C     C_R   0.678442 0.217886 0.675565 0.042783
C9    C     C_R   0.941100 0.767532 0.944274 0.056623
C10   C     C_R   0.697579 0.264518 0.181721 -0.118680
C11   C     C_R   0.796591 0.343414 0.275902 -0.121425
C12   C     C_R   0.301094 0.862624 0.301198 0.057415
C13   C     C_R   0.874381 0.314006 0.316845 0.116589
C14   C     C_R   0.849599 0.203944 0.265259 -0.192535
C15   C     C_R   0.750504 0.125831 0.170677 -0.138664
C16   C     C_R   0.223191 0.408021 0.976225 -0.144194
C17   C     C_R   0.675021 0.156234 0.128557 -0.102090
C18   C     C_R   0.998470 0.398265 0.507409 -0.238012
C19   C     C_R   0.080963 0.489968 0.607415 0.061958
C20   C     C_R   0.162577 0.576588 0.613349 0.027904
C21   C     C_R   0.151677 0.572178 0.516211 -0.248157
C22   C     C_R   0.059759 0.487270 0.417441 0.073059
C23   C     C_R   0.324628 0.499604 0.052713 -0.007226
C24   C     C_R   0.982217 0.398642 0.413072 0.015422
C25   C     C_R   0.276618 0.780575 0.734960 -0.161113
C26   C     C_R   0.349993 0.872617 0.838304 -0.108699
C27   C     C_R   0.398654 0.860008 0.926024 -0.092305
C28   C     C_R   0.058077 0.590143 0.314272 -0.138260
C29   C     C_R   0.377274 0.755868 0.909709 -0.110472
C30   C     C_R   0.309055 0.664133 0.805610 -0.172000
C31   C     C_R   0.253447 0.674928 0.718083 0.119138
C32   C     C_R   0.124883 0.042327 0.311161 -0.113840
C33   C     C_R   0.221578 0.038690 0.334077 -0.134114
C34   C     C_R   0.040652 0.496057 0.321358 0.042266
C35   C     C_R   0.286502 0.055158 0.436001 0.121621
C36   C     C_R   0.253385 0.076536 0.514916 -0.179157
C37   C     C_R   0.156332 0.079905 0.491505 -0.112975
C38   C     C_R   0.092069 0.062661 0.389663 -0.092912
C39   C     C_R   0.485014 0.136342 0.553484 -0.248817
C40   C     C_R   0.313105 0.591356 0.066953 -0.134555
C41   C     C_R   0.582836 0.135257 0.573213 0.072399
C42   C     C_R   0.587010 0.050512 0.497486 0.018354
C43   C     C_R   0.492898 0.967488 0.405643 -0.240499
C44   C     C_R   0.394459 0.964549 0.388373 0.060986
C45   C     C_R   0.701376 0.409116 0.005865 -0.136694
C46   C     C_R   0.389071 0.050930 0.459687 0.020477
C47   C     C_R   0.731649 0.048119 0.449237 -0.189930
C48   C     C_R   0.824959 0.038441 0.466755 -0.121568
C49   C     C_R   0.870529 0.016654 0.548195 -0.102088
C50   C     C_R   0.822337 0.003775 0.611725 -0.122049
C51   C     C_R   0.729371 0.013766 0.594833 -0.119088
C52   C     C_R   0.977051 0.407236 0.218338 -0.108424
C53   C     C_R   0.684443 0.037685 0.514547 0.112262
C54   C     C_3   0.532418 0.487187 0.966487 -0.386767
C55   C     C_3   0.434112 0.496874 0.965774 -0.402641
C56   C     C_R   0.089087 0.589633 0.788140 -0.141196
C57   C     C_3   0.537405 0.402612 0.085255 -0.418752
C58   C     C_3   0.631847 0.606531 0.172086 -0.407586
C59   C     C_3   0.603476 0.499277 0.075161 0.404364
C60   C     C_3   0.426860 0.499522 0.066818 0.394720
C61   C     C_3   0.428419 0.397615 0.070387 -0.411171
C62   C     C_3   0.527710 0.602495 0.172226 -0.387466
C63   C     C_R   0.159551 0.024314 0.747028 -0.107483
C64   C     C_R   0.209805 0.802087 0.301759 -0.125770
C65   C     C_R   0.063663 0.987691 0.751964 -0.188546
C66   C     C_R   0.066744 0.021392 0.852931 0.113886
C67   C     C_R   0.781226 0.255751 0.688393 -0.107093
C68   C     C_R   0.167405 0.087947 0.948616 -0.127452
C69   C     C_R   0.263181 0.120168 0.943188 -0.153272
C70   C     C_R   0.259345 0.090384 0.842652 -0.110170
C71   C     C_R   0.941479 0.862025 0.840191 -0.222065
C72   C     C_R   0.896124 0.825064 0.896920 0.053897
C73   C     C_R   0.836894 0.871584 0.931988 0.022537
C74   C     C_R   0.844230 0.965446 0.929502 -0.231940
C75   C     C_R   0.921010 0.022235 0.907953 0.050230
C76   C     C_R   0.005248 0.199497 0.908791 -0.139720
C77   C     C_R   0.969092 0.967620 0.859424 0.003669
C78   C     C_R   0.928145 0.743261 0.022149 -0.142716
C79   C     C_R   0.662186 0.746146 0.902822 -0.140492
C80   C     C_R   0.590059 0.721833 0.941426 -0.117171
C81   C     C_R   0.625113 0.778902 0.052641 -0.094534
C82   C     C_R   0.732338 0.860854 0.125424 -0.153172
C83   C     C_R   0.803543 0.888823 0.086497 -0.198214
C84   C     C_R   0.768932 0.830374 0.975075 0.120484
C85   C     C_R   0.951042 0.137293 0.942475 0.059802
C86   C     C_R   0.021838 0.745124 0.932814 -0.119388
H1    H     H_    0.856344 0.170021 0.025281 0.103208
H2    H     H_    0.813813 0.427606 0.315394 0.107552
H3    H     H_    0.349911 0.829423 0.175597 0.094060
H4    H     H_    0.908175 0.179595 0.296255 0.112540
H5    H     H_    0.732359 0.042010 0.128867 0.138675
H6    H     H_    0.935009 0.332113 0.501929 0.130446
H7    H     H_    0.211749 0.637863 0.517760 0.128177
H8    H     H_    0.234574 0.791663 0.669523 0.108582
H9    H     H_    0.366327 0.953391 0.851090 0.108791
H10   H     H_    0.451586 0.930532 0.006928 0.097888
H11   H     H_    0.411366 0.745741 0.978140 0.095840
H12   H     H_    0.138524 0.674005 0.814106 0.120971
H13   H     H_    0.292950 0.583961 0.795007 0.112274
H14   H     H_    0.017106 0.065432 0.371682 0.087740
H15   H     H_    0.203568 0.323246 0.940374 0.109358
H16   H     H_    0.075863 0.029851 0.232591 0.106731
H17   H     H_    0.246085 0.023539 0.272485 0.111416
H18   H     H_    0.301912 0.089295 0.593919 0.103842
H19   H     H_    0.130920 0.095900 0.552314 0.101785
H20   H     H_    0.483898 0.203535 0.611236 0.129964
H21   H     H_    0.496129 0.899517 0.351385 0.130610
H22   H     H_    0.697301 0.065674 0.386337 0.123537
H23   H     H_    0.804239 0.249941 0.626569 0.114166
H24   H     H_    0.862138 0.048268 0.417524 0.098581
H25   H     H_    0.856727 0.986353 0.674374 0.114008
H26   H     H_    0.103519 0.674056 0.380008 0.096770
H27   H     H_    0.693193 0.004341 0.645006 0.113977
H28   H     H_    0.504587 0.405879 0.897744 0.152861
H29   H     H_    0.579639 0.549677 0.952417 0.172257
H30   H     H_    0.438704 0.571957 0.964669 0.150225
H31   H     H_    0.360287 0.426387 0.889365 0.155898
H32   H     H_    0.520202 0.322793 0.023261 0.139878
H33   H     H_    0.363018 0.323435 0.992234 0.168521
H34   H     H_    0.872748 0.748362 0.051705 0.125472
H35   H     H_    0.687288 0.617942 0.250181 0.151696
H36   H     H_    0.674036 0.678500 0.166295 0.166029
H37   H     H_    0.529578 0.679787 0.180628 0.139167
H38   H     H_    0.375317 0.675934 0.113971 0.084493
H39   H     H_    0.526544 0.599297 0.244577 0.161668
H40   H     H_    0.584035 0.415163 0.166932 0.157510
H41   H     H_    0.414591 0.391542 0.136828 0.155830
H42   H     H_    0.333738 0.116761 0.838836 0.090550
H43   H     H_    0.156667 0.998530 0.669063 0.100662
H44   H     H_    0.987602 0.930050 0.677364 0.108302
H45   H     H_    0.055861 0.756254 0.882199 0.096828
H46   H     H_    0.171703 0.110055 0.027013 0.111447
H47   H     H_    0.340547 0.167859 0.017088 0.115167
H48   H     H_    0.976477 0.820543 0.800508 0.127901
H49   H     H_    0.796717 0.998469 0.955228 0.128892
H50   H     H_    0.953276 0.322987 0.194295 0.118498
H51   H     H_    0.507112 0.658348 0.884435 0.113945
H52   H     H_    0.569642 0.760326 0.083017 0.091367
H53   H     H_    0.759051 0.905405 0.211266 0.113300
H54   H     H_    0.183233 0.829421 0.359788 0.102577
H55   H     H_    0.026285 0.171961 0.846162 0.109663
H56   H     H_    0.620466 0.223972 0.794907 0.096486
H57   H     H_    0.646968 0.324362 0.975083 0.084340
H58   H     H_    0.819674 0.675449 0.153961 0.098947
H59   H     H_    0.942972 0.009605 0.561714 0.098208
H60   H     H_    0.633639 0.703123 0.816350 0.113389
H61   H     H_    0.884715 0.957052 0.142413 0.111826
H62   H     H_    0.986295 0.323993 0.653743 0.103451
H63   H     H_    0.599149 0.096070 0.054499 0.097975
H64   H     H_    0.638507 0.287020 0.148995 0.096180
N1    N     N_R   0.947080 0.293830 0.002870 -0.040390
N2    N     N_R   0.153670 0.443180 0.946090 -0.037376
N3    N     N_R   0.002360 0.556820 0.208890 -0.040580
N4    N     N_R   0.210070 0.556820 0.002870 -0.035504
N5    N     N_R   0.945960 0.443180 0.152110 -0.041110
N6    N     N_R   0.151710 0.706170 0.208890 -0.039868
N7    N     N_R   0.004320 0.293830 0.946090 -0.038265
N8    N     N_R   0.789930 0.443180 0.997130 -0.032584
N9    N     N_R   0.054040 0.556820 0.847890 -0.040595
N10   N     N_R   0.848290 0.293830 0.791110 -0.042653
N11   N     N_R   0.995680 0.706170 0.053910 -0.042147
N12   N     N_R   0.052920 0.706170 0.997130 -0.042197
N13   N     N_R   0.791050 0.293830 0.847890 -0.040572
N14   N     N_R   0.846330 0.556820 0.053910 -0.036804
N15   N     N_R   0.997640 0.443180 0.791110 -0.039187
N16   N     N_R   0.208950 0.706170 0.152110 -0.035728
Ni1   Ni    Ni4+2 0.869690 0.369690 0.000000 0.215976
Ni2   Ni    Ni4+2 0.130310 0.630310 0.000000 0.212387
Ni3   Ni    Ni4+2 0.000970 0.369690 0.869780 0.215069
Ni4   Ni    Ni4+2 0.999030 0.630310 0.130220 0.214286

loop_
_geom_bond_atom_site_label_1
_geom_bond_atom_site_label_2
_ccdc_geom_bond_type
C25   C31   A    
C39   H20   S    
C66   C68   A    
C63   C65   A    
C58   C62   S    
C6    C45   A    
C61   H33   S    
C41   C42   A    
N14   Ni4   S    
C35   C36   A    
C9    C72   S    
C56   H12   S    
C3    C6    A    
N4    Ni2   S    
C71   H48   S    
N11   N12   A    
C39   C41   A    
C28   H26   S    
C52   N5    A    
C26   C27   A    
C29   C30   A    
C18   C24   A    
N1    N7    A    
C22   C24   A    
C36   C37   A    
N13   Ni1   S    
C56   N9    A    
C32   C38   A    
C42   C53   S    
C64   H54   S    
C30   C31   A    
C12   C64   A    
C86   H45   S    
C57   C59   S    
C27   C29   A    
C55   H30   S    
C10   C17   A    
C23   C40   A    
N9    Ni2   S    
C60   C62   S    
C18   C19   A    
C73   C74   A    
C1    H1    S    
C68   H46   S    
C14   H4    S    
N7    Ni3   S    
C75   C85   S    
C83   C84   A    
N5    Ni1   S    
C68   C69   A    
N3    Ni4   S    
N10   Ni3   S    
C67   N10   A    
C86   N12   A    
C5    N15   A    
C4    C12   A    
C73   C84   S    
N8    N14   A    
C47   C53   A    
C55   C60   S    
C76   H55   S    
C28   C34   A    
C25   H8    S    
C5    H62   S    
C21   C22   A    
C74   H49   S    
N16   Ni2   S    
C40   N4    A    
C27   H10   S    
C81   H52   S    
C7    C56   A    
C40   H38   S    
C62   H37   S    
C44   C46   A    
N8    Ni1   S    
C81   C82   A    
C79   H60   S    
C54   C59   S    
N15   Ni3   S    
C23   C60   S    
C22   C34   S    
C17   H63   S    
C76   N7    A    
C58   H36   S    
C74   C75   A    
C3    H58   S    
N10   N13   A    
C8    C41   S    
C38   H14   S    
C57   H40   S    
C5    C7    A    
C72   C73   A    
C52   H50   S    
C25   C26   A    
C30   H13   S    
C82   C83   A    
N9    N15   A    
C13   C24   S    
C60   C61   S    
C51   C53   A    
C78   H34   S    
C43   C44   A    
C37   H19   S    
C37   C38   A    
C9    C86   A    
C47   C48   A    
C63   C70   A    
N6    N16   A    
C11   H2    S    
C54   H29   S    
C82   H53   S    
C50   C51   A    
C49   H59   S    
C16   N2    A    
C43   H21   S    
C75   C77   A    
C3    N14   A    
C8    C67   A    
C39   C46   A    
C83   H61   S    
N11   Ni4   S    
C48   C49   A    
N2    N4    A    
C47   H22   S    
C16   C23   A    
C7    C19   S    
C28   N3    A    
C2    H56   S    
C49   C50   A    
N12   Ni2   S    
C1    C85   A    
N3    N5    A    
C42   C43   A    
C71   C77   A    
C4    H3    S    
C55   H31   S    
C70   H42   S    
C26   H9    S    
C15   C17   A    
C66   C77   S    
C54   C55   S    
C58   H35   S    
C69   H47   S    
C33   H17   S    
C6    C59   S    
C51   H27   S    
C2    C8    A    
C45   N8    A    
C80   C81   A    
C2    N13   A    
C62   H39   S    
C57   C61   S    
C61   H41   S    
C64   N6    A    
C34   C52   A    
C29   H11   S    
C36   H18   S    
C18   H6    S    
C32   C33   A    
C19   C20   A    
C58   C59   S    
C71   C72   A    
C12   C44   S    
C10   H64   S    
N2    Ni3   S    
C11   C13   A    
C67   H23   S    
C79   C84   A    
C21   H7    S    
N1    Ni1   S    
C54   H28   S    
N6    Ni4   S    
C50   H25   S    
C33   C35   A    
C4    N16   A    
C1    N1    A    
C32   H16   S    
C9    C78   A    
C63   H43   S    
C69   C70   A    
C10   C11   A    
C15   H5    S    
C79   C80   A    
C16   H15   S    
C20   C21   A    
C78   N11   A    
C65   C66   A    
C65   H44   S    
C45   H57   S    
C14   C15   A    
C48   H24   S    
C13   C14   A    
C35   C46   S    
C76   C85   A    
C80   H51   S    
C57   H32   S    
C20   C31   S    
