data_mof_unit_59717.cif
_audit_creation_date              2012-10-26T20:21:29-0400
_audit_creation_method            fapswitch 2.2
_symmetry_space_group_name_H-M    P1
_symmetry_Int_Tables_number       1
_space_group_crystal_system       triclinic
_cell_length_a                    10.918696
_cell_length_b                    9.545577
_cell_length_c                    11.694875
_cell_angle_alpha                 90.024851
_cell_angle_beta                  90.702565
_cell_angle_gamma                 89.908948
_cell_volume                      1218.80803196

loop_
_atom_site_label
_atom_site_type_symbol
_atom_type_description
_atom_site_fract_x
_atom_site_fract_y
_atom_site_fract_z
_atom_type_partial_charge
C1    C     C_R   0.262485 0.500521 0.498514 0.542879
C2    C     C_R   0.938049 0.628552 0.508721 0.219528
C3    C     C_R   0.939322 0.375518 0.476306 0.206941
C4    C     C_R   0.064246 0.624213 0.526363 0.203729
C5    C     C_R   0.872727 0.500838 0.495462 -0.093837
C6    C     C_R   0.129105 0.502430 0.495778 -0.093140
C7    C     C_R   0.438939 0.074046 0.416866 0.457175
C8    C     C_R   0.561542 0.925637 0.582936 0.422378
C9    C     C_R   0.558486 0.073851 0.584787 0.405809
C10   C     C_R   0.437108 0.925762 0.417937 0.447165
C11   C     C_3   0.141936 0.313435 0.288234 0.075321
C12   C     C_R   0.738168 0.499999 0.498502 0.552289
C13   C     C_3   0.117212 0.188090 0.210369 -0.227069
C14   C     C_3   0.156770 0.216945 0.087884 -0.472675
C15   C     C_3   0.853133 0.796941 0.392496 0.043131
C16   C     C_3   0.965015 0.852845 0.328691 -0.261984
C17   C     C_3   0.932515 0.881953 0.203559 -0.489408
C18   C     C_3   0.864922 0.181891 0.567157 0.057676
C19   C     C_3   0.982265 0.122982 0.622506 -0.271600
C20   C     C_3   0.951756 0.049890 0.734837 -0.448715
C21   C     C_3   0.146299 0.738515 0.679532 0.029485
C22   C     C_3   0.244071 0.846341 0.712163 -0.248574
C23   C     C_R   0.499553 0.499972 0.283995 0.527240
C24   C     C_3   0.269520 0.847257 0.840785 -0.463692
C25   C     C_R   0.499675 0.500039 0.715992 0.539580
C26   C     C_1   0.498803 0.499914 0.162336 0.001426
C27   C     C_1   0.498966 0.500092 0.837630 0.007074
C28   C     C_1   0.498414 0.499953 0.059854 -0.029864
C29   C     C_1   0.498500 0.500049 0.940101 -0.030152
C30   C     C_R   0.064641 0.383275 0.459192 0.203628
Cu1   Cu    Cu3+1 0.500000 0.640660 0.500000 1.089248
Cu2   Cu    Cu3+1 0.500000 0.359340 0.500000 1.093464
F1    F     F_    0.378552 0.142668 0.332341 -0.606519
F2    F     F_    0.625969 0.856641 0.665154 -0.577227
F3    F     F_    0.614523 0.142000 0.672387 -0.619355
F4    F     F_    0.371415 0.856845 0.336608 -0.585398
H1    H     H_    0.238613 0.347377 0.279514 0.196684
H2    H     H_    0.998159 0.950652 0.370089 0.210818
H3    H     H_    0.040277 0.774613 0.330706 0.196801
H4    H     H_    0.896113 0.785882 0.161727 0.152059
H5    H     H_    0.015753 0.914466 0.157085 0.153744
H6    H     H_    0.862777 0.966540 0.197242 0.166207
H7    H     H_    0.802364 0.092429 0.551665 0.201583
H8    H     H_    0.819916 0.253919 0.628770 0.186108
H9    H     H_    0.026479 0.047342 0.563743 0.224257
H10   H     H_    0.047667 0.208969 0.641772 0.156502
H11   H     H_    0.899953 0.121413 0.791608 0.170448
H12   H     H_    0.082267 0.401481 0.257370 0.082249
H13   H     H_    0.037018 0.019549 0.780616 0.127932
H14   H     H_    0.896097 0.954621 0.717905 0.226453
H15   H     H_    0.180342 0.633349 0.707359 0.102676
H16   H     H_    0.060133 0.762115 0.725533 0.146336
H17   H     H_    0.330135 0.820678 0.667559 0.210751
H18   H     H_    0.214889 0.952404 0.683941 0.163417
H19   H     H_    0.184944 0.872909 0.888278 0.135688
H20   H     H_    0.340093 0.927357 0.861263 0.185356
H21   H     H_    0.304112 0.743275 0.869129 0.159871
H22   H     H_    0.166852 0.094442 0.243217 0.247464
H23   H     H_    0.017467 0.165707 0.210640 0.163450
H24   H     H_    0.106667 0.308955 0.052619 0.137955
H25   H     H_    0.135980 0.124358 0.033511 0.145200
H26   H     H_    0.256859 0.237332 0.085317 0.186144
H27   H     H_    0.782847 0.881174 0.394917 0.155790
H28   H     H_    0.811389 0.709052 0.342841 0.123285
N1    N     N_R   0.500000 0.852070 0.500000 -0.311372
N2    N     N_R   0.500000 0.147930 0.500000 -0.287942
O1    O     O_R   0.319640 0.618740 0.499990 -0.445950
O2    O     O_3   0.881479 0.758741 0.507321 -0.508365
O3    O     O_3   0.883678 0.246884 0.459800 -0.541311
O4    O     O_3   0.124296 0.745114 0.560240 -0.514892
O5    O     O_R   0.680360 0.381260 0.500010 -0.468979
O6    O     O_R   0.680360 0.618740 0.500010 -0.451428
O7    O     O_R   0.319640 0.381260 0.499990 -0.460388
O8    O     O_R   0.500010 0.618790 0.337200 -0.459008
O9    O     O_R   0.499990 0.381210 0.662800 -0.448315
O10   O     O_R   0.499990 0.618790 0.662800 -0.464090
O11   O     O_R   0.500010 0.381210 0.337200 -0.454456
O12   O     O_3   0.121731 0.273828 0.403484 -0.504691

loop_
_geom_bond_atom_site_label_1
_geom_bond_atom_site_label_2
_ccdc_geom_bond_type
C8    C9    A    
C7    C10   A    
C27   C29   T    
C19   C20   S    
Cu2   O9    S    
C4    O4    S    
C19   H10   S    
C22   H18   S    
C24   H19   S    
Cu1   O1    S    
C28   C29   S    
C3    O3    S    
C2    O2    S    
C15   C16   S    
C14   H26   S    
C18   C19   S    
C23   C26   S    
C11   H1    S    
C9    N2    A    
C20   H14   S    
Cu2   O11   S    
C17   H6    S    
C24   H21   S    
C15   H28   S    
C22   H17   S    
C18   O3    S    
C12   O6    A    
C8    N1    A    
C13   C14   S    
C7    F1    S    
C11   H12   S    
Cu2   O5    S    
C1    C6    S    
C5    C12   S    
C4    C6    A    
Cu2   O7    S    
C16   C17   S    
Cu1   O8    S    
C13   H22   S    
C14   H25   S    
C25   O9    A    
C17   H4    S    
C3    C30   A    
C2    C4    A    
C20   H13   S    
C11   O12   S    
C18   H8    S    
Cu1   Cu2   S    
C8    F2    S    
C23   O11   A    
Cu1   O6    S    
C6    C30   A    
C12   O5    A    
C22   C24   S    
C2    C5    A    
C24   H20   S    
C23   O8    A    
C21   H15   S    
Cu2   N2    S    
C10   N1    A    
Cu1   N1    S    
C3    C5    A    
C19   H9    S    
C13   H23   S    
C25   C27   S    
C14   H24   S    
C26   C28   T    
C21   O4    S    
C25   O10   A    
C1    O7    A    
C18   H7    S    
C7    N2    A    
C11   C13   S    
Cu1   O10   S    
C15   O2    S    
C1    O1    A    
C17   H5    S    
C20   H11   S    
C16   H3    S    
C30   O12   S    
C9    F3    S    
C15   H27   S    
C10   F4    S    
C21   C22   S    
C21   H16   S    
C16   H2    S    
