data_mof_unit_7570.cif
_audit_creation_date              2012-12-10T18:11:09-0500
_audit_creation_method            fapswitch 2.2
_symmetry_space_group_name_H-M    P1
_symmetry_Int_Tables_number       1
_space_group_crystal_system       triclinic
_cell_length_a                    10.720756
_cell_length_b                    9.497943
_cell_length_c                    10.615496
_cell_angle_alpha                 90.154934
_cell_angle_beta                  91.996325
_cell_angle_gamma                 89.978934
_cell_volume                      1080.26421144

loop_
_atom_site_label
_atom_site_type_symbol
_atom_type_description
_atom_site_fract_x
_atom_site_fract_y
_atom_site_fract_z
_atom_type_partial_charge
C1    C     C_R   0.259958 0.499992 0.494983 0.745748
C2    C     C_3   0.499584 0.499238 0.122605 0.011936
C3    C     C_3   0.068968 0.631562 0.422514 -0.375798
C4    C     C_3   0.077444 0.501534 0.629737 -0.392016
C5    C     C_3   0.925422 0.631529 0.423129 -0.379591
C6    C     C_3   0.933774 0.501480 0.630351 -0.361820
C7    C     C_3   0.069122 0.366696 0.424393 -0.375838
C8    C     C_3   0.121912 0.499959 0.492675 0.170850
C9    C     C_3   0.877972 0.499926 0.493698 0.155597
C10   C     C_3   0.925603 0.366769 0.424892 -0.379432
C11   C     C_3   0.588037 0.082888 0.411338 -0.195006
C12   C     C_3   0.588611 0.916522 0.411913 -0.197250
C13   C     C_3   0.537386 0.084219 0.629775 0.156337
C14   C     C_3   0.536732 0.916391 0.629989 0.156222
C15   C     C_3   0.375368 0.083199 0.468352 -0.264626
C16   C     C_3   0.375499 0.916723 0.467777 -0.263340
C17   C     C_R   0.499634 0.499754 0.259568 0.771208
C18   C     C_R   0.739769 0.499968 0.496497 0.791779
C19   C     C_R   0.499602 0.500330 0.740561 0.832054
C20   C     C_3   0.391946 0.555734 0.038578 -0.189014
C21   C     C_3   0.510642 0.366875 0.040724 -0.130287
C22   C     C_3   0.402957 0.423457 0.954383 -0.178801
C23   C     C_3   0.499565 0.501315 0.877632 0.024607
C24   C     C_3   0.488478 0.633767 0.959532 -0.119959
C25   C     C_3   0.607194 0.445055 0.961818 -0.141974
C26   C     C_3   0.596096 0.577249 0.045927 -0.162694
Cu1   Cu    Cu3+1 0.499860 0.642410 0.500060 0.920733
Cu2   Cu    Cu3+1 0.499860 0.357590 0.500060 0.920213
H1    H     H_    0.323979 0.360683 0.913658 0.123321
H2    H     H_    0.886826 0.363760 0.326267 0.149010
H3    H     H_    0.894024 0.269632 0.472740 0.193653
H4    H     H_    0.684258 0.121605 0.432041 0.170526
H5    H     H_    0.684912 0.878908 0.434082 0.169788
H6    H     H_    0.562662 0.119998 0.314572 0.142357
H7    H     H_    0.564577 0.877886 0.315163 0.148075
H8    H     H_    0.305686 0.120202 0.536208 0.145857
H9    H     H_    0.305312 0.879524 0.534804 0.146674
H10   H     H_    0.343245 0.122594 0.374072 0.159784
H11   H     H_    0.344162 0.877500 0.373009 0.159391
H12   H     H_    0.467053 0.118422 0.698229 0.098223
H13   H     H_    0.465288 0.883602 0.697634 0.088485
H14   H     H_    0.303958 0.600893 0.073298 0.120766
H15   H     H_    0.519815 0.257453 0.076415 0.133322
H16   H     H_    0.479211 0.743201 0.923945 0.145010
H17   H     H_    0.696119 0.401223 0.928446 0.156419
H18   H     H_    0.675093 0.640083 0.086543 0.129886
H19   H     H_    0.100172 0.632324 0.323592 0.147343
H20   H     H_    0.114254 0.407676 0.681524 0.157963
H21   H     H_    0.104149 0.729784 0.468811 0.170160
H22   H     H_    0.114082 0.596617 0.680204 0.161149
H23   H     H_    0.893770 0.729705 0.469772 0.192275
H24   H     H_    0.901656 0.596171 0.681463 0.192774
H25   H     H_    0.886555 0.632374 0.324508 0.145842
H26   H     H_    0.901720 0.407987 0.682774 0.189415
H27   H     H_    0.100397 0.363524 0.325526 0.149874
H28   H     H_    0.104339 0.269594 0.472145 0.170411
N1    N     N_3   0.500250 0.143650 0.502780 -0.140599
N2    N     N_3   0.500250 0.856350 0.502780 -0.139896
O1    O     O_R   0.317570 0.620260 0.500070 -0.599511
O2    O     O_R   0.317570 0.379740 0.500070 -0.599529
O3    O     O_R   0.499850 0.620240 0.316900 -0.593086
O4    O     O_R   0.499850 0.379760 0.316900 -0.596819
O5    O     O_R   0.682190 0.620260 0.500030 -0.567773
O6    O     O_R   0.682190 0.379740 0.500030 -0.567430
O7    O     O_R   0.499910 0.620280 0.683200 -0.569814
O8    O     O_R   0.499910 0.379720 0.683200 -0.566407
I1    I     I_    0.709284 0.176355 0.712229 -0.438116
I2    I     I_    0.706775 0.822707 0.715615 -0.428617

loop_
_geom_bond_atom_site_label_1
_geom_bond_atom_site_label_2
_ccdc_geom_bond_type
C7    C10   S    
C20   H14   S    
C23   C24   S    
C15   H10   S    
C5    C9    S    
Cu1   O7    S    
C22   H1    S    
C7    H27   S    
C17   O4    A    
C21   H15   S    
C1    C8    S    
C9    C10   S    
C10   H2    S    
C5    H25   S    
Cu2   O8    S    
C11   H6    S    
C4    C8    S    
C16   H9    S    
C11   C12   S    
C12   N2    S    
C3    C5    S    
C2    C21   S    
C1    O1    A    
C3    H21   S    
C7    C8    S    
C2    C26   S    
Cu1   O1    S    
C13   C14   S    
C2    C17   S    
C15   N1    S    
C18   O6    A    
Cu1   O5    S    
C7    H28   S    
C6    C9    S    
C14   H13   S    
C24   H16   S    
Cu2   O6    S    
C21   C22   S    
C24   C26   S    
C11   H4    S    
C19   O7    A    
Cu2   O2    S    
C12   H5    S    
C4    H20   S    
C14   N2    S    
C17   O3    A    
C18   O5    A    
C13   N1    S    
C26   H18   S    
C16   H11   S    
C2    C20   S    
C15   C16   S    
C25   H17   S    
C9    C18   S    
C20   C22   S    
C23   C25   S    
C19   C23   S    
C19   O8    A    
C4    C6    S    
C3    C8    S    
C13   I1    S    
C1    O2    A    
C3    H19   S    
Cu1   Cu2   S    
C21   C25   S    
C22   C23   S    
C15   H8    S    
C13   H12   S    
C16   N2    S    
Cu1   O3    S    
C6    H24   S    
C25   C26   S    
C11   N1    S    
C10   H3    S    
C20   C24   S    
C6    H26   S    
C5    H23   S    
Cu2   N1    S    
C14   I2    S    
C4    H22   S    
C12   H7    S    
Cu1   N2    S    
Cu2   O4    S    
