data_mof_unit_60089.cif
_audit_creation_date              2012-12-10T18:17:00-0500
_audit_creation_method            fapswitch 2.2
_symmetry_space_group_name_H-M    P1
_symmetry_Int_Tables_number       1
_space_group_crystal_system       triclinic
_cell_length_a                    29.180961
_cell_length_b                    29.181182
_cell_length_c                    38.810628
_cell_angle_alpha                 89.999603
_cell_angle_beta                  89.99959
_cell_angle_gamma                 89.999955
_cell_volume                      33048.605546

loop_
_atom_site_label
_atom_site_type_symbol
_atom_type_description
_atom_site_fract_x
_atom_site_fract_y
_atom_site_fract_z
_atom_type_partial_charge
C1    C     C_R   0.500000 0.913191 0.000000 0.884710
C2    C     C_1   0.229407 0.500000 0.000007 -0.000024
C3    C     C_R   0.000001 0.500000 0.894491 -0.318802
C4    C     C_R   1.000000 0.500000 0.605511 -0.314057
C5    C     C_R   0.500001 0.999999 0.605510 -0.318881
C6    C     C_R   0.000000 0.500000 0.394490 -0.318809
C7    C     C_R   0.500002 0.000002 0.394490 -0.318835
C8    C     C_R   0.500017 0.000016 0.284756 0.347380
C9    C     C_R   0.000000 0.500000 0.284756 0.347362
C10   C     C_R   0.500004 0.999997 0.715243 0.347358
C11   C     C_R   0.000001 0.500002 0.715336 0.339608
C12   C     C_R   0.000003 0.500003 0.784757 0.347365
C13   C     C_1   0.500000 0.229408 0.000000 0.000044
C14   C     C_R   0.500003 0.999997 0.784664 0.339610
C15   C     C_R   0.000000 0.499999 0.215335 0.339606
C16   C     C_R   0.500011 0.000017 0.215335 0.339615
C17   C     C_1   0.500000 0.862563 0.000000 -0.237951
C18   C     C_1   0.137436 0.500000 0.000015 -0.238418
C19   C     C_1   0.500000 0.137437 0.000000 -0.237957
C20   C     C_1   0.862563 0.500000 0.000015 -0.238417
C21   C     C_1   1.000000 0.362563 0.500015 -0.238340
C22   C     C_1   0.637436 0.000000 0.500000 -0.238810
C23   C     C_1   1.000000 0.637437 0.500015 -0.238341
C24   C     C_1   0.770593 0.500000 0.000006 -0.000024
C25   C     C_1   0.362563 1.000000 0.500000 -0.238800
C26   C     C_1   0.500000 0.820384 0.000000 -0.009479
C27   C     C_1   0.179615 0.500000 0.000011 -0.009367
C28   C     C_1   0.500000 0.179616 0.000000 -0.009479
C29   C     C_1   0.820385 0.500000 0.000010 -0.009367
C30   C     C_1   1.000000 0.320384 0.500011 -0.009285
C31   C     C_1   0.679615 1.000000 0.500000 -0.009176
C32   C     C_1   0.000000 0.679615 0.500011 -0.009285
C33   C     C_1   0.320385 1.000000 0.500000 -0.009175
C34   C     C_3   0.541816 0.902636 0.098672 -0.269217
C35   C     C_1   0.999999 0.270592 0.500007 0.000049
C36   C     C_3   0.097369 0.541805 0.098662 -0.269088
C37   C     C_3   0.458188 0.097367 0.098660 -0.269181
C38   C     C_3   0.902631 0.458194 0.098663 -0.269088
C39   C     C_3   0.541849 0.097350 0.901334 -0.269174
C40   C     C_3   0.097023 0.458127 0.902478 -0.262363
C41   C     C_3   0.458152 0.902648 0.901337 -0.269172
C42   C     C_3   0.902980 0.541876 0.902478 -0.262363
C43   C     C_3   0.041866 0.402657 0.598667 -0.268973
C44   C     C_3   0.597013 0.041897 0.597522 -0.262146
C45   C     C_3   0.958134 0.597342 0.598665 -0.268970
C46   C     C_1   0.729407 1.000000 0.500000 -0.000019
C47   C     C_3   0.402989 0.958101 0.597525 -0.262151
C48   C     C_3   0.041953 0.596986 0.402475 -0.262233
C49   C     C_3   0.597016 0.958123 0.402478 -0.262179
C50   C     C_3   0.958047 0.403014 0.402476 -0.262228
C51   C     C_3   0.402993 0.041890 0.402471 -0.262196
C52   C     C_R   0.565329 0.943107 0.177718 0.188277
C53   C     C_R   0.612611 0.951183 0.174878 -0.064011
C54   C     C_R   0.643853 0.921229 0.190303 -0.158621
C55   C     C_R   0.628099 0.882883 0.208316 -0.113879
C56   C     C_R   0.581054 0.874750 0.211330 -0.114811
C57   C     C_1   0.000000 0.729407 0.500007 0.000049
C58   C     C_R   0.549697 0.904869 0.196264 -0.172324
C59   C     C_R   0.056927 0.565303 0.177716 0.188266
C60   C     C_R   0.048856 0.612587 0.174893 -0.063993
C61   C     C_R   0.078824 0.643816 0.190320 -0.158592
C62   C     C_R   0.117177 0.628047 0.208317 -0.113897
C63   C     C_R   0.125305 0.581001 0.211313 -0.114809
C64   C     C_R   0.095172 0.549656 0.196247 -0.172325
C65   C     C_R   0.434696 0.056928 0.177718 0.188262
C66   C     C_R   0.387411 0.048860 0.174888 -0.064009
C67   C     C_R   0.356179 0.078826 0.190313 -0.158612
C68   C     C_1   0.270593 1.000000 0.500000 -0.000019
C69   C     C_R   0.371946 0.117176 0.208315 -0.113886
C70   C     C_R   0.418993 0.125300 0.211318 -0.114816
C71   C     C_R   0.450340 0.095169 0.196253 -0.172325
C72   C     C_R   0.943074 0.434696 0.177717 0.188264
C73   C     C_R   0.951144 0.387412 0.174894 -0.063993
C74   C     C_R   0.921177 0.356183 0.190322 -0.158592
C75   C     C_R   0.882824 0.371951 0.208319 -0.113900
C76   C     C_R   0.874696 0.418997 0.211315 -0.114808
C77   C     C_R   0.904829 0.450342 0.196248 -0.172325
C78   C     C_R   0.565334 0.056891 0.822281 0.188278
C79   C     C_1   0.500000 0.728408 1.000000 0.000509
C80   C     C_R   0.612614 0.048799 0.825108 -0.063996
C81   C     C_R   0.643860 0.078750 0.809680 -0.158634
C82   C     C_R   0.628110 0.117108 0.791680 -0.113892
C83   C     C_R   0.581068 0.125258 0.788681 -0.114785
C84   C     C_R   0.549707 0.095142 0.803747 -0.172333
C85   C     C_R   0.054419 0.432660 0.822429 0.194986
C86   C     C_R   0.037916 0.387576 0.820483 -0.092764
C87   C     C_R   0.065240 0.353010 0.806355 -0.156441
C88   C     C_R   0.109194 0.363245 0.794306 -0.119803
C89   C     C_R   0.125579 0.408218 0.795762 -0.118007
C90   C     C_1   0.271592 0.500000 0.000004 0.000465
C91   C     C_R   0.098329 0.442881 0.809829 -0.137353
C92   C     C_R   0.434671 0.943103 0.822282 0.188277
C93   C     C_R   0.387390 0.951194 0.825108 -0.063996
C94   C     C_R   0.356146 0.921242 0.809681 -0.158635
C95   C     C_R   0.371897 0.882883 0.791682 -0.113894
C96   C     C_R   0.418940 0.874735 0.788685 -0.114786
C97   C     C_R   0.450300 0.904852 0.803750 -0.172334
C98   C     C_R   0.945592 0.567348 0.822429 0.195005
C99   C     C_R   0.962105 0.612428 0.820476 -0.092790
C100  C     C_R   0.934786 0.646997 0.806347 -0.156433
C101  C     C_1   0.500000 0.271592 0.000000 0.000508
C102  C     C_R   0.890829 0.636769 0.794304 -0.119804
C103  C     C_R   0.874434 0.591800 0.795766 -0.118009
C104  C     C_R   0.901679 0.557134 0.809833 -0.137329
C105  C     C_R   0.065345 0.443123 0.677718 0.188230
C106  C     C_R   0.112623 0.451226 0.674890 -0.063958
C107  C     C_R   0.143875 0.421283 0.690317 -0.158571
C108  C     C_R   0.128136 0.382922 0.708319 -0.113888
C109  C     C_R   0.081095 0.374762 0.711320 -0.114780
C110  C     C_R   0.049728 0.404870 0.696254 -0.172326
C111  C     C_R   0.554401 0.067356 0.677571 0.194946
C112  C     C_R   0.086809 0.500000 0.000021 0.882995
C113  C     C_1   0.728408 0.500000 0.000004 0.000465
C114  C     C_R   0.537882 0.112434 0.679519 -0.092730
C115  C     C_R   0.565196 0.147008 0.693648 -0.156367
C116  C     C_R   0.609154 0.136787 0.705695 -0.119777
C117  C     C_R   0.625554 0.091819 0.704236 -0.117991
C118  C     C_R   0.598314 0.057147 0.690170 -0.137352
C119  C     C_R   0.934657 0.556879 0.677719 0.188234
C120  C     C_R   0.887379 0.548775 0.674894 -0.063960
C121  C     C_R   0.856127 0.578718 0.690321 -0.158567
C122  C     C_R   0.871868 0.617081 0.708320 -0.113887
C123  C     C_R   0.918908 0.625242 0.711317 -0.114782
C124  C     C_1   0.999999 0.228408 0.500004 0.000536
C125  C     C_R   0.950275 0.595134 0.696250 -0.172324
C126  C     C_R   0.445610 0.932637 0.677572 0.194957
C127  C     C_R   0.462135 0.887560 0.679522 -0.092744
C128  C     C_R   0.434826 0.852983 0.693652 -0.156362
C129  C     C_R   0.390866 0.863199 0.705698 -0.119779
C130  C     C_R   0.374459 0.908164 0.704238 -0.117994
C131  C     C_R   0.401694 0.942839 0.690170 -0.137336
C132  C     C_R   0.067394 0.554351 0.322427 0.194980
C133  C     C_R   0.112459 0.537795 0.320474 -0.092764
C134  C     C_R   0.147053 0.565082 0.306344 -0.156391
C135  C     C_1   0.771592 1.000000 0.500000 0.000493
C136  C     C_R   0.136867 0.609049 0.294301 -0.119800
C137  C     C_R   0.091912 0.625486 0.295765 -0.117980
C138  C     C_R   0.057220 0.598273 0.309832 -0.137323
C139  C     C_R   0.554423 0.932670 0.322429 0.194914
C140  C     C_R   0.537926 0.887589 0.320488 -0.092677
C141  C     C_R   0.565250 0.853027 0.306361 -0.156441
C142  C     C_R   0.609197 0.863263 0.294308 -0.119814
C143  C     C_R   0.625576 0.908233 0.295760 -0.117995
C144  C     C_R   0.598326 0.942892 0.309825 -0.137387
C145  C     C_R   0.932606 0.445649 0.322428 0.194979
C146  C     C_1   0.000000 0.771592 0.500004 0.000536
C147  C     C_R   0.887542 0.462204 0.320475 -0.092763
C148  C     C_R   0.852947 0.434918 0.306346 -0.156392
C149  C     C_R   0.863134 0.390950 0.294303 -0.119800
C150  C     C_R   0.908088 0.374514 0.295767 -0.117980
C151  C     C_R   0.942780 0.401726 0.309833 -0.137323
C152  C     C_R   0.445630 0.067374 0.322428 0.194982
C153  C     C_R   0.462168 0.112443 0.320474 -0.092770
C154  C     C_R   0.434869 0.147026 0.306344 -0.156393
C155  C     C_R   0.390907 0.136823 0.294301 -0.119785
C156  C     C_R   0.374488 0.091864 0.295765 -0.117981
C157  C     C_1   0.228408 1.000000 0.500000 0.000494
C158  C     C_R   0.401713 0.057184 0.309833 -0.137309
C159  C     C_1   0.500000 0.678611 1.000000 -0.001005
C160  C     C_1   0.321388 0.500000 0.000002 -0.001024
C161  C     C_1   0.500000 0.321389 0.000000 -0.001006
C162  C     C_1   0.678612 0.500000 0.000002 -0.001024
C163  C     C_1   1.000000 0.178611 0.500001 -0.000960
C164  C     C_R   0.500000 0.086809 1.000000 0.884699
C165  C     C_1   0.821388 1.000000 0.500000 -0.000978
C166  C     C_1   0.000000 0.821388 0.500002 -0.000959
C167  C     C_1   0.178612 0.000000 0.500000 -0.000978
C168  C     C_1   0.500000 0.636425 1.000000 -0.207328
C169  C     C_1   0.363575 0.500000 0.000001 -0.207340
C170  C     C_1   0.500000 0.363575 0.000000 -0.207329
C171  C     C_1   0.636425 0.500000 0.000000 -0.207340
C172  C     C_1   1.000000 0.136425 0.500000 -0.207285
C173  C     C_1   0.863575 0.000000 0.500000 -0.207295
C174  C     C_1   0.000000 0.863575 0.500001 -0.207284
C175  C     C_R   0.913191 0.500000 0.000021 0.882994
C176  C     C_1   0.136425 0.000000 0.500000 -0.207295
C177  C     C_R   0.414221 0.500000 0.000000 0.882418
C178  C     C_R   0.500000 0.414221 0.000000 0.882412
C179  C     C_R   0.585778 0.500000 1.000000 0.882417
C180  C     C_R   0.500000 0.585778 1.000000 0.882413
C181  C     C_R   0.914221 0.000000 0.500000 0.882412
C182  C     C_R   1.000000 0.914221 0.500000 0.882408
C183  C     C_R   0.085778 0.000000 0.500000 0.882412
C184  C     C_R   1.000000 0.085778 0.500000 0.882407
C185  C     C_R   0.500000 0.999999 0.067984 0.984546
C186  C     C_R   0.000000 0.413191 0.500021 0.882924
C187  C     C_R   0.000000 0.500000 0.067983 0.984603
C188  C     C_R   0.500000 1.000000 0.932016 0.984509
C189  C     C_R   1.000000 0.500000 0.932017 0.979523
C190  C     C_R   1.000000 0.500000 0.567984 0.984518
C191  C     C_R   0.500000 1.000000 0.567983 0.979519
C192  C     C_R   0.000000 0.500000 0.432016 0.979417
C193  C     C_R   0.499999 0.000000 0.432017 0.979533
C194  C     C_R   0.531552 0.972484 0.123400 0.414754
C195  C     C_R   0.027526 0.531544 0.123399 0.414766
C196  C     C_R   0.468454 0.027527 0.123399 0.414759
C197  C     C_R   0.586809 0.000000 0.500000 0.881228
C198  C     C_R   0.972474 0.468455 0.123399 0.414764
C199  C     C_R   0.531558 0.027511 0.876600 0.414772
C200  C     C_R   0.027979 0.468839 0.876578 0.420817
C201  C     C_R   0.468444 0.972487 0.876600 0.414773
C202  C     C_R   0.972024 0.531163 0.876577 0.420818
C203  C     C_R   0.031562 0.472495 0.623400 0.414780
C204  C     C_R   0.527971 0.031168 0.623423 0.420828
C205  C     C_R   0.968437 0.527506 0.623400 0.414780
C206  C     C_R   0.472032 0.968830 0.623423 0.420827
C207  C     C_R   0.031185 0.527951 0.376576 0.420840
C208  C     C_R   1.000000 0.586809 0.500021 0.882922
C209  C     C_R   0.527978 0.968842 0.376577 0.420831
C210  C     C_R   0.968816 0.472048 0.376576 0.420840
C211  C     C_R   0.472035 0.031170 0.376576 0.420836
C212  C     C_R   0.532280 0.973107 0.159524 -0.111345
C213  C     C_R   0.026911 0.532267 0.159523 -0.111323
C214  C     C_R   0.467734 0.026916 0.159524 -0.111334
C215  C     C_R   0.973089 0.467732 0.159524 -0.111323
C216  C     C_R   0.532282 0.026894 0.840475 -0.111339
C217  C     C_R   0.027246 0.468088 0.840476 -0.115627
C218  C     C_R   0.467721 0.973102 0.840476 -0.111339
C219  C     C_R   0.413191 1.000000 0.500000 0.881222
C220  C     C_R   0.972761 0.531917 0.840476 -0.115628
C221  C     C_R   0.032286 0.473112 0.659525 -0.111320
C222  C     C_R   0.527237 0.031920 0.659524 -0.115606
C223  C     C_R   0.967714 0.526889 0.659525 -0.111322
C224  C     C_R   0.472769 0.968076 0.659524 -0.115608
C225  C     C_R   0.031939 0.527214 0.340475 -0.115628
C226  C     C_R   0.527250 0.968095 0.340476 -0.115616
C227  C     C_R   0.968062 0.472785 0.340475 -0.115626
C228  C     C_R   0.472780 0.031931 0.340475 -0.115601
C229  C     C_R   0.500009 0.000014 0.177639 -0.151389
C230  C     C_1   0.500000 0.770592 1.000000 0.000045
C231  C     C_R   0.000000 0.499999 0.177638 -0.151385
C232  C     C_R   0.500002 0.999997 0.822361 -0.151387
C233  C     C_R   0.000004 0.500003 0.822370 -0.154020
C234  C     C_R   0.000001 0.500001 0.677640 -0.151369
C235  C     C_R   0.500004 0.999997 0.677630 -0.154004
C236  C     C_R   0.000000 0.500000 0.322369 -0.154013
C237  C     C_R   0.500019 0.000016 0.322369 -0.154013
C238  C     C_R   0.500001 0.000002 0.105511 -0.313988
C239  C     C_R   0.000000 0.500000 0.105510 -0.314059
C240  C     C_R   0.500000 0.999999 0.894489 -0.313990
H1    H     H_    0.510782 0.906383 0.082260 0.134337
H2    H     H_    0.906386 0.489224 0.082246 0.134381
H3    H     H_    0.819704 0.572416 0.688060 0.130508
H4    H     H_    0.847604 0.640463 0.719961 0.118633
H5    H     H_    0.931073 0.655042 0.725162 0.131452
H6    H     H_    0.986624 0.602094 0.698370 0.129143
H7    H     H_    0.495791 0.879148 0.669597 0.126028
H8    H     H_    0.447557 0.818193 0.694964 0.129688
H9    H     H_    0.369639 0.836316 0.716387 0.118564
H10   H     H_    0.340506 0.916061 0.713760 0.127839
H11   H     H_    0.388304 0.977380 0.688465 0.125035
H12   H     H_    0.120849 0.504134 0.330397 0.126019
H13   H     H_    0.884262 0.467027 0.122882 0.154769
H14   H     H_    0.181834 0.552327 0.305029 0.129666
H15   H     H_    0.163762 0.630258 0.283612 0.118547
H16   H     H_    0.084039 0.659444 0.286244 0.127857
H17   H     H_    0.022689 0.611686 0.311539 0.125030
H18   H     H_    0.504280 0.879161 0.330418 0.126063
H19   H     H_    0.552540 0.818234 0.305056 0.129694
H20   H     H_    0.630436 0.836392 0.283623 0.118563
H21   H     H_    0.659519 0.916145 0.286233 0.127887
H22   H     H_    0.611696 0.977437 0.311525 0.125081
H23   H     H_    0.879152 0.495866 0.330398 0.126018
H24   H     H_    0.881051 0.433393 0.084320 0.193256
H25   H     H_    0.818167 0.447673 0.305032 0.129666
H26   H     H_    0.836238 0.369741 0.283615 0.118546
H27   H     H_    0.915961 0.340555 0.286247 0.127857
H28   H     H_    0.977311 0.388313 0.311540 0.125030
H29   H     H_    0.495826 0.120846 0.330396 0.126038
H30   H     H_    0.447611 0.181810 0.305029 0.129678
H31   H     H_    0.369688 0.163710 0.283614 0.118548
H32   H     H_    0.340534 0.083978 0.286244 0.127865
H33   H     H_    0.388313 0.022649 0.311539 0.125030
H34   H     H_    0.566661 0.118922 0.915673 0.193218
H35   H     H_    0.510820 0.093609 0.917753 0.134348
H36   H     H_    0.533019 0.115721 0.877115 0.154786
H37   H     H_    0.092551 0.488130 0.919823 0.133086
H38   H     H_    0.115911 0.468604 0.878881 0.146664
H39   H     H_    0.118515 0.432732 0.916298 0.193075
H40   H     H_    0.433340 0.881078 0.915677 0.193218
H41   H     H_    0.532992 0.884272 0.122895 0.154799
H42   H     H_    0.489181 0.906390 0.917756 0.134347
H43   H     H_    0.466982 0.884277 0.877118 0.154786
H44   H     H_    0.907452 0.511873 0.919823 0.133084
H45   H     H_    0.884092 0.531399 0.878882 0.146656
H46   H     H_    0.881488 0.567271 0.916298 0.193077
H47   H     H_    0.010834 0.406391 0.582250 0.134373
H48   H     H_    0.033043 0.384285 0.622888 0.154754
H49   H     H_    0.066681 0.381091 0.584326 0.193281
H50   H     H_    0.592549 0.011891 0.580179 0.133111
H51   H     H_    0.615904 0.031427 0.621119 0.146626
H52   H     H_    0.566617 0.881056 0.084329 0.193229
H53   H     H_    0.618498 0.067296 0.583700 0.193135
H54   H     H_    0.933318 0.618908 0.584324 0.193281
H55   H     H_    0.989164 0.593607 0.582247 0.134372
H56   H     H_    0.966957 0.615715 0.622884 0.154752
H57   H     H_    0.407452 0.988106 0.580181 0.133114
H58   H     H_    0.384099 0.968572 0.621123 0.146621
H59   H     H_    0.381502 0.932701 0.583705 0.193135
H60   H     H_    0.011950 0.592539 0.419823 0.133079
H61   H     H_    0.031487 0.615880 0.378878 0.146633
H62   H     H_    0.067366 0.618460 0.416291 0.193096
H63   H     H_    0.093614 0.510776 0.082244 0.134383
H64   H     H_    0.592547 0.988125 0.419823 0.133130
H65   H     H_    0.615905 0.968597 0.378882 0.146658
H66   H     H_    0.618505 0.932728 0.416300 0.193136
H67   H     H_    0.988051 0.407460 0.419824 0.133077
H68   H     H_    0.968514 0.384120 0.378879 0.146632
H69   H     H_    0.932634 0.381539 0.416293 0.193095
H70   H     H_    0.381501 0.067286 0.416288 0.193139
H71   H     H_    0.407457 0.011889 0.419819 0.133132
H72   H     H_    0.384110 0.031413 0.378873 0.146629
H73   H     H_    0.625174 0.980441 0.160539 0.133514
H74   H     H_    0.115739 0.532970 0.122880 0.154765
H75   H     H_    0.680280 0.927508 0.188030 0.130466
H76   H     H_    0.652354 0.859492 0.219956 0.118630
H77   H     H_    0.568878 0.844964 0.225186 0.131449
H78   H     H_    0.513344 0.897930 0.198396 0.129138
H79   H     H_    0.019592 0.625161 0.160565 0.133529
H80   H     H_    0.072548 0.680244 0.188061 0.130475
H81   H     H_    0.140578 0.652292 0.219959 0.118629
H82   H     H_    0.155097 0.568813 0.225156 0.131440
H83   H     H_    0.102106 0.513302 0.198365 0.129130
H84   H     H_    0.374838 0.019599 0.160556 0.133518
H85   H     H_    0.118950 0.566607 0.084319 0.193259
H86   H     H_    0.319750 0.072553 0.188047 0.130465
H87   H     H_    0.347698 0.140576 0.219954 0.118629
H88   H     H_    0.431179 0.155090 0.225165 0.131438
H89   H     H_    0.486695 0.102102 0.198377 0.129138
H90   H     H_    0.980408 0.374838 0.160566 0.133530
H91   H     H_    0.927453 0.319754 0.188062 0.130475
H92   H     H_    0.859423 0.347706 0.219961 0.118629
H93   H     H_    0.844904 0.431185 0.225158 0.131440
H94   H     H_    0.897895 0.486696 0.198367 0.129130
H95   H     H_    0.625173 0.019531 0.839438 0.133514
H96   H     H_    0.433382 0.118947 0.084321 0.193230
H97   H     H_    0.680285 0.072458 0.811943 0.130442
H98   H     H_    0.652369 0.140497 0.780038 0.118616
H99   H     H_    0.568895 0.155054 0.774835 0.131453
H100  H     H_    0.513356 0.102093 0.801627 0.129135
H101  H     H_    0.004265 0.379148 0.830411 0.125983
H102  H     H_    0.052525 0.318215 0.805046 0.129635
H103  H     H_    0.130432 0.336371 0.783619 0.118548
H104  H     H_    0.159527 0.416129 0.786238 0.127846
H105  H     H_    0.111703 0.477428 0.811531 0.125036
H106  H     H_    0.374830 0.980463 0.839437 0.133516
H107  H     H_    0.489214 0.093613 0.082239 0.134339
H108  H     H_    0.319720 0.927534 0.811943 0.130443
H109  H     H_    0.347640 0.859494 0.780042 0.118617
H110  H     H_    0.431114 0.844938 0.774840 0.131452
H111  H     H_    0.486651 0.897902 0.801630 0.129135
H112  H     H_    0.995759 0.620849 0.830400 0.125977
H113  H     H_    0.947509 0.681789 0.805034 0.129635
H114  H     H_    0.869594 0.663646 0.783616 0.118548
H115  H     H_    0.840483 0.583895 0.786245 0.127842
H116  H     H_    0.888298 0.522590 0.811539 0.125022
H117  H     H_    0.125174 0.480497 0.660559 0.133579
H118  H     H_    0.467027 0.115737 0.122878 0.154781
H119  H     H_    0.180299 0.427584 0.688054 0.130508
H120  H     H_    0.152399 0.359540 0.719960 0.118634
H121  H     H_    0.068931 0.344964 0.725167 0.131455
H122  H     H_    0.013379 0.397911 0.698376 0.129145
H123  H     H_    0.504228 0.120852 0.669593 0.126032
H124  H     H_    0.552469 0.181800 0.694959 0.129687
H125  H     H_    0.630385 0.163667 0.716383 0.118563
H126  H     H_    0.659506 0.083918 0.713759 0.127840
H127  H     H_    0.611700 0.022604 0.688466 0.125043
H128  H     H_    0.874827 0.519503 0.660565 0.133576
N1    N     N_R   0.538818 0.010141 0.232944 -0.173504
N2    N     N_R   0.461218 0.010159 0.732827 -0.180074
N3    N     N_R   0.961196 0.489872 0.732948 -0.173489
N4    N     N_R   0.538788 0.989834 0.732828 -0.180076
N5    N     N_R   0.010137 0.461208 0.267172 -0.180070
N6    N     N_R   0.461233 0.989856 0.267174 -0.180071
N7    N     N_R   0.989864 0.538791 0.267172 -0.180070
N8    N     N_R   0.538798 0.010179 0.267170 -0.180087
N9    N     N_R   0.989902 0.538814 0.232946 -0.173493
N10   N     N_R   0.461207 0.989895 0.232948 -0.173505
N11   N     N_R   0.010098 0.461185 0.232946 -0.173493
N12   N     N_R   0.538811 0.989873 0.767054 -0.173495
N13   N     N_R   0.961220 0.489834 0.767174 -0.180075
N14   N     N_R   0.461195 0.010121 0.767053 -0.173495
N15   N     N_R   0.038785 0.510172 0.767172 -0.180081
N16   N     N_R   0.038808 0.510133 0.732946 -0.173489
O1    O     O_R   0.535610 0.936800 0.000040 -0.600635
O2    O     O_R   0.563200 0.035610 0.500040 -0.600412
O3    O     O_R   0.964390 0.563200 0.500040 -0.600151
O4    O     O_R   0.436800 0.964390 0.500040 -0.600414
O5    O     O_R   0.035610 0.563200 0.499960 -0.600908
O6    O     O_R   0.563200 0.964390 0.499960 -0.600424
O7    O     O_R   0.964390 0.436800 0.499960 -0.600908
O8    O     O_R   0.436800 0.035610 0.499960 -0.600427
O9    O     O_R   0.535610 0.999940 0.050970 -0.586473
O10   O     O_R   0.000060 0.535610 0.050970 -0.586337
O11   O     O_R   0.464390 0.000060 0.050970 -0.586477
O12   O     O_R   0.063200 0.535610 0.000040 -0.600173
O13   O     O_R   0.999940 0.464390 0.050970 -0.586337
O14   O     O_R   0.535610 0.000060 0.949030 -0.586456
O15   O     O_R   0.000060 0.464390 0.949030 -0.586160
O16   O     O_R   0.464390 0.999940 0.949030 -0.586456
O17   O     O_R   0.999940 0.535610 0.949030 -0.586160
O18   O     O_R   0.035610 0.499940 0.550970 -0.586291
O19   O     O_R   0.500060 0.035610 0.550970 -0.585995
O20   O     O_R   0.964390 0.500060 0.550970 -0.586292
O21   O     O_R   0.499940 0.964390 0.550970 -0.585995
O22   O     O_R   0.035610 0.500060 0.449030 -0.586108
O23   O     O_R   0.464390 0.063200 0.000040 -0.600635
O24   O     O_R   0.500060 0.964390 0.449030 -0.585993
O25   O     O_R   0.964390 0.499940 0.449030 -0.586109
O26   O     O_R   0.499940 0.035610 0.449030 -0.585994
O27   O     O_R   0.436800 0.499970 0.028810 -0.593834
O28   O     O_R   0.500030 0.436800 0.028810 -0.593838
O29   O     O_R   0.563200 0.500030 0.028810 -0.593833
O30   O     O_R   0.499970 0.563200 0.028810 -0.593839
O31   O     O_R   0.436800 0.500030 0.971190 -0.593833
O32   O     O_R   0.500030 0.563200 0.971190 -0.593823
O33   O     O_R   0.563200 0.499970 0.971190 -0.593833
O34   O     O_R   0.936800 0.464390 0.000040 -0.600173
O35   O     O_R   0.499970 0.436800 0.971190 -0.593823
O36   O     O_R   0.936800 0.999970 0.528810 -0.593832
O37   O     O_R   0.000030 0.936800 0.528810 -0.593823
O38   O     O_R   0.063200 0.000030 0.528810 -0.593833
O39   O     O_R   0.999970 0.063200 0.528810 -0.593823
O40   O     O_R   0.936800 0.000030 0.471190 -0.593817
O41   O     O_R   0.000030 0.063200 0.471190 -0.593822
O42   O     O_R   0.063200 0.999970 0.471190 -0.593816
O43   O     O_R   0.999970 0.936800 0.471190 -0.593822
O44   O     O_3   0.562478 0.945405 0.105515 -0.589549
O45   O     O_R   0.535610 0.063200 0.999960 -0.600670
O46   O     O_3   0.054605 0.562470 0.105513 -0.589544
O47   O     O_3   0.437525 0.054602 0.105514 -0.589555
O48   O     O_3   0.945396 0.437529 0.105514 -0.589544
O49   O     O_3   0.562496 0.054577 0.894484 -0.589548
O50   O     O_3   0.054658 0.437451 0.894345 -0.583127
O51   O     O_3   0.437505 0.945422 0.894485 -0.589547
O52   O     O_3   0.945345 0.562551 0.894345 -0.583122
O53   O     O_3   0.062505 0.445435 0.605516 -0.589518
O54   O     O_3   0.554643 0.062562 0.605655 -0.583091
O55   O     O_3   0.937495 0.554565 0.605516 -0.589517
O56   O     O_R   0.063200 0.464390 0.999960 -0.600919
O57   O     O_3   0.445359 0.937436 0.605656 -0.583088
O58   O     O_3   0.062595 0.554606 0.394342 -0.583091
O59   O     O_3   0.554652 0.937452 0.394346 -0.583119
O60   O     O_3   0.937406 0.445394 0.394343 -0.583091
O61   O     O_3   0.445359 0.062559 0.394343 -0.583101
O62   O     O_R   0.464390 0.936800 0.999960 -0.600670
O63   O     O_R   0.936800 0.535610 0.999960 -0.600920
O64   O     O_R   0.035610 0.436800 0.500040 -0.600151
Zn1   Zn    Zn3+2 0.547570 0.000000 0.000000 1.002299
Zn2   Zn    Zn3+2 0.500000 0.500000 0.961560 0.960099
Zn3   Zn    Zn3+2 1.000000 0.000000 0.538440 0.960126
Zn4   Zn    Zn3+2 0.000000 0.000000 0.461560 0.960182
Zn5   Zn    Zn3+2 0.000000 0.547570 0.000000 1.002741
Zn6   Zn    Zn3+2 0.452430 0.000000 0.000000 1.002298
Zn7   Zn    Zn3+2 0.000000 0.452430 0.000000 1.002741
Zn8   Zn    Zn3+2 0.047570 0.500000 0.500000 1.002942
Zn9   Zn    Zn3+2 0.500000 0.047570 0.500000 1.003382
Zn10  Zn    Zn3+2 0.952430 0.500000 0.500000 1.002942
Zn11  Zn    Zn3+2 0.500000 0.952430 0.500000 1.003379
Zn12  Zn    Zn3+2 0.500000 0.500000 0.038440 0.960043

loop_
_geom_bond_atom_site_label_1
_geom_bond_atom_site_label_2
_ccdc_geom_bond_type
C39   H36   S    
C61   H80   S    
C105  C110  A    
C126  C127  A    
C98   C220  S    
C221  C234  A    
C55   C56   A    
C199  C240  A    
C5    C204  A    
C114  C115  A    
O11   Zn6   S    
C26   C230  S    
C10   C235  S    
C140  H18   S    
C170  C178  S    
C111  C118  A    
C35   C124  T    
C196  O47   S    
C3    C189  S    
C20   C175  S    
C106  C107  A    
C143  C144  A    
C44   O54   S    
C34   O44   S    
C108  C109  A    
C45   O55   S    
C4    C205  A    
C73   C74   A    
C2    C90   T    
C183  O42   A    
C192  O25   A    
C41   O51   S    
C162  C171  T    
C210  O60   S    
C14   C232  S    
C130  H10   S    
C185  O9    A    
C59   C60   A    
C206  O57   S    
C45   H55   S    
C125  H6    S    
C32   C57   S    
C50   H67   S    
O7    Zn10  S    
C76   C77   A    
O9    Zn1   S    
C166  C174  T    
O6    Zn11  S    
C140  C141  A    
C49   H66   S    
C22   C31   T    
C217  C233  A    
C123  H5    S    
C178  O35   A    
C168  C180  S    
C182  O43   A    
C205  C223  A    
C148  H25   S    
C75   C76   A    
C181  O36   A    
O17   Zn5   S    
C188  C240  S    
C9    N5    A    
C73   H90   S    
C42   H44   S    
O56   Zn7   S    
C199  O49   S    
C119  C223  S    
C86   H101  S    
C8    N6    A    
C188  O16   A    
C163  C172  T    
C133  H12   S    
C154  C155  A    
C42   H46   S    
O2    Zn9   S    
C52   C58   A    
C60   H79   S    
C39   H34   S    
C40   H37   S    
C179  O33   A    
C36   H74   S    
O45   Zn1   S    
C209  C226  A    
C147  H23   S    
N15   N16   A    
O62   Zn6   S    
O32   Zn2   S    
C51   H72   S    
C21   C30   T    
C69   H87   S    
C177  O31   A    
C56   H77   S    
C209  O59   S    
C49   H64   S    
C72   C73   A    
O1    Zn1   S    
C139  C140  A    
C59   C213  S    
C47   O57   S    
O15   Zn7   S    
N3    N13   A    
C156  C158  A    
C130  C131  A    
C63   H82   S    
C41   H40   S    
C55   H76   S    
C79   C159  S    
C89   H104  S    
C39   O49   S    
C117  H126  S    
C69   C70   A    
C194  C212  A    
C151  H28   S    
C65   C214  S    
C72   C215  S    
O16   Zn6   S    
C76   H93   S    
C185  O11   A    
C98   C99   A    
O40   Zn4   S    
C155  C156  A    
C52   C212  S    
C3    C202  A    
C12   N13   A    
C48   H60   S    
C214  C229  A    
C178  O28   A    
C197  O2    A    
O31   Zn2   S    
C84   H100  S    
C114  H123  S    
O30   Zn12  S    
C22   C197  S    
C147  C148  A    
C49   O59   S    
C128  C129  A    
C174  C182  S    
C21   C186  S    
C53   C54   A    
C145  C227  S    
C139  C226  S    
C204  O54   S    
C195  C239  A    
C224  C235  A    
C9    N7    A    
C78   C80   A    
C115  C116  A    
C16   C229  S    
C36   H85   S    
C8    N8    A    
C202  C220  A    
C172  C184  S    
C219  O4    A    
C208  O5    A    
C110  H122  S    
C40   H39   S    
C206  C224  A    
C31   C46   S    
O33   Zn2   S    
C107  C108  A    
C88   H103  S    
C89   C91   A    
C213  C231  A    
C124  C163  S    
C66   C67   A    
C5    C206  A    
C226  C237  A    
C34   H1    S    
C171  C179  S    
C169  C177  S    
C75   H92   S    
C131  H11   S    
C92   C97   A    
C12   C233  S    
C182  O37   A    
C203  O53   S    
C4    C190  S    
C220  C233  A    
C47   H58   S    
O38   Zn3   S    
C5    C191  S    
C48   H61   S    
C99   H112  S    
C4    C203  A    
C70   H88   S    
C103  H115  S    
C211  O61   S    
C111  C222  S    
C66   H84   S    
C164  O23   A    
N1    N8    A    
C196  C214  A    
C83   C84   A    
C16   N1    A    
C3    C200  A    
C13   C28   S    
C12   N15   A    
C194  C238  A    
C19   C28   T    
C218  C232  A    
C2    C27   S    
C15   N11   A    
O5    Zn8   S    
C1    O1    A    
C211  C228  A    
C175  O63   A    
O43   Zn4   S    
O27   Zn12  S    
O28   Zn12  S    
O26   Zn9   S    
C120  C121  A    
C36   H63   S    
C129  C130  A    
C39   H35   S    
C121  H3    S    
C16   N10   A    
C54   C55   A    
C183  O38   A    
C15   C231  S    
C225  C236  A    
O39   Zn3   S    
C83   H99   S    
O63   Zn5   S    
C42   O52   S    
C93   H106  S    
C7    C211  A    
C107  H119  S    
C11   N3    A    
C1    C17   S    
C200  O50   S    
C1    O62   A    
N5    N11   A    
C154  H30   S    
C117  C118  A    
C212  C229  A    
C105  C221  S    
C43   H49   S    
C194  O44   S    
C56   C58   A    
C96   H110  S    
O64   Zn8   S    
O18   Zn8   S    
C102  C103  A    
C50   H69   S    
C74   H91   S    
C37   H107  S    
C173  C181  S    
C63   C64   A    
C64   H83   S    
C152  C153  A    
C186  O7    A    
C150  C151  A    
C33   C68   S    
C25   C33   T    
C87   C88   A    
C48   O58   S    
C44   H51   S    
C45   H54   S    
C136  H15   S    
C106  H117  S    
C144  H22   S    
C157  C167  S    
O36   Zn3   S    
C164  O45   A    
C190  O20   A    
C52   C53   A    
C227  C236  A    
C187  O13   A    
C158  H33   S    
C40   O50   S    
C191  O19   A    
C115  H124  S    
C18   C112  S    
C201  C218  A    
C43   H48   S    
C49   H65   S    
C180  O30   A    
C100  H113  S    
N2    N14   A    
C123  C125  A    
C132  C138  A    
C185  C238  S    
C24   C29   S    
C15   N9    A    
C62   H81   S    
C145  C147  A    
C46   C135  T    
C179  O29   A    
C192  O22   A    
C118  H127  S    
C91   H105  S    
C160  C169  T    
O24   Zn11  S    
C70   C71   A    
O41   Zn4   S    
O21   Zn11  S    
C40   H38   S    
C57   C146  T    
C200  C217  A    
C149  H26   S    
C198  C215  A    
O37   Zn3   S    
O8    Zn9   S    
C7    C209  A    
C51   H71   S    
C186  O64   A    
C152  C158  A    
C222  C235  A    
C86   C87   A    
C136  C137  A    
C122  H4    S    
C82   H98   S    
C85   C86   A    
C60   C61   A    
C47   H59   S    
C62   C63   A    
C223  C234  A    
C50   H68   S    
C193  O26   A    
C50   O60   S    
C193  O24   A    
C141  H19   S    
C112  O56   A    
O29   Zn12  S    
C92   C218  S    
C121  C122  A    
C119  C125  A    
C205  O55   S    
C44   H53   S    
C133  C134  A    
C45   H56   S    
C25   C219  S    
C127  H7    S    
C127  C128  A    
C201  O51   S    
C202  O52   S    
C201  C240  A    
C190  O18   A    
O4    Zn11  S    
C204  C222  A    
C198  O48   S    
C87   H102  S    
C51   O61   S    
C180  O32   A    
C187  C239  S    
C119  C120  A    
C156  H32   S    
C207  O58   S    
C184  O41   A    
C105  C106  A    
C23   C32   T    
C41   H42   S    
C228  C237  A    
C149  C150  A    
O42   Zn4   S    
C95   H109  S    
C92   C93   A    
C111  C114  A    
C90   C160  S    
C94   C95   A    
C195  C213  A    
C42   H45   S    
C195  O46   S    
C137  H16   S    
C102  H114  S    
C38   H13   S    
C82   C83   A    
C34   H41   S    
C6    C192  S    
C103  C104  A    
C71   H89   S    
C142  C143  A    
O13   Zn7   S    
C141  C142  A    
C43   O53   S    
C176  C183  S    
C93   C94   A    
C23   C208  S    
C37   O47   S    
C210  C227  A    
C38   O48   S    
C95   C96   A    
O12   Zn5   S    
C81   C82   A    
C85   C91   A    
O20   Zn10  S    
C208  O3    A    
C196  C238  A    
C8    C237  S    
C159  C168  T    
C59   C64   A    
C44   H50   S    
C30   C35   S    
C215  C231  A    
C17   C26   T    
C47   H57   S    
C48   H62   S    
C126  C224  S    
C165  C173  T    
C43   H47   S    
C80   H95   S    
C10   N4    A    
C116  C117  A    
C203  C221  A    
N6    N10   A    
O3    Zn10  S    
C85   C217  S    
C187  O10   A    
C113  C162  S    
C152  C228  S    
C116  H125  S    
C207  C225  A    
C132  C133  A    
C109  H121  S    
C81   H97   S    
C143  H21   S    
C7    C193  S    
C181  O40   A    
C14   N14   A    
C19   C164  S    
C67   H86   S    
C88   C89   A    
C11   C234  S    
C94   H108  S    
C146  C166  S    
C138  H17   S    
C24   C113  T    
C9    C236  S    
O23   Zn6   S    
C61   C62   A    
C120  H128  S    
O22   Zn8   S    
C34   H52   S    
C20   C29   T    
N7    N9    A    
C135  C165  S    
C38   H2    S    
C74   C75   A    
C199  C216  A    
C128  H8    S    
O19   Zn9   S    
C148  C149  A    
C134  H14   S    
C108  H120  S    
C78   C216  S    
C134  C136  A    
O35   Zn2   S    
C65   C71   A    
O34   Zn7   S    
C177  O27   A    
C67   C69   A    
C58   H78   S    
C79   C230  T    
C36   O46   S    
C72   C77   A    
C38   H24   S    
C155  H31   S    
C139  C144  A    
C112  O12   A    
C99   C100  A    
C96   C97   A    
C100  C102  A    
C142  H20   S    
C77   H94   S    
C6    C207  A    
C145  C151  A    
C161  C170  T    
C104  H116  S    
C13   C101  T    
C129  H9    S    
C184  O39   A    
O25   Zn10  S    
C53   H73   S    
N4    N12   A    
C153  H29   S    
C18   C27   T    
C97   H111  S    
C80   C81   A    
C41   H43   S    
C197  O6    A    
C6    C210  A    
C137  C138  A    
C10   N2    A    
C51   H70   S    
C101  C161  S    
C122  C123  A    
C132  C225  S    
C37   H118  S    
C126  C131  A    
C98   C104  A    
C216  C232  A    
O14   Zn1   S    
C11   N16   A    
C54   H75   S    
C37   H96   S    
C14   N12   A    
C198  C239  A    
O10   Zn5   S    
C78   C84   A    
C65   C66   A    
C109  C110  A    
C189  O17   A    
C191  O21   A    
C188  O14   A    
C153  C154  A    
C175  O34   A    
C150  H27   S    
C189  O15   A    
C219  O8    A    
C68   C157  T    
C167  C176  T    
