data_mof_unit_40044.cif
_audit_creation_date              2012-12-11T16:39:19-0500
_audit_creation_method            fapswitch 2.2
_symmetry_space_group_name_H-M    P1
_symmetry_Int_Tables_number       1
_space_group_crystal_system       triclinic
_cell_length_a                    24.489699
_cell_length_b                    6.956633
_cell_length_c                    22.151339
_cell_angle_alpha                 90.000029
_cell_angle_beta                  99.259639
_cell_angle_gamma                 89.998927
_cell_volume                      3724.65602881

loop_
_atom_site_label
_atom_site_type_symbol
_atom_type_description
_atom_site_fract_x
_atom_site_fract_y
_atom_site_fract_z
_atom_type_partial_charge
O1    O     O_R   0.188680 0.380540 0.689820 -0.545923
O2    O     O_R   0.811320 0.619460 0.310180 -0.550300
O3    O     O_R   0.311320 0.880540 0.810180 -0.545917
O4    O     O_R   0.688680 0.119460 0.189820 -0.550302
O5    O     O_R   0.300940 0.707710 0.691860 -0.523856
O6    O     O_R   0.699060 0.292290 0.308140 -0.515956
O7    O     O_R   0.199060 0.207710 0.808140 -0.523855
O8    O     O_R   0.800940 0.792290 0.191860 -0.515956
C1    C     C_R   0.318770 0.542079 0.677771 0.736397
C2    C     C_R   0.681469 0.458107 0.322419 0.729819
C3    C     C_R   0.181229 0.042082 0.822228 0.736385
C4    C     C_R   0.818529 0.958106 0.177578 0.729810
O9    O     O_R   0.188460 0.710090 0.682560 -0.514051
O10   O     O_R   0.811540 0.289910 0.317440 -0.521922
O11   O     O_R   0.311540 0.210090 0.817440 -0.514045
O12   O     O_R   0.688460 0.789910 0.182560 -0.521940
O13   O     O_R   0.198040 0.882940 0.800810 -0.543120
O14   O     O_R   0.801960 0.117060 0.199190 -0.550187
O15   O     O_R   0.301960 0.382940 0.699190 -0.543120
O16   O     O_R   0.698040 0.617060 0.300810 -0.550176
C5    C     C_R   0.167257 0.541714 0.667352 0.742845
C6    C     C_R   0.830803 0.458958 0.334633 0.739502
C7    C     C_R   0.332743 0.041711 0.832649 0.742863
C8    C     C_R   0.669197 0.958961 0.165367 0.739493
O17   O     O_3   0.253280 0.547850 0.788810 -0.372177
O18   O     O_3   0.746720 0.452150 0.211190 -0.365404
O19   O     O_3   0.246720 0.047850 0.711190 -0.372185
O20   O     O_3   0.753280 0.952150 0.288810 -0.365391
V1    V     V_3+5 0.249390 0.821720 0.742800 1.453246
V2    V     V_3+5 0.750610 0.178280 0.257200 1.476790
V3    V     V_3+5 0.250610 0.321720 0.757200 1.453252
V4    V     V_3+5 0.749390 0.678280 0.242800 1.476786
C9    C     C_R   0.465834 0.844314 0.925260 0.442117
C10   C     C_R   0.528024 0.064416 0.073666 0.429568
C11   C     C_R   0.034172 0.344317 0.574740 0.442050
C12   C     C_R   0.971977 0.564442 0.426324 0.429490
C13   C     C_R   0.415268 0.859382 0.884927 -0.308086
C14   C     C_R   0.573865 0.064849 0.120434 -0.323802
C15   C     C_R   0.084735 0.359389 0.615074 -0.308119
C16   C     C_R   0.926129 0.564896 0.379566 -0.323629
H1    H     H_    0.400441 0.736051 0.857468 0.189482
H2    H     H_    0.569897 0.134040 0.163056 0.137506
H3    H     H_    0.099564 0.236062 0.642535 0.189485
H4    H     H_    0.930085 0.634148 0.336950 0.137551
C17   C     C_R   0.384749 0.031542 0.878325 -0.216702
C18   C     C_R   0.622867 0.969822 0.113402 -0.184523
C19   C     C_R   0.115252 0.531549 0.621676 -0.216645
C20   C     C_R   0.877135 0.469813 0.386595 -0.184630
C21   C     C_R   0.405921 0.192370 0.913376 0.428688
C22   C     C_R   0.627394 0.888259 0.056152 0.454972
C23   C     C_R   0.094079 0.692375 0.586624 0.428900
C24   C     C_R   0.872620 0.388192 0.443839 0.454963
C25   C     C_R   0.455318 0.175326 0.955206 -0.240629
C26   C     C_R   0.582655 0.899754 0.007608 -0.223644
C27   C     C_R   0.044688 0.675323 0.544786 -0.240496
C28   C     C_R   0.917361 0.399691 0.492379 -0.223496
H5    H     H_    0.471642 0.301645 0.980449 0.203831
H6    H     H_    0.588147 0.844291 0.963550 0.150958
H7    H     H_    0.028364 0.801641 0.519541 0.203820
H8    H     H_    0.911874 0.344202 0.536436 0.150974
C29   C     C_R   0.484381 0.000575 0.964135 -0.044174
C30   C     C_R   0.532331 0.986363 0.015547 -0.014264
C31   C     C_R   0.015627 0.500572 0.535859 -0.044485
C32   C     C_R   0.967680 0.486344 0.484442 -0.014383
C33   C     C_R   0.080460 0.197987 0.929876 0.425582
C34   C     C_R   0.932501 0.821819 0.084518 0.442319
C35   C     C_R   0.419534 0.697970 0.570117 0.425599
C36   C     C_R   0.567500 0.321800 0.415479 0.442320
C37   C     C_R   0.124309 0.203779 0.895439 0.350646
C38   C     C_R   0.892841 0.805585 0.124020 0.338523
C39   C     C_R   0.375686 0.703768 0.604556 0.350633
C40   C     C_R   0.607160 0.305576 0.375976 0.338491
C41   C     C_R   0.139020 0.036458 0.864484 -0.229564
C42   C     C_R   0.859131 0.965732 0.133663 -0.228207
C43   C     C_R   0.360978 0.536451 0.635515 -0.229563
C44   C     C_R   0.640864 0.465732 0.366331 -0.228116
C45   C     C_R   0.110754 0.864258 0.871853 -0.230041
C46   C     C_R   0.864784 0.136023 0.100808 -0.217428
C47   C     C_R   0.389245 0.364249 0.628146 -0.230030
C48   C     C_R   0.635208 0.636021 0.399185 -0.217441
H9    H     H_    0.120486 0.734593 0.848796 0.203582
H10   H     H_    0.839686 0.260592 0.106801 0.196231
H11   H     H_    0.379516 0.234586 0.651205 0.203579
H12   H     H_    0.660302 0.760594 0.393191 0.196257
C49   C     C_R   0.068471 0.857467 0.907475 -0.201926
C50   C     C_R   0.901791 0.146986 0.058763 -0.206773
C51   C     C_R   0.431528 0.357452 0.592523 -0.201922
C52   C     C_R   0.598201 0.646975 0.441231 -0.206907
H13   H     H_    0.047203 0.723006 0.911591 0.213564
H14   H     H_    0.904470 0.279073 0.033488 0.181579
H15   H     H_    0.452797 0.222989 0.588408 0.213556
H16   H     H_    0.595519 0.779061 0.466506 0.181607
C53   C     C_R   0.052524 0.022789 0.936141 -0.060696
C54   C     C_R   0.935439 0.990139 0.049887 -0.054935
C55   C     C_R   0.447472 0.522770 0.563854 -0.060699
C56   C     C_R   0.564557 0.490121 0.450108 -0.054907
C57   C     C_1   0.008485 0.010261 0.972903 0.018336
C58   C     C_1   0.974046 0.002318 0.006565 0.017591
C59   C     C_1   0.491511 0.510239 0.527091 0.018338
C60   C     C_1   0.525949 0.502296 0.493430 0.017603
O21   O     O_3   0.495891 0.674720 0.927512 -0.565199
C61   C     C_3   0.518104 0.650686 0.872382 0.065239
H17   H     H_    0.563472 0.629548 0.884674 0.133337
H18   H     H_    0.512382 0.777689 0.841015 0.103237
C62   C     C_3   0.494190 0.470841 0.837936 -0.286658
H19   H     H_    0.506676 0.341822 0.866291 0.200095
H20   H     H_    0.448424 0.478522 0.828748 0.220827
C63   C     C_3   0.514919 0.449125 0.776894 -0.840460
H21   H     H_    0.501514 0.573665 0.746714 0.240215
H22   H     H_    0.497429 0.316081 0.753678 0.238443
H23   H     H_    0.560776 0.438992 0.784292 0.233824
O22   O     O_3   0.479031 0.144471 0.085048 -0.577538
C64   C     C_3   0.445765 0.997328 0.103981 0.074366
H24   H     H_    0.460942 0.961172 0.152713 0.127016
H25   H     H_    0.445877 0.864420 0.075673 0.125278
C65   C     C_3   0.386153 0.068815 0.097705 -0.293081
H26   H     H_    0.384566 0.199975 0.126039 0.195982
H27   H     H_    0.371077 0.106379 0.049152 0.189797
C66   C     C_3   0.348216 0.915656 0.117752 -0.862757
H28   H     H_    0.348836 0.784022 0.089466 0.237883
H29   H     H_    0.305163 0.971074 0.111898 0.232040
H30   H     H_    0.361665 0.878630 0.166667 0.231791
O23   O     O_3   0.004118 0.174720 0.572490 -0.565196
C67   C     C_3   0.981904 0.150688 0.627619 0.065287
H31   H     H_    0.936538 0.129504 0.615324 0.133337
H32   H     H_    0.987611 0.277711 0.658978 0.103229
C68   C     C_3   0.005831 0.970877 0.662078 -0.286641
H33   H     H_    0.993368 0.841837 0.633726 0.200111
H34   H     H_    0.051595 0.978617 0.671282 0.220802
C69   C     C_3   0.985086 0.949142 0.723110 -0.840477
H35   H     H_    0.998444 0.073750 0.753278 0.240216
H36   H     H_    0.002608 0.816175 0.746350 0.238453
H37   H     H_    0.939232 0.938848 0.715694 0.233824
O24   O     O_3   0.020951 0.644614 0.414929 -0.577517
C70   C     C_3   0.054273 0.497458 0.396107 0.074253
H38   H     H_    0.038851 0.459740 0.347552 0.126846
H39   H     H_    0.054546 0.365389 0.424860 0.125521
C71   C     C_3   0.113738 0.569934 0.401670 -0.292877
H40   H     H_    0.114930 0.700099 0.372801 0.195926
H41   H     H_    0.129039 0.609412 0.450015 0.189769
C72   C     C_3   0.151755 0.416579 0.381881 -0.862862
H42   H     H_    0.151541 0.285975 0.410709 0.237896
H43   H     H_    0.194701 0.472780 0.387182 0.232024
H44   H     H_    0.138063 0.377598 0.333167 0.231801
O25   O     O_3   0.381351 0.370757 0.902695 -0.547798
C73   C     C_3   0.356633 0.423996 0.953316 -0.232685
H45   H     H_    0.326264 0.313830 0.963000 0.106491
H46   H     H_    0.333920 0.560466 0.942040 0.158606
H47   H     H_    0.388059 0.450937 0.994561 0.150608
O26   O     O_3   0.675167 0.793622 0.047545 -0.548133
C74   C     C_3   0.710892 0.927360 0.026187 -0.239739
H48   H     H_    0.749698 0.852424 0.020364 0.170426
H49   H     H_    0.722262 0.045829 0.059654 0.122315
H50   H     H_    0.692295 0.986859 0.980875 0.132260
O27   O     O_3   0.118640 0.870769 0.597318 -0.547822
C75   C     C_3   0.143359 0.924061 0.546703 -0.232720
H51   H     H_    0.173711 0.813867 0.536989 0.106516
H52   H     H_    0.166094 0.060473 0.558005 0.158557
H53   H     H_    0.111930 0.951136 0.505471 0.150559
O28   O     O_3   0.824856 0.293505 0.452445 -0.548127
C76   C     C_3   0.789123 0.427194 0.473816 -0.239716
H54   H     H_    0.750325 0.352217 0.479640 0.170427
H55   H     H_    0.777741 0.545677 0.440358 0.122306
H56   H     H_    0.807720 0.486678 0.519131 0.132243
O29   O     O_3   0.061563 0.371322 0.949750 -0.549824
C77   C     C_3   0.064267 0.375447 0.013950 -0.265492
H57   H     H_    0.082559 0.514616 0.031101 0.155835
H58   H     H_    0.089777 0.258844 0.039004 0.093622
H59   H     H_    0.021785 0.370096 0.025203 0.201019
O30   O     O_3   0.967549 0.668882 0.079411 -0.549303
C78   C     C_3   0.019883 0.709602 0.114360 -0.321631
H60   H     H_    0.017169 0.781370 0.158792 0.120605
H61   H     H_    0.045124 0.798815 0.087786 0.152714
H62   H     H_    0.042244 0.572297 0.125378 0.147047
O31   O     O_3   0.438426 0.871299 0.550236 -0.549816
C79   C     C_3   0.435713 0.875407 0.486034 -0.265514
H63   H     H_    0.417421 0.014576 0.468883 0.155816
H64   H     H_    0.410199 0.758806 0.460987 0.093628
H65   H     H_    0.478193 0.870038 0.474774 0.201001
O32   O     O_3   0.532461 0.168847 0.420591 -0.549298
C80   C     C_3   0.480121 0.209546 0.385650 -0.321608
H66   H     H_    0.482824 0.281367 0.341224 0.120586
H67   H     H_    0.454875 0.298700 0.412236 0.152723
H68   H     H_    0.457772 0.072227 0.374622 0.147035
O33   O     O_3   0.148585 0.380069 0.887695 -0.564074
C81   C     C_3   0.199612 0.397699 0.927925 0.128596
H69   H     H_    0.226862 0.489996 0.904691 0.157998
H70   H     H_    0.221811 0.258216 0.937748 0.060586
C82   C     C_3   0.191183 0.495190 0.987798 -0.316991
H71   H     H_    0.160883 0.614373 0.977818 0.231593
H72   H     H_    0.175038 0.387593 0.017303 0.182399
C83   C     C_3   0.244782 0.576576 0.023089 -0.897670
H73   H     H_    0.275319 0.459788 0.035872 0.230988
H74   H     H_    0.236174 0.645899 0.065724 0.241309
H75   H     H_    0.262241 0.686841 0.995361 0.230448
O34   O     O_3   0.885147 0.627869 0.149550 -0.556501
C84   C     C_3   0.918897 0.609607 0.207479 0.154166
H76   H     H_    0.890779 0.583055 0.240933 0.133608
H77   H     H_    0.942752 0.742077 0.223566 0.030770
C85   C     C_3   0.959385 0.439852 0.207336 -0.295937
H78   H     H_    0.959680 0.389289 0.159842 0.249813
H79   H     H_    0.002025 0.488076 0.226029 0.146934
C86   C     C_3   0.945295 0.269429 0.245438 -0.826825
H80   H     H_    0.953116 0.305484 0.294771 0.219119
H81   H     H_    0.971438 0.144163 0.237742 0.215798
H82   H     H_    0.901329 0.229205 0.232339 0.247999
O35   O     O_3   0.351412 0.880061 0.612302 -0.564076
C87   C     C_3   0.300383 0.897701 0.572075 0.128588
H83   H     H_    0.273132 0.989974 0.595316 0.158003
H84   H     H_    0.278187 0.758219 0.562244 0.060598
C88   C     C_3   0.308808 0.995234 0.512207 -0.316902
H85   H     H_    0.339113 0.114396 0.522191 0.231604
H86   H     H_    0.324944 0.887653 0.482689 0.182385
C89   C     C_3   0.255208 0.076674 0.476931 -0.897725
H87   H     H_    0.224666 0.959909 0.464140 0.230978
H88   H     H_    0.263812 0.146044 0.434303 0.241337
H89   H     H_    0.237756 0.186912 0.504676 0.230334
O36   O     O_3   0.614868 0.127854 0.350457 -0.556529
C90   C     C_3   0.581110 0.109514 0.292534 0.154128
H90   H     H_    0.609225 0.082919 0.259078 0.133615
H91   H     H_    0.557250 0.241962 0.276433 0.030792
C91   C     C_3   0.540631 0.939750 0.292709 -0.295825
H92   H     H_    0.540399 0.889090 0.340204 0.249837
H93   H     H_    0.497976 0.988011 0.274096 0.146858
C92   C     C_3   0.554657 0.769408 0.254534 -0.827036
H94   H     H_    0.546755 0.805567 0.205210 0.219165
H95   H     H_    0.528534 0.644121 0.262258 0.215852
H96   H     H_    0.598633 0.729152 0.267544 0.247944

loop_
_geom_bond_atom_site_label_1
_geom_bond_atom_site_label_2
_ccdc_geom_bond_type
C24   O28   S    
C70   C71   S    
C6    C20   S    
C86   H80   S    
C52   C56   A    
C59   C60   T    
O1    C5    A    
O21   C61   S    
C7    C17   S    
C4    C42   S    
O19   V1    S    
C10   O22   S    
O3    C7    A    
C10   C30   A    
C48   H12   S    
O15   V3    S    
C47   C51   A    
O25   C73   S    
O36   C90   S    
O23   C67   S    
C80   H66   S    
C63   H21   S    
O7    C3    A    
C78   H61   S    
C23   O27   S    
O29   C77   S    
C9    O21   S    
O9    V1    S    
C75   H51   S    
C14   H2    S    
C20   C24   A    
C27   H7    S    
C72   H43   S    
O16   V4    S    
O4    C8    A    
C55   C59   S    
C66   H30   S    
O30   C78   S    
C54   C58   S    
C33   O29   S    
O1    V3    S    
C92   H96   S    
O13   V1    S    
C65   H26   S    
C61   C62   S    
O2    V4    S    
C74   H50   S    
O3    V1    S    
C22   O26   S    
C12   C16   A    
C39   O35   S    
C50   C54   A    
C2    C44   S    
C9    C29   A    
C1    O15   A    
C79   H65   S    
C52   H16   S    
C82   C83   S    
C2    O16   A    
C87   H83   S    
C27   C31   A    
C38   C42   A    
C74   H48   S    
C28   C32   A    
C37   C41   A    
C69   H36   S    
O14   V2    S    
C45   H9    S    
C84   H76   S    
C23   C27   A    
C36   C40   A    
C34   C54   A    
C64   C65   S    
C46   C50   A    
C12   C32   A    
O11   C7    A    
C45   C49   A    
O12   C8    A    
C70   H39   S    
C48   C52   A    
C74   H49   S    
C77   H58   S    
C61   H17   S    
C49   C53   A    
O10   V2    S    
O20   V4    S    
O22   C64   S    
C76   H55   S    
C57   C58   T    
C73   H46   S    
C80   H67   S    
O17   V1    S    
C78   H62   S    
C39   C43   A    
O7    V3    S    
C51   H15   S    
C73   H45   S    
O19   V3    S    
O35   C87   S    
O8    V4    S    
C83   H75   S    
C86   H82   S    
C70   H38   S    
O9    C5    A    
C50   H14   S    
C72   H44   S    
C35   O31   S    
C90   H90   S    
C25   H5    S    
C89   H87   S    
C85   H78   S    
C19   C23   A    
C26   C30   A    
C91   C92   S    
C15   C19   A    
O17   V3    S    
C36   O32   S    
C9    C13   A    
C28   H8    S    
C51   C55   A    
C83   H74   S    
C84   C85   S    
C11   C15   A    
C68   H34   S    
C88   H85   S    
O5    C1    A    
C89   H88   S    
C62   H20   S    
C90   H91   S    
C73   H47   S    
C86   H81   S    
C46   H10   S    
C53   C57   S    
O31   C79   S    
C17   C21   A    
O8    C4    A    
C92   H94   S    
C21   O25   S    
C40   C44   A    
C36   C56   A    
C62   C63   S    
C84   H77   S    
C91   H93   S    
C78   H60   S    
C66   H29   S    
C71   H41   S    
C65   H27   S    
C67   C68   S    
C87   H84   S    
C79   H63   S    
O6    V2    S    
C35   C55   A    
O18   V2    S    
C3    C41   S    
C77   H57   S    
C69   H37   S    
C13   C17   A    
C68   H33   S    
O5    V1    S    
C37   O33   S    
C76   H56   S    
O32   C80   S    
C67   H32   S    
C64   H24   S    
C26   H6    S    
C80   H68   S    
C82   H71   S    
C16   C20   A    
C3    O13   A    
C49   H13   S    
C88   H86   S    
C10   C14   A    
C25   C29   A    
C34   O30   S    
C75   H53   S    
C44   C48   A    
O34   C84   S    
C71   C72   S    
C12   O24   S    
O6    C2    A    
C15   H3    S    
C66   H28   S    
C65   C66   S    
O11   V3    S    
O24   C70   S    
O18   V4    S    
O12   V4    S    
C40   O36   S    
C62   H19   S    
C18   C22   A    
C63   H23   S    
C61   H18   S    
C8    C18   S    
C83   H73   S    
O10   C6    A    
C81   C82   S    
C11   O23   S    
C69   H35   S    
C68   C69   S    
O20   V2    S    
C22   C26   A    
C76   H54   S    
O2    C6    A    
O28   C76   S    
C90   C91   S    
C47   H11   S    
O33   C81   S    
C34   C38   A    
C64   H25   S    
C43   C47   A    
C85   C86   S    
C33   C37   A    
C56   C60   S    
C75   H52   S    
C33   C53   A    
C92   H95   S    
C63   H22   S    
C35   C39   A    
C89   H89   S    
C13   H1    S    
C29   C30   S    
C14   C18   A    
C21   C25   A    
C71   H40   S    
C31   C32   S    
C16   H4    S    
C88   C89   S    
C77   H59   S    
C38   O34   S    
C87   C88   S    
C4    O14   A    
O27   C75   S    
C41   C45   A    
O26   C74   S    
C67   H31   S    
C11   C31   A    
C1    C43   S    
C82   H72   S    
C81   H69   S    
C72   H42   S    
C81   H70   S    
C91   H92   S    
C85   H79   S    
O4    V2    S    
C24   C28   A    
C79   H64   S    
C5    C19   S    
C42   C46   A    
