data_mof_unit_11439.cif
_audit_creation_date              2012-12-11T21:12:40-0500
_audit_creation_method            fapswitch 2.2
_symmetry_space_group_name_H-M    P1
_symmetry_Int_Tables_number       1
_space_group_crystal_system       triclinic
_cell_length_a                    8.341164
_cell_length_b                    18.87213
_cell_length_c                    26.946234
_cell_angle_alpha                 100.018466
_cell_angle_beta                  92.037892
_cell_angle_gamma                 88.300813
_cell_volume                      4173.24760175

loop_
_atom_site_label
_atom_site_type_symbol
_atom_type_description
_atom_site_fract_x
_atom_site_fract_y
_atom_site_fract_z
_atom_type_partial_charge
Ba1   Ba    Ba6+2 0.160810 0.465630 0.521640 1.485953
Ba2   Ba    Ba6+2 0.649380 0.534380 0.478400 1.540544
C1    C     C_3   0.452547 0.240247 0.691247 -0.125726
C2    C     C_R   0.069508 0.095255 0.452040 -0.017337
C3    C     C_R   0.217548 0.954389 0.465786 0.591675
C4    C     C_3   0.918926 0.272344 0.648053 0.746999
C5    C     C_R   0.061880 0.977965 0.482371 -0.117649
C6    C     C_R   0.268589 0.882962 0.463056 -0.129235
C7    C     C_R   0.172643 0.832333 0.479157 -0.093421
C8    C     C_R   0.025005 0.855923 0.501616 -0.073297
C9    C     C_R   0.969596 0.929098 0.503592 0.057231
C10   C     C_R   0.222333 0.759121 0.474837 -0.088267
C11   C     C_R   0.123560 0.710174 0.491566 -0.144717
C12   C     C_3   0.479047 0.270813 0.643325 0.320848
C13   C     C_R   0.983600 0.732674 0.517131 0.033178
C14   C     C_R   0.934766 0.806762 0.523142 0.000956
C15   C     C_R   0.851424 0.072534 0.503613 0.074057
C16   C     C_3   0.984852 0.195110 0.639035 1.460956
C17   C     C_R   0.791367 0.144613 0.503086 0.033508
C18   C     C_R   0.878695 0.192936 0.479760 -0.013082
C19   C     C_R   0.012615 0.165382 0.452615 -0.086812
C20   C     C_R   0.800548 0.833779 0.550805 -0.019193
C21   C     C_R   0.745089 0.904427 0.552377 -0.113762
C22   C     C_R   0.823361 0.952893 0.527310 0.011728
C23   C     C_3   0.500048 0.313839 0.391561 0.806648
C24   C     C_R   0.762713 0.024526 0.526638 0.129649
C25   C     C_R   0.612262 0.049147 0.546454 -0.180797
C26   C     C_R   0.642148 0.167750 0.524700 -0.109391
C27   C     C_R   0.553678 0.118677 0.545266 0.081459
C28   C     C_3   0.794626 0.650401 0.638259 0.264030
C29   C     C_R   0.583856 0.238755 0.523669 0.012375
C30   C     C_R   0.673395 0.284969 0.501006 -0.260152
C31   C     C_R   0.823545 0.265761 0.481653 0.020429
C32   C     C_R   0.286471 0.449303 0.171803 0.476952
C33   C     C_R   0.206220 0.573720 0.179370 0.586140
C34   C     C_3   0.560567 0.239987 0.365902 -0.283546
C35   C     C_2   0.040850 0.527987 0.269417 -0.111375
C36   C     C_3   0.001490 0.520341 0.322768 -0.121952
C37   C     C_1   0.283437 0.491052 0.336271 -0.117497
C38   C     C_2   0.320027 0.493748 0.289243 -0.071982
C39   C     C_2   0.192034 0.512965 0.252894 0.203141
C40   C     C_3   0.716089 0.703072 0.680595 -0.316509
C41   C     C_R   0.305402 0.509825 0.099221 -0.227422
C42   C     C_R   0.324458 0.447193 0.120984 0.196332
C43   C     C_R   0.381928 0.383612 0.091627 -0.185273
C44   C     C_R   0.246560 0.573847 0.128731 -0.119055
C45   C     C_3   0.856141 0.722125 0.378987 0.428998
C46   C     C_2   0.151751 0.522833 0.356013 -0.181590
C47   C     C_2   0.641266 0.462133 0.635363 -0.241802
C48   C     C_R   0.421905 0.439716 0.965647 -0.035829
C49   C     C_R   0.382804 0.570997 0.976270 0.048198
C50   C     C_R   0.422141 0.504539 0.945421 0.022424
C51   C     C_R   0.447188 0.373892 0.932687 -0.101502
C52   C     C_3   0.029794 0.326879 0.358817 0.316261
C53   C     C_R   0.480353 0.371947 0.882460 -0.041739
C54   C     C_R   0.491032 0.435506 0.862755 -0.069315
C55   C     C_R   0.461924 0.502506 0.893947 -0.051875
C56   C     C_3   0.855141 0.796905 0.365119 -0.385568
C57   C     C_R   0.472095 0.566820 0.873668 0.018073
C58   C     C_R   0.517024 0.561403 0.822317 0.525326
C59   C     C_R   0.529477 0.432640 0.812147 0.575511
C60   C     C_2   0.730077 0.452181 0.725377 -0.135904
C61   C     C_3   0.751962 0.425889 0.670112 0.057143
C62   C     C_1   0.522270 0.507142 0.653981 0.003405
C63   C     C_2   0.486266 0.517541 0.702535 -0.115661
C64   C     C_3   0.961533 0.352770 0.311407 0.419889
C65   C     C_2   0.594825 0.489655 0.740812 0.200133
C66   C     C_R   0.394202 0.442318 0.017794 0.077425
C67   C     C_3   0.306464 0.722494 0.357260 0.309884
C68   C     C_R   0.344623 0.508161 0.047792 0.034588
C69   C     C_R   0.333495 0.572164 0.026770 -0.060301
C70   C     C_R   0.415947 0.381092 0.041242 -0.153704
C71   C     C_R   0.228732 0.636078 0.106710 0.655455
C72   C     C_R   0.395773 0.634433 0.955785 -0.092472
C73   C     C_R   0.439161 0.633627 0.905796 -0.040337
C74   C     C_R   0.271433 0.635116 0.057044 -0.215300
C75   C     C_3   0.323609 0.684801 0.592892 0.999388
C76   C     C_3   0.327762 0.766897 0.607835 -0.382982
C77   C     C_3   0.122426 0.255646 0.342987 -0.307078
C78   C     C_3   0.322813 0.740299 0.304257 0.000300
C79   C     C_3   0.246099 0.794036 0.657627 -0.442508
C80   C     C_3   0.454760 0.157989 0.681173 -0.381336
C81   C     C_3   0.458033 0.695358 0.276024 -0.336502
C82   C     C_3   0.347512 0.821001 0.306327 -0.488369
C83   C     C_3   0.448113 0.705593 0.888631 -0.353833
C84   C     C_3   0.672573 0.440919 0.580272 -0.362357
C85   C     C_3   0.897611 0.595883 0.660916 -0.393742
C86   C     C_R   0.997882 0.048709 0.480077 0.004942
F1    F     F_    0.878557 0.298719 0.280498 -0.706321
F2    F     F_    0.403731 0.305798 0.430692 -0.722448
F3    F     F_    0.859174 0.147966 0.633010 -0.763713
F4    F     F_    0.329203 0.000292 0.455800 -0.756476
F5    F     F_    0.826812 0.282006 0.690531 -0.755169
F6    F     F_    0.170030 0.698882 0.133045 -0.736341
F7    F     F_    0.073149 0.182237 0.595843 -0.703840
F8    F     F_    0.080155 0.183019 0.679853 -0.700598
H1    H     H_    0.490946 0.330072 0.653525 0.025268
H2    H     H_    0.336340 0.261149 0.707502 0.189293
H3    H     H_    0.266255 0.792363 0.578125 0.128401
H4    H     H_    0.454012 0.784500 0.610733 0.125754
H5    H     H_    0.591020 0.246135 0.626518 -0.004297
H6    H     H_    0.549266 0.258330 0.719473 0.193262
H7    H     H_    0.606069 0.345136 0.407120 0.004350
H8    H     H_    0.639684 0.245875 0.334674 0.146422
H9    H     H_    0.629888 0.212795 0.393394 0.052116
H10   H     H_    0.459132 0.205524 0.350241 0.083753
H11   H     H_    0.747791 0.717997 0.400870 0.115206
H12   H     H_    0.646991 0.745319 0.664662 0.119266
H13   H     H_    0.964751 0.715368 0.402680 -0.053766
H14   H     H_    0.743653 0.806112 0.343242 0.109346
H15   H     H_    0.860411 0.838177 0.399908 0.070451
H16   H     H_    0.959820 0.802710 0.341986 0.118615
H17   H     H_    0.201267 0.753636 0.374175 -0.048493
H18   H     H_    0.283865 0.664009 0.354025 -0.010380
H19   H     H_    0.208152 0.726394 0.283024 0.155120
H20   H     H_    0.843208 0.279088 0.614227 0.611739
H21   H     H_    0.161211 0.654140 0.487227 0.135757
H22   H     H_    0.386947 0.868421 0.448983 0.144870
H23   H     H_    0.633492 0.674527 0.701422 0.125230
H24   H     H_    0.073995 0.197239 0.430517 0.100230
H25   H     H_    0.735011 0.800828 0.571622 0.116191
H26   H     H_    0.436247 0.132904 0.560083 0.114115
H27   H     H_    0.623119 0.336910 0.497015 0.089820
H28   H     H_    0.166196 0.078173 0.427019 0.147732
H29   H     H_    0.640751 0.919609 0.574544 0.074284
H30   H     H_    0.533284 0.015263 0.562085 0.126642
H31   H     H_    0.441565 0.481557 0.276743 0.110040
H32   H     H_    0.400752 0.334989 0.107548 0.164290
H33   H     H_    0.809233 0.430789 0.752337 0.138519
H34   H     H_    0.808796 0.729805 0.707541 0.132507
H35   H     H_    0.498951 0.319760 0.858998 0.115702
H36   H     H_    0.437681 0.322335 0.944214 0.067731
H37   H     H_    0.463647 0.330455 0.021969 0.058066
H38   H     H_    0.944828 0.539200 0.243413 0.100336
H39   H     H_    0.377343 0.686477 0.978805 0.063862
H40   H     H_    0.373508 0.543871 0.714934 0.116093
H41   H     H_    0.249603 0.684659 0.042953 0.123146
H42   H     H_    0.151342 0.549680 0.395093 0.089899
H43   H     H_    0.699649 0.622131 0.613354 0.065313
H44   H     H_    0.038366 0.210905 0.330733 0.136347
H45   H     H_    0.108506 0.368953 0.379726 -0.013522
H46   H     H_    0.202161 0.258797 0.311332 0.113831
H47   H     H_    0.197550 0.242780 0.374794 0.141899
H48   H     H_    0.119162 0.777470 0.655201 0.203250
H49   H     H_    0.309711 0.772665 0.689009 0.157876
H50   H     H_    0.248602 0.853722 0.665979 0.140226
H51   H     H_    0.429822 0.138083 0.716476 0.149663
H52   H     H_    0.362381 0.137212 0.652055 0.211040
H53   H     H_    0.574254 0.136655 0.668122 0.181187
H54   H     H_    0.575994 0.708842 0.295036 0.179636
H55   H     H_    0.461036 0.705801 0.236754 0.154039
H56   H     H_    0.059777 0.370342 0.289921 0.018465
H57   H     H_    0.437908 0.637101 0.274384 0.139940
H58   H     H_    0.461365 0.838208 0.326880 0.162301
H59   H     H_    0.351218 0.833227 0.267528 0.149106
H60   H     H_    0.246601 0.852765 0.325768 0.122213
H61   H     H_    0.361670 0.707981 0.856634 0.155769
H62   H     H_    0.417043 0.751446 0.918798 0.093044
H63   H     H_    0.572048 0.714008 0.877479 0.170454
H64   H     H_    0.578082 0.436500 0.552085 0.177136
H65   H     H_    0.756315 0.479266 0.568870 0.163446
H66   H     H_    0.712254 0.384188 0.574713 0.059565
H67   H     H_    0.875536 0.398176 0.322491 0.038604
H68   H     H_    0.830418 0.572877 0.688795 0.067305
H69   H     H_    0.933173 0.552593 0.629908 0.158688
H70   H     H_    0.006886 0.621290 0.680175 0.170522
H71   H     H_    0.197743 0.667972 0.586705 -0.846704
H72   H     H_    0.389376 0.669292 0.557329 0.047192
N1    N     N_R   0.228665 0.512164 0.200458 -0.414586
N2    N     N_R   0.546347 0.495003 0.792764 -0.414388
O1    O     O_2   0.106080 0.324280 0.466820 -0.384945
O2    O     O_2   0.672321 0.560708 0.330938 -0.466912
O3    O     O_3   0.857250 0.670036 0.334917 -0.629578
O4    O     O_3   0.859130 0.413620 0.470620 -0.498678
O5    O     O_3   0.459240 0.537930 0.559910 -0.430675
O6    O     O_2   0.583120 0.462390 0.379940 -0.465294
O7    O     O_3   0.410781 0.346874 0.356276 -0.654737
O8    O     O_2   0.559381 0.756425 0.479395 -0.444959
O9    O     O_3   0.445655 0.741304 0.387021 -0.601183
O10   O     O_2   0.302819 0.394794 0.190430 -0.583305
O11   O     O_2   0.547575 0.374170 0.784989 -0.568619
O12   O     O_3   0.395712 0.652826 0.631470 -0.633131
O13   O     O_2   0.151927 0.628440 0.204831 -0.544288
O14   O     O_2   0.532041 0.615410 0.803915 -0.601756
O15   O     O_3   0.376230 0.370290 0.556910 -0.469379
O16   O     O_2   0.251125 0.244746 0.517374 -0.377368
O17   O     O_3   0.898752 0.315264 0.387033 -0.645782
O18   O     O_3   0.347303 0.255031 0.609945 -0.535875
O19   O     O_2   0.227190 0.537650 0.620070 -0.433840
O20   O     O_3   0.971110 0.406970 0.583250 -0.486820
O21   O     O_2   0.088432 0.460824 0.675082 -0.500474
O22   O     O_3   0.044838 0.321527 0.655941 -0.579288
O23   O     O_2   0.704230 0.675760 0.533200 -0.432497
O24   O     O_3   0.951180 0.586390 0.529420 -0.483219
O25   O     O_3   0.434080 0.629720 0.443130 -0.411738
O26   O     O_3   0.895226 0.689348 0.613026 -0.573742
O27   O     O_3   0.351080 0.462080 0.440130 -0.420731
O28   O     O_3   0.839200 0.593040 0.416790 -0.502687
P1    P     P_3+3 0.929380 0.335110 0.452880 0.997366
P2    P     P_3+3 0.398530 0.559060 0.613740 1.146348
P3    P     P_3+3 0.965298 0.406123 0.648196 0.989611
P4    P     P_3+3 0.880940 0.664900 0.547160 1.126460
P5    P     P_3+3 0.841857 0.584491 0.351194 0.996436
P6    P     P_3+3 0.392392 0.276552 0.551578 1.103663
P7    P     P_3+3 0.402634 0.440100 0.376725 0.978255
P8    P     P_3+3 0.414824 0.722805 0.447284 0.909843

loop_
_geom_bond_atom_site_label_1
_geom_bond_atom_site_label_2
_ccdc_geom_bond_type
C54   C59   A    
C58   O14   D    
C53   C54   A    
C80   H53   S    
C47   C61   S    
C25   C27   A    
C15   C86   A    
C16   F8    S    
O27   P7    S    
C17   C18   A    
Ba2   P4    S    
C49   C72   A    
C78   C82   S    
C80   H51   S    
C70   H37   S    
C6    H22   S    
C75   C76   S    
C75   H72   S    
C5    C9    A    
C67   H17   S    
O4    P1    S    
C60   C61   S    
C83   H61   S    
C60   C65   D    
C20   H25   S    
C56   H16   S    
C16   F3    S    
O15   P6    S    
C26   C27   A    
C22   C24   A    
Ba2   O25   S    
C19   H24   S    
C69   C74   A    
C82   H59   S    
C23   O7    S    
C40   H23   S    
C55   C57   A    
C85   H70   S    
C31   P1    S    
C43   H32   S    
C33   O13   D    
C13   C14   A    
O24   P4    S    
C37   P7    S    
C9    C22   A    
C54   C55   A    
C2    H28   S    
Ba1   Ba2   S    
C67   H18   S    
O1    P1    D    
Ba2   O6    S    
C82   H58   S    
C73   C83   S    
C79   H48   S    
C77   H47   S    
C5    C86   A    
O7    P7    S    
C6    C7    A    
C63   C65   S    
C48   C50   A    
O22   P3    S    
C68   C69   A    
C84   H66   S    
C7    C8    A    
C36   C46   S    
C76   C79   S    
C21   H29   S    
C81   H54   S    
Ba1   O20   S    
C85   H68   S    
O9    P8    S    
C57   C58   A    
C47   C62   D    
Ba2   O28   S    
C27   H26   S    
C43   C70   A    
C16   F7    S    
O28   P5    S    
C60   H33   S    
Ba1   P1    S    
C49   C69   A    
C71   F6    S    
C78   C81   S    
C48   C66   A    
C41   C44   A    
C67   O9    S    
C64   F1    S    
C81   H55   S    
C51   C53   A    
C65   N2    S    
C4    C16   S    
Ba2   O27   S    
C28   O26   S    
Ba1   O4    S    
C48   C51   A    
C72   C73   A    
C34   H10   S    
C49   C50   A    
C63   H40   S    
C45   H11   S    
O12   P2    S    
C8    C9    A    
C37   C38   D    
C3    C5    A    
C23   H7    S    
C12   H5    S    
C23   C34   S    
C74   H41   S    
C38   H31   S    
C39   N1    S    
Ba1   O1    S    
O23   P4    D    
C56   H15   S    
O17   P1    S    
Ba2   O24   S    
C30   H27   S    
O6    P7    D    
O2    P5    D    
C41   C42   A    
C64   H56   S    
C35   C36   S    
Ba2   O5    S    
C12   O18   S    
O3    P5    S    
C11   H21   S    
C29   C30   A    
C78   H19   S    
C66   C70   A    
C4    F5    S    
C72   H39   S    
C1    C80   S    
C75   O12   S    
C23   F2    S    
C32   C42   A    
C40   H34   S    
C51   H36   S    
C10   C11   A    
C17   C26   A    
C32   N1    Am   
C4    H20   S    
C29   P6    S    
C45   O3    S    
C1    C12   S    
C81   H57   S    
C18   C31   A    
O19   P2    D    
C38   C39   S    
C79   H50   S    
C41   C68   A    
C79   H49   S    
C36   P5    S    
C62   P2    S    
C24   C25   A    
C33   N1    Am   
C71   C74   A    
Ba1   P2    S    
C83   H62   S    
C15   C24   A    
O26   P4    S    
C57   C73   A    
O16   P6    D    
C13   P4    S    
C42   C43   A    
C1    H6    S    
C12   H1    S    
C52   C77   S    
Ba1   O5    S    
C14   C20   A    
C28   H43   S    
C61   P3    S    
C34   H9    S    
C56   H14   S    
C59   O11   D    
C47   C84   S    
C26   C29   A    
Ba1   O27   S    
C3    C6    A    
C80   H52   S    
O20   P3    S    
C2    C86   A    
Ba1   O15   S    
C75   H71   S    
O21   P3    D    
C53   H35   S    
C46   H42   S    
C52   O17   S    
Ba2   O23   S    
C58   N2    Am   
C30   C31   A    
C11   C13   A    
Ba1   O24   S    
C45   H13   S    
C62   C63   D    
C45   C56   S    
C76   H4    S    
C2    C19   A    
C82   H60   S    
C1    H2    S    
C34   H8    S    
C85   H69   S    
O25   P8    S    
C40   H12   S    
C84   H65   S    
O8    P8    D    
C25   H30   S    
O18   P6    S    
C64   H67   S    
C77   H44   S    
C35   C39   D    
C7    C10   A    
O5    P2    S    
C3    F4    S    
C50   C55   A    
C21   C22   A    
C77   H46   S    
C15   C17   A    
C52   H45   S    
C18   C19   A    
C66   C68   A    
C32   O10   D    
C35   H38   S    
C4    O22   S    
C76   H3    S    
C20   C21   A    
C28   C40   S    
C67   C78   S    
C8    C14   A    
C59   N2    Am   
C83   H63   S    
C28   C85   S    
C52   C64   S    
C33   C44   A    
C84   H64   S    
C44   C71   A    
Ba2   O4    S    
C10   P8    S    
C37   C46   D    
Ba1   O19   S    
