data_mof_unit_57936.cif
_audit_creation_date              2012-12-10T18:58:15-0500
_audit_creation_method            fapswitch 2.2
_symmetry_space_group_name_H-M    P1
_symmetry_Int_Tables_number       1
_space_group_crystal_system       triclinic
_cell_length_a                    10.969081
_cell_length_b                    10.869595
_cell_length_c                    9.581367
_cell_angle_alpha                 90.487388
_cell_angle_beta                  101.345429
_cell_angle_gamma                 91.390126
_cell_volume                      1119.62559337

loop_
_atom_site_label
_atom_site_type_symbol
_atom_type_description
_atom_site_fract_x
_atom_site_fract_y
_atom_site_fract_z
_atom_type_partial_charge
C1    C     C_R   0.497931 0.262586 0.499016 0.807511
C2    C     C_R   0.407001 0.443580 0.054355 -0.203898
C3    C     C_R   0.403666 0.446150 0.904039 0.533498
C4    C     C_R   0.263068 0.502908 0.442673 0.864616
C5    C     C_R   0.603569 0.536820 0.950294 0.159156
C6    C     C_3   0.666800 0.659555 0.959874 -0.472081
C7    C     C_3   0.666140 0.661447 0.117999 -0.503491
C8    C     C_R   0.504366 0.737727 0.501196 0.803854
C9    C     C_R   0.737289 0.505544 0.556522 0.856067
C10   C     C_2   0.128150 0.504484 0.408833 -0.339019
C11   C     C_2   0.064790 0.555735 0.498013 -0.179756
C12   C     C_R   0.491490 0.129406 0.495057 -0.149554
C13   C     C_2   0.871975 0.526241 0.584229 -0.363534
C14   C     C_2   0.930895 0.534689 0.474803 -0.153977
C15   C     C_R   0.451561 0.062610 0.602688 0.092481
C16   C     C_3   0.189008 0.417057 0.836706 0.065966
C17   C     C_3   0.117785 0.303770 0.875262 -0.373025
C18   C     C_3   0.072755 0.219385 0.745957 -0.749646
C19   C     C_3   0.383230 0.072674 0.957214 0.084122
C20   C     C_3   0.273281 0.985279 0.967048 -0.366727
C21   C     C_3   0.281165 0.934124 0.115813 -0.912758
C22   C     C_R   0.525820 0.064926 0.381363 -0.223109
C23   C     C_R   0.532204 0.936872 0.384016 -0.225550
C24   C     C_R   0.504635 0.871459 0.500170 -0.054064
C25   C     C_R   0.464456 0.936580 0.607446 0.049559
C26   C     C_3   0.513556 0.940610 0.764106 -0.167892
C27   C     C_3   0.483716 0.077586 0.761581 0.256488
C28   C     C_R   0.602954 0.538271 0.097050 0.244329
Cu1   Cu    Cu3+1 0.499990 0.499980 0.640670 0.983362
Cu2   Cu    Cu3+1 0.500010 0.500020 0.359330 0.931116
H1    H     H_    0.881316 0.518133 0.366099 0.176755
H2    H     H_    0.079909 0.459543 0.310913 0.137956
H3    H     H_    0.552808 0.113298 0.293349 0.160956
H4    H     H_    0.562327 0.889952 0.297391 0.148169
H5    H     H_    0.459766 0.879228 0.822949 0.168842
H6    H     H_    0.134666 0.453517 0.738489 0.177358
H7    H     H_    0.190001 0.491669 0.917595 0.056190
H8    H     H_    0.177163 0.252795 0.961491 0.208892
H9    H     H_    0.035160 0.334499 0.915930 0.167584
H10   H     H_    0.009256 0.269166 0.661666 0.234216
H11   H     H_    0.020760 0.138774 0.777435 0.209896
H12   H     H_    0.563403 0.142443 0.801017 0.096908
H13   H     H_    0.152667 0.186439 0.702052 0.307318
H14   H     H_    0.694683 0.979923 0.738905 0.225970
H15   H     H_    0.679506 0.946630 0.905903 0.210280
H16   H     H_    0.376562 0.157587 0.020164 0.152930
H17   H     H_    0.472599 0.029941 0.006829 0.110592
H18   H     H_    0.185068 0.034749 0.937135 0.226632
H19   H     H_    0.269630 0.907087 0.890843 0.215218
H20   H     H_    0.361326 0.872455 0.141323 0.264202
H21   H     H_    0.195211 0.879325 0.119880 0.254266
H22   H     H_    0.290371 0.010156 0.195619 0.268463
H23   H     H_    0.333533 0.397194 0.095459 0.149891
H24   H     H_    0.761421 0.656131 0.934884 0.202120
H25   H     H_    0.604128 0.726789 0.900480 0.243445
H26   H     H_    0.760700 0.657938 0.185475 0.192249
H27   H     H_    0.605768 0.733145 0.148742 0.203176
H28   H     H_    0.112468 0.606126 0.592260 0.157263
H29   H     H_    0.922411 0.537903 0.693291 0.137719
N1    N     N_R   0.500780 0.500930 0.148120 -0.203727
N2    N     N_R   0.500790 0.500890 0.852210 -0.230672
N3    N     N_3   0.648145 0.921790 0.798939 -0.614424
O1    O     O_R   0.500000 0.319640 0.618810 -0.552316
O2    O     O_3   0.374716 0.105192 0.812730 -0.575571
O3    O     O_R   0.500010 0.319680 0.381230 -0.590637
O4    O     O_R   0.320680 0.500000 0.575130 -0.534727
O5    O     O_R   0.320690 0.500040 0.337550 -0.592049
O6    O     O_R   0.499990 0.680320 0.618770 -0.578349
O7    O     O_R   0.500000 0.680360 0.381190 -0.590491
O8    O     O_R   0.679310 0.499960 0.662450 -0.583846
O9    O     O_R   0.679320 0.500000 0.424870 -0.580149
O10   O     O_3   0.307724 0.385742 0.810469 -0.532540

loop_
_geom_bond_atom_site_label_1
_geom_bond_atom_site_label_2
_ccdc_geom_bond_type
C4    O5    A    
C1    O3    A    
C23   C24   A    
Cu1   O1    S    
C24   C25   A    
C6    C7    S    
C13   H29   S    
C10   H2    S    
C5    C28   A    
C6    H25   S    
C15   C27   S    
C19   C20   S    
C16   O10   S    
C12   C15   A    
C14   H1    S    
C23   H4    S    
Cu2   O7    S    
C3    N2    A    
Cu2   O9    S    
C26   N3    S    
C19   H16   S    
C5    N2    A    
C18   H13   S    
C16   H6    S    
Cu1   Cu2   S    
C4    O4    A    
C27   H12   S    
C26   C27   S    
C20   H18   S    
C1    C12   S    
C7    H26   S    
C6    H24   S    
C20   H19   S    
C1    O1    A    
C21   H20   S    
C8    C24   S    
C19   O2    S    
C7    H27   S    
C8    O6    A    
C2    C3    A    
C17   H8    S    
C28   N1    A    
C5    C6    S    
C11   C14   S    
Cu1   N2    S    
C15   C25   A    
Cu2   O3    S    
C10   C11   D    
C18   H11   S    
C4    C10   S    
Cu1   O4    S    
Cu1   O6    S    
C12   C22   A    
H15   N3    S    
C21   H21   S    
C3    O10   S    
C20   C21   S    
C17   C18   S    
Cu1   O8    S    
C17   H9    S    
C19   H17   S    
C26   H5    S    
C22   H3    S    
C9    C13   S    
C22   C23   A    
C18   H10   S    
C9    O9    A    
C8    O7    A    
H14   N3    S    
C25   C26   S    
C13   C14   D    
C27   O2    S    
C9    O8    A    
C21   H22   S    
C7    C28   S    
Cu2   O5    S    
C16   H7    S    
Cu2   N1    S    
C16   C17   S    
C2    N1    A    
C2    H23   S    
C11   H28   S    
