data_mof_unit_51971.cif
_audit_creation_date              2012-12-10T18:13:36-0500
_audit_creation_method            fapswitch 2.2
_symmetry_space_group_name_H-M    P1
_symmetry_Int_Tables_number       1
_space_group_crystal_system       triclinic
_cell_length_a                    12.592614
_cell_length_b                    13.104861
_cell_length_c                    16.694151
_cell_angle_alpha                 91.144788
_cell_angle_beta                  97.801322
_cell_angle_gamma                 97.760049
_cell_volume                      2702.38989127

loop_
_atom_site_label
_atom_site_type_symbol
_atom_type_description
_atom_site_fract_x
_atom_site_fract_y
_atom_site_fract_z
_atom_type_partial_charge
C1    C     C_R   0.560727 0.691427 0.507268 0.878350
C2    C     C_R   0.472490 0.486227 0.735468 -0.107346
C3    C     C_R   0.320301 0.062875 0.369687 -0.232797
C4    C     C_R   0.512008 0.492871 0.349099 0.832675
C5    C     C_R   0.404204 0.199119 0.467557 -0.126397
C6    C     C_R   0.689620 0.838531 0.570619 -0.169619
C7    C     C_R   0.714241 0.943456 0.589634 -0.110745
C8    C     C_R   0.645940 0.010913 0.555551 -0.173409
C9    C     C_R   0.554251 0.974289 0.498166 0.086409
C10   C     C_R   0.539875 0.870549 0.470253 0.091149
C11   C     C_R   0.475908 0.036660 0.467699 0.088899
C12   C     C_R   0.606181 0.458209 0.232646 -0.184463
C13   C     C_R   0.396397 0.000459 0.401187 0.153653
C14   C     C_R   0.393866 0.902311 0.366804 -0.230919
C15   C     C_R   0.464488 0.837774 0.401124 -0.208686
C16   C     C_R   0.439486 0.308396 0.488215 0.854811
C17   C     C_R   0.473105 0.133171 0.502916 -0.250239
C18   C     C_R   0.323186 0.162687 0.401892 -0.023290
C19   C     C_R   0.600205 0.801413 0.513105 -0.122934
C20   C     C_R   0.893661 0.334407 0.602018 -0.100796
C21   C     C_R   0.210204 0.628887 0.405783 0.030435
C22   C     C_R   0.107655 0.656248 0.385686 -0.242417
C23   C     C_R   0.545665 0.462689 0.874266 -0.190213
C24   C     C_R   0.022057 0.606089 0.420797 -0.186419
C25   C     C_R   0.039104 0.527752 0.476472 0.025746
C26   C     C_R   0.145005 0.502563 0.494252 0.255924
C27   C     C_R   0.955731 0.473400 0.514606 -0.019821
C28   C     C_R   0.486288 0.502179 0.650994 0.914499
C29   C     C_R   0.978095 0.391155 0.566520 0.095877
C30   C     C_R   0.084498 0.370239 0.583498 -0.219465
C31   C     C_R   0.165871 0.425008 0.547861 -0.152923
C32   C     C_R   0.850458 0.498392 0.503673 -0.046104
C33   C     C_R   0.791925 0.365887 0.589138 -0.022513
C34   C     C_R   0.561070 0.500379 0.798365 -0.049161
C35   C     C_R   0.509420 0.461016 0.264870 -0.043061
C36   C     C_R   0.410627 0.418068 0.220204 -0.176489
C37   C     C_R   0.408228 0.374679 0.143473 -0.122868
C38   C     C_R   0.504425 0.377068 0.109383 0.184842
C39   C     C_R   0.603566 0.416557 0.155087 -0.160503
C40   C     C_2   0.242576 0.225403 0.363236 0.919183
C41   C     C_2   0.668088 0.558162 0.788138 0.930371
C42   C     C_2   0.905342 0.240629 0.649234 0.866400
C43   C     C_R   0.369807 0.442319 0.751586 -0.206505
C44   C     C_R   0.355460 0.407340 0.827560 -0.151361
C45   C     C_R   0.443643 0.414397 0.888401 0.172457
C46   C     C_2   0.502788 0.355486 0.022904 -0.225997
C47   C     C_2   0.424501 0.384954 0.969640 -0.214692
H1    H     H_    0.335454 0.415775 0.245286 0.175881
H2    H     H_    0.724764 0.324800 0.614753 0.163182
H3    H     H_    0.107248 0.313228 0.625973 0.187635
H4    H     H_    0.825884 0.559299 0.466280 0.126620
H5    H     H_    0.277101 0.666960 0.378454 0.132004
H6    H     H_    0.943986 0.629529 0.402261 0.137880
H7    H     H_    0.094456 0.715796 0.342889 0.153129
H8    H     H_    0.244865 0.404455 0.563212 0.204842
H9    H     H_    0.300713 0.431417 0.704681 0.152232
H10   H     H_    0.349741 0.403035 0.988431 0.152941
H11   H     H_    0.678445 0.419198 0.129483 0.136340
H12   H     H_    0.275634 0.373506 0.838633 0.143730
H13   H     H_    0.612171 0.475780 0.923427 0.162128
H14   H     H_    0.683503 0.488741 0.267187 0.152337
H15   H     H_    0.576992 0.337896 0.002629 0.162374
H16   H     H_    0.330969 0.341441 0.110392 0.142835
H17   H     H_    0.163876 0.270196 0.259288 0.337552
H18   H     H_    0.751733 0.672919 0.733963 0.339150
H19   H     H_    0.859282 0.154267 0.740540 0.344422
H20   H     H_    0.335475 0.874403 0.314581 0.145047
H21   H     H_    0.259208 0.034095 0.319193 0.166458
H22   H     H_    0.527599 0.161184 0.556775 0.151639
H23   H     H_    0.738138 0.786138 0.602860 0.170411
H24   H     H_    0.668281 0.091307 0.573593 0.144829
H25   H     H_    0.783791 0.972148 0.633588 0.168487
H26   H     H_    0.460260 0.762110 0.372713 0.149799
N1    N     N_R   0.774070 0.445420 0.541180 -0.112468
N2    N     N_R   0.226730 0.554050 0.459240 -0.126969
O1    O     O_R   0.631480 0.627510 0.519670 -0.604311
O2    O     O_R   0.221882 0.226257 0.278849 -0.825363
O3    O     O_2   0.750557 0.536571 0.827750 -0.621641
O4    O     O_R   0.674549 0.639532 0.735258 -0.806668
O5    O     O_2   0.960923 0.177522 0.629157 -0.628380
O6    O     O_R   0.847119 0.221592 0.714266 -0.806182
O7    O     O_R   0.455770 0.662400 0.493360 -0.609042
O8    O     O_R   0.598240 0.480510 0.398910 -0.612125
O9    O     O_R   0.422540 0.515400 0.372600 -0.628907
O10   O     O_R   0.544230 0.337600 0.506640 -0.615252
O11   O     O_R   0.368520 0.372490 0.480330 -0.603335
O12   O     O_R   0.577460 0.484600 0.627400 -0.587437
O13   O     O_R   0.401760 0.519490 0.601090 -0.638931
O14   O     O_2   0.189822 0.271322 0.404478 -0.605759
Zn1   Zn    Zn3+2 0.617320 0.476700 0.517570 0.964309
Zn2   Zn    Zn3+2 0.382680 0.523300 0.482430 0.955046

loop_
_geom_bond_atom_site_label_1
_geom_bond_atom_site_label_2
_ccdc_geom_bond_type
C42   O5    D    
H18   O4    S    
C27   C29   A    
C11   C13   A    
H17   O2    S    
C3    H21   S    
C7    C8    A    
C22   H7    S    
C17   H22   S    
C6    C19   A    
C42   O6    S    
C29   C30   A    
C46   H15   S    
C23   C45   A    
C36   C37   A    
C10   C15   A    
C32   N1    A    
C30   C31   A    
C5    C17   A    
C44   H12   S    
C33   H2    S    
C3    C18   A    
C18   C40   S    
C5    C16   S    
C35   C36   A    
C8    C9    A    
C28   O13   A    
C14   H20   S    
O9    Zn2   S    
C40   O14   D    
C9    C10   A    
C10   C19   A    
C3    C13   A    
N2    Zn2   S    
C2    C34   A    
C30   H3    S    
C4    C35   S    
C26   C31   A    
C13   C14   A    
C16   O11   A    
C34   C41   S    
C37   H16   S    
C20   C29   A    
C45   C47   S    
C23   H13   S    
C1    C19   S    
C24   C25   A    
C41   O3    D    
C5    C18   A    
C24   H6    S    
C39   H11   S    
O7    Zn2   S    
C43   C44   A    
C32   H4    S    
C37   C38   A    
C47   H10   S    
C43   H9    S    
C4    O9    A    
O13   Zn2   S    
C2    C43   A    
C23   C34   A    
C28   O12   A    
C26   N2    A    
C12   C35   A    
C9    C11   A    
C20   C33   A    
C15   H26   S    
C16   O10   A    
C22   C24   A    
C7    H25   S    
C44   C45   A    
C6    H23   S    
O8    Zn1   S    
C46   C47   D    
C11   C17   A    
C8    H24   S    
C27   C32   A    
C40   O2    S    
C1    O1    A    
C41   O4    S    
C20   C42   S    
O10   Zn1   S    
C6    C7    A    
C25   C27   A    
C21   N2    A    
O11   Zn2   S    
N1    Zn1   S    
C12   C39   A    
C25   C26   A    
H19   O6    S    
C12   H14   S    
C1    O7    A    
C38   C39   A    
C4    O8    A    
C36   H1    S    
C38   C46   S    
C33   N1    A    
O12   Zn1   S    
C14   C15   A    
C2    C28   S    
C31   H8    S    
C21   C22   A    
C21   H5    S    
O1    Zn1   S    
