data_mof_unit_21015.cif
_audit_creation_date              2012-12-10T17:02:12-0500
_audit_creation_method            fapswitch 2.2
_symmetry_space_group_name_H-M    P1
_symmetry_Int_Tables_number       1
_space_group_crystal_system       triclinic
_cell_length_a                    10.651472
_cell_length_b                    10.704793
_cell_length_c                    10.066208
_cell_angle_alpha                 90.98668
_cell_angle_beta                  88.371239
_cell_angle_gamma                 89.874534
_cell_volume                      1147.12921809

loop_
_atom_site_label
_atom_site_type_symbol
_atom_type_description
_atom_site_fract_x
_atom_site_fract_y
_atom_site_fract_z
_atom_type_partial_charge
C1    C     C_R   0.501157 0.262712 0.498892 0.949720
C2    C     C_2   0.506606 0.130562 0.496591 -0.275275
C3    C     C_2   0.499522 0.597496 0.933110 0.355949
C4    C     C_R   0.260448 0.486433 0.502393 0.900374
C5    C     C_2   0.543915 0.587508 0.071784 -0.151519
C6    C     C_R   0.493888 0.737238 0.500981 0.938949
C7    C     C_R   0.739961 0.509278 0.498528 0.854358
C8    C     C_R   0.100043 0.477881 0.758661 0.405614
C9    C     C_R   0.048645 0.554000 0.862359 -0.054344
C10   C     C_R   0.944245 0.628954 0.839383 -0.211035
C11   C     C_R   0.884967 0.619842 0.718001 -0.155622
C12   C     C_R   0.056675 0.494293 0.627986 -0.018691
C13   C     C_R   0.937516 0.544987 0.613689 0.043711
C14   C     C_1   0.625662 0.682191 0.124411 0.345601
C15   C     C_1   0.101391 0.556428 0.992578 0.231203
C16   C     C_R   0.126631 0.465975 0.509589 -0.070162
C17   C     C_R   0.066013 0.444412 0.390393 -0.169460
C18   C     C_R   0.938904 0.464091 0.385115 -0.184956
C19   C     C_R   0.874280 0.514919 0.496261 -0.081112
C20   C     C_2   0.470550 0.931559 0.389954 -0.150344
C21   C     C_2   0.473449 0.868601 0.503278 -0.282342
C22   C     C_2   0.464986 0.066161 0.392221 -0.126422
H1    H     H_    0.117176 0.412913 0.301576 0.182749
H2    H     H_    0.430401 0.112442 0.305160 0.194239
H3    H     H_    0.313419 0.753081 0.072524 0.355411
H4    H     H_    0.068592 0.285930 0.978275 0.349071
H5    H     H_    0.547038 0.087401 0.582189 0.167179
H6    H     H_    0.541559 0.421903 0.889097 0.161758
H7    H     H_    0.439109 0.439790 0.105580 0.199627
H8    H     H_    0.904015 0.688378 0.917871 0.177470
H9    H     H_    0.799832 0.673271 0.705367 0.178751
H10   H     H_    0.891629 0.439643 0.294402 0.173474
H11   H     H_    0.475073 0.884776 0.293337 0.218026
H12   H     H_    0.457659 0.912932 0.599901 0.219482
N1    N     N_2   0.501340 0.501330 0.852150 -0.196534
N2    N     N_2   0.501380 0.501360 0.147810 -0.228217
N3    N     N_1   0.691777 0.758055 0.166130 -0.199430
N4    N     N_1   0.144301 0.559147 0.096814 -0.218250
O1    O     O_R   0.499980 0.319060 0.613040 -0.570504
O2    O     O_2   0.323231 0.721392 0.799645 -0.278631
O3    O     O_3   0.373373 0.812996 0.032238 -0.529118
O4    O     O_2   0.216026 0.261388 0.678272 -0.265444
O5    O     O_2   0.286340 0.360141 0.884284 -0.334319
O6    O     O_3   0.071093 0.248647 0.887500 -0.508036
O7    O     O_R   0.500020 0.319100 0.386900 -0.626335
O8    O     O_R   0.316750 0.499980 0.613090 -0.558289
O9    O     O_R   0.316790 0.500020 0.386950 -0.621531
O10   O     O_R   0.499980 0.680900 0.613100 -0.544661
O11   O     O_R   0.500020 0.680940 0.386960 -0.624640
O12   O     O_R   0.683210 0.499980 0.613050 -0.632134
O13   O     O_R   0.683250 0.500020 0.386910 -0.619764
O14   O     O_2   0.527276 0.824285 0.830632 -0.290559
S1    S     S_3+6 0.429420 0.741161 0.892838 0.065898
S2    S     S_3+6 0.174785 0.335274 0.800161 0.058556
Zn1   Zn    Zn3+2 0.499970 0.499970 0.650990 1.078947
Zn2   Zn    Zn3+2 0.500030 0.500030 0.349010 0.971563

loop_
_geom_bond_atom_site_label_1
_geom_bond_atom_site_label_2
_ccdc_geom_bond_type
O8    Zn1   S    
C2    C22   D    
O10   Zn1   S    
O2    S1    D    
C15   N4    T    
C4    C16   S    
C2    H5    S    
N2    Zn2   S    
O11   Zn2   S    
C11   C13   A    
C9    C10   A    
C10   H8    S    
O5    S2    D    
O12   Zn1   S    
C3    N1    D    
C8    C12   A    
O3    S1    S    
C17   C18   A    
C9    C15   S    
C7    O13   A    
C4    O8    A    
O14   S1    D    
C12   C13   A    
C14   N3    T    
C3    S1    S    
H7    N2    S    
C1    O7    A    
C5    C14   S    
C17   H1    S    
C6    O10   A    
C20   H11   S    
H4    O6    S    
C8    S2    S    
C20   C22   S    
C18   C19   A    
C7    C19   S    
C6    O11   A    
C16   C17   A    
C22   H2    S    
C18   H10   S    
C10   C11   A    
C13   C19   A    
C11   H9    S    
C5    N2    D    
O6    S2    S    
C20   C21   D    
H6    N1    S    
C1    C2    S    
H3    O3    S    
C7    O12   A    
C1    O1    A    
C8    C9    A    
C21   H12   S    
C6    C21   S    
N1    Zn1   S    
O1    Zn1   S    
O4    S2    D    
C12   C16   A    
O7    Zn2   S    
O9    Zn2   S    
C3    C5    S    
C4    O9    A    
O13   Zn2   S    
