data_mof_unit_45699.cif
_audit_creation_date              2012-12-10T17:43:21-0500
_audit_creation_method            fapswitch 2.2
_symmetry_space_group_name_H-M    P1
_symmetry_Int_Tables_number       1
_space_group_crystal_system       triclinic
_cell_length_a                    15.077096
_cell_length_b                    13.712504
_cell_length_c                    10.629563
_cell_angle_alpha                 90.288501
_cell_angle_beta                  89.773445
_cell_angle_gamma                 89.721242
_cell_volume                      2197.5349683

loop_
_atom_site_label
_atom_site_type_symbol
_atom_type_description
_atom_site_fract_x
_atom_site_fract_y
_atom_site_fract_z
_atom_type_partial_charge
C1    C     C_R   0.328933 0.500269 0.501659 0.869354
C2    C     C_R   0.671067 0.499733 0.498341 0.869368
C3    C     C_R   0.953150 0.500165 0.499857 -0.018200
C4    C     C_R   0.046849 0.499917 0.500233 -0.018287
C5    C     C_R   0.907013 0.559303 0.413104 0.079568
C6    C     C_R   0.092985 0.440783 0.586989 0.078927
C7    C     C_R   0.953305 0.379557 0.667143 -0.215590
C8    C     C_R   0.046694 0.620538 0.332962 -0.216057
C9    C     C_R   0.045323 0.380431 0.668819 -0.118379
C10   C     C_R   0.954675 0.619676 0.331301 -0.119807
C11   C     C_R   0.444978 0.793772 0.579836 0.092421
C12   C     C_R   0.553530 0.206224 0.418149 0.091237
C13   C     C_R   0.555048 0.792565 0.420196 0.098731
C14   C     C_R   0.446427 0.207432 0.581797 0.099367
C15   C     C_R   0.556304 0.895797 0.417384 -0.039890
C16   C     C_R   0.444606 0.104201 0.583844 -0.040466
C17   C     C_R   0.443709 0.897047 0.582643 -0.035941
C18   C     C_R   0.555360 0.102949 0.416105 -0.035465
C19   C     C_R   0.500001 0.948306 0.500004 -0.075965
C20   C     C_R   0.499993 0.051690 0.499992 -0.076353
C21   C     C_R   0.613314 0.946688 0.335230 0.304330
C22   C     C_R   0.389688 0.053310 0.668819 0.306233
C23   C     C_R   0.386687 0.949204 0.664780 0.299778
C24   C     C_R   0.610255 0.050790 0.331107 0.300589
C25   C     C_R   0.500110 0.499733 0.259107 0.788209
C26   C     C_R   0.499893 0.500264 0.740893 0.788190
C27   C     C_3   0.426467 0.545015 0.042937 -0.147282
C28   C     C_3   0.573539 0.454962 0.957063 -0.147763
C29   C     C_3   0.498544 0.592844 0.960212 -0.119851
C30   C     C_3   0.501462 0.407133 0.039791 -0.121199
C31   C     C_3   0.427796 0.453040 0.958145 -0.182413
C32   C     C_3   0.572210 0.546936 0.041855 -0.181593
C33   C     C_3   0.499877 0.500786 0.877703 0.010241
C34   C     C_3   0.500129 0.499195 0.122297 0.010496
C35   C     C_R   0.814280 0.556297 0.407610 0.276282
C36   C     C_R   0.185722 0.443763 0.592454 0.276710
C37   C     C_R   0.767551 0.498778 0.495481 -0.211018
C38   C     C_R   0.232448 0.501243 0.504542 -0.211393
C39   C     C_R   0.812499 0.443268 0.586033 0.319114
C40   C     C_R   0.187501 0.556768 0.414006 0.318673
C41   C     C_R   0.905968 0.440894 0.585581 0.011063
C42   C     C_R   0.094029 0.559178 0.414497 0.011248
Cu1   Cu    Cu3+1 0.500000 0.597420 0.500000 0.975330
Cu2   Cu    Cu3+1 0.500000 0.402580 0.500000 0.975317
H1    H     H_    0.368744 0.414627 0.920896 0.154455
H2    H     H_    0.631265 0.585345 0.079104 0.154714
H3    H     H_    0.366327 0.581747 0.081302 0.159546
H4    H     H_    0.633677 0.418229 0.918697 0.159193
H5    H     H_    0.497306 0.668931 0.925003 0.159634
H6    H     H_    0.502704 0.331045 0.075000 0.158408
H7    H     H_    0.920219 0.329416 0.729725 0.164253
H8    H     H_    0.079780 0.670683 0.270385 0.164037
H9    H     H_    0.078938 0.332915 0.734526 0.201630
H10   H     H_    0.921058 0.667211 0.265616 0.200496
H11   H     H_    0.402321 0.752551 0.641796 0.177926
H12   H     H_    0.595134 0.247438 0.354758 0.177843
H13   H     H_    0.597745 0.750422 0.358264 0.191671
H14   H     H_    0.404765 0.249570 0.645140 0.191001
N1    N     N_R   0.500000 0.743810 0.500000 -0.227028
N2    N     N_R   0.500000 0.256190 0.500000 -0.226785
O1    O     O_R   0.370260 0.582280 0.500030 -0.542914
O2    O     O_R   0.629740 0.417720 0.499970 -0.542126
O3    O     O_R   0.629740 0.582280 0.499970 -0.588875
O4    O     O_R   0.370260 0.417720 0.500030 -0.588042
O5    O     O_R   0.499980 0.582260 0.316850 -0.580530
O6    O     O_R   0.500020 0.417740 0.683150 -0.581406
O7    O     O_R   0.500020 0.582260 0.683150 -0.600332
O8    O     O_R   0.499980 0.417740 0.316850 -0.600945
O9    O     O_3   0.771721 0.609455 0.315035 -0.725229
H15   H     H_    0.713125 0.580414 0.297306 0.312918
O10   O     O_3   0.228282 0.390613 0.685035 -0.724225
H16   H     H_    0.286895 0.419631 0.702721 0.312770
O11   O     O_3   0.762867 0.393787 0.674582 -0.718287
H17   H     H_    0.793006 0.399210 0.756874 0.313101
O12   O     O_3   0.237129 0.606226 0.325432 -0.718166
H18   H     H_    0.206961 0.600836 0.243158 0.313281
O13   O     O_3   0.672012 0.893244 0.261940 -0.738338
H19   H     H_    0.725304 0.933233 0.245671 0.343134
O14   O     O_3   0.341066 0.106760 0.755681 -0.738882
H20   H     H_    0.332405 0.066812 0.832045 0.338749
O15   O     O_3   0.328020 0.896972 0.738124 -0.752830
H21   H     H_    0.274702 0.937633 0.754337 0.342422
O16   O     O_3   0.658779 0.103011 0.244110 -0.753031
H22   H     H_    0.667429 0.062310 0.167797 0.338923

loop_
_geom_bond_atom_site_label_1
_geom_bond_atom_site_label_2
_ccdc_geom_bond_type
C27   C29   S    
O11   H17   S    
Cu2   O6    S    
C19   C20   A    
Cu1   Cu2   S    
Cu1   O5    S    
C6    C9    A    
O15   H21   S    
Cu1   O3    S    
C39   C41   A    
C29   H5    S    
O13   H19   S    
Cu2   O4    S    
C15   C19   A    
C17   C23   A    
C18   C24   A    
C26   O7    A    
C35   C37   A    
C24   O16   S    
C8    C42   A    
C22   O14   S    
C29   C32   S    
C30   C31   S    
C13   H13   S    
C29   C33   S    
C11   C17   A    
C31   C33   S    
C8    H8    S    
C36   O10   S    
Cu1   N1    S    
C25   C34   S    
C40   C42   A    
C30   H6    S    
C28   H4    S    
C25   O8    A    
C11   N1    A    
C27   C34   S    
C14   H14   S    
C30   C34   S    
C27   C31   S    
C26   O6    A    
C28   C32   S    
C25   O5    A    
C4    C6    A    
Cu2   O2    S    
C32   C34   S    
O12   H18   S    
C26   C33   S    
O16   H22   S    
C16   C20   A    
C12   H12   S    
C1    C38   S    
C39   O11   S    
Cu1   O7    S    
C28   C33   S    
C13   C15   A    
C14   C16   A    
Cu2   O8    S    
C9    H9    S    
C12   C18   A    
C3    C4    A    
C1    O4    A    
C11   H11   S    
C2    O3    A    
Cu1   O1    S    
C27   H3    S    
C7    C9    A    
C3    C41   A    
C16   C22   A    
C23   O15   S    
C32   H2    S    
C3    C5    A    
C1    O1    A    
C13   N1    A    
C14   N2    A    
C40   O12   S    
C28   C30   S    
C7    H7    S    
C5    C10   A    
C37   C39   A    
C38   C40   A    
C2    C37   S    
C4    C42   A    
Cu2   N2    S    
C5    C35   A    
C36   C38   A    
C17   C19   A    
C6    C36   A    
C18   C20   A    
C7    C41   A    
O9    H15   S    
C10   H10   S    
O14   H20   S    
C12   N2    A    
C15   C21   A    
O10   H16   S    
C35   O9    S    
C8    C10   A    
C31   H1    S    
C21   C24   A    
C21   O13   S    
C22   C23   A    
C2    O2    A    
