data_mof_unit_35448.cif
_audit_creation_date              2012-12-10T19:06:29-0500
_audit_creation_method            fapswitch 2.2
_symmetry_space_group_name_H-M    P1
_symmetry_Int_Tables_number       1
_space_group_crystal_system       triclinic
_cell_length_a                    23.506265
_cell_length_b                    10.816605
_cell_length_c                    9.575454
_cell_angle_alpha                 89.559558
_cell_angle_beta                  89.017968
_cell_angle_gamma                 90.946156
_cell_volume                      2433.86877124

loop_
_atom_site_label
_atom_site_type_symbol
_atom_type_description
_atom_site_fract_x
_atom_site_fract_y
_atom_site_fract_z
_atom_type_partial_charge
C1    C     C_R   0.499437 0.262421 0.500340 0.799676
C2    C     C_R   0.969343 0.327063 0.345392 -0.162176
C3    C     C_R   0.028511 0.325811 0.346205 -0.164421
C4    C     C_R   0.058881 0.407800 0.431053 -0.002516
C5    C     C_R   0.029097 0.490884 0.517180 -0.018476
C6    C     C_R   0.059517 0.573245 0.601709 -0.057020
C7    C     C_R   0.029965 0.654641 0.688439 -0.152254
C8    C     C_R   0.970293 0.656594 0.692338 0.149415
C9    C     C_R   0.118580 0.408914 0.431727 0.532736
C10   C     C_R   0.119283 0.572983 0.596941 0.542995
C11   C     C_R   0.238894 0.469920 0.632082 -0.094456
C12   C     C_R   0.390964 0.499452 0.501148 0.795079
C13   C     C_R   0.298201 0.473111 0.629555 -0.220821
C14   C     C_R   0.328314 0.497681 0.504074 -0.040335
C15   C     C_R   0.298005 0.519956 0.381466 -0.217263
C16   C     C_R   0.238658 0.518375 0.384611 -0.099434
C17   C     C_R   0.208763 0.492982 0.509819 0.344676
C18   C     C_R   0.757476 0.408138 0.571560 -0.142040
C19   C     C_R   0.698538 0.411263 0.569243 -0.279037
C20   C     C_R   0.671069 0.505760 0.497812 -0.064039
C21   C     C_R   0.703318 0.601037 0.429405 0.135424
C22   C     C_R   0.763575 0.595269 0.427988 0.203541
C23   C     C_R   0.499455 0.737527 0.499652 0.792816
C24   C     C_R   0.790197 0.498781 0.501596 0.328173
C25   C     C_R   0.504618 0.062768 0.623810 0.111522
C26   C     C_R   0.495224 0.129006 0.501148 -0.094309
C27   C     C_R   0.479353 0.064671 0.380378 -0.205281
C28   C     C_R   0.479450 0.935719 0.379848 -0.211566
C29   C     C_R   0.495189 0.870600 0.500248 -0.096749
C30   C     C_R   0.504295 0.935460 0.623491 0.145357
C31   C     C_3   0.553350 0.929202 0.720151 -0.474680
C32   C     C_3   0.554224 0.069367 0.719299 -0.466897
C33   C     C_R   0.527902 0.591342 0.071246 0.239370
C34   C     C_R   0.608760 0.502683 0.499060 0.809244
C35   C     C_R   0.467961 0.417698 0.078680 -0.072936
C36   C     C_R   0.467724 0.415895 0.930398 0.240349
C37   C     C_R   0.528190 0.590942 0.924112 0.217504
C38   C     C_3   0.590483 0.619387 0.916444 -0.480394
C39   C     C_3   0.589823 0.622274 0.074746 -0.498100
C40   C     C_R   0.878547 0.572076 0.599587 0.543939
C41   C     C_R   0.879791 0.413124 0.427627 0.532372
C42   C     C_R   0.939192 0.409764 0.430086 -0.006908
C43   C     C_R   0.968952 0.491836 0.517855 -0.054809
C44   C     C_R   0.938822 0.574692 0.605123 -0.035621
Cu1   Cu    Cu3+1 0.500000 0.499980 0.640670 0.942666
Cu2   Cu    Cu3+1 0.500000 0.500020 0.359330 0.940982
H1    H     H_    0.947314 0.263145 0.277683 0.187614
H2    H     H_    0.674094 0.339118 0.623219 0.155807
H3    H     H_    0.468941 0.113559 0.285268 0.159852
H4    H     H_    0.469207 0.887654 0.284455 0.164584
H5    H     H_    0.540569 0.888833 0.823296 0.197160
H6    H     H_    0.591814 0.888535 0.670611 0.196036
H7    H     H_    0.543108 0.108857 0.822749 0.197332
H8    H     H_    0.592961 0.110575 0.667942 0.197237
H9    H     H_    0.443679 0.349488 0.139003 0.145495
H10   H     H_    0.050345 0.260994 0.279278 0.188727
H11   H     H_    0.615649 0.541799 0.873617 0.226660
H12   H     H_    0.600242 0.710884 0.867728 0.194188
H13   H     H_    0.615383 0.547837 0.122180 0.232810
H14   H     H_    0.597595 0.716418 0.116650 0.195833
H15   H     H_    0.053609 0.717641 0.754087 0.189172
H16   H     H_    0.216279 0.449524 0.729226 0.150869
H17   H     H_    0.320363 0.455420 0.725636 0.155510
H18   H     H_    0.320098 0.539658 0.283434 0.160853
H19   H     H_    0.215838 0.537256 0.289722 0.151083
H20   H     H_    0.778038 0.334820 0.628300 0.157159
N1    N     N_R   0.851041 0.494105 0.510182 -0.463601
N2    N     N_R   0.147577 0.491451 0.513021 -0.465452
N3    N     N_R   0.500360 0.500930 0.147930 -0.202233
N4    N     N_R   0.500360 0.500890 0.852020 -0.184647
O1    O     O_R   0.500000 0.319640 0.618810 -0.578270
O2    O     O_2   0.850798 0.336929 0.342341 -0.539002
O3    O     O_2   0.147425 0.327584 0.352491 -0.541548
O4    O     O_2   0.148908 0.654672 0.674296 -0.541743
O5    O     O_R   0.500010 0.319680 0.381230 -0.585468
O6    O     O_R   0.417880 0.499940 0.618820 -0.587984
O7    O     O_R   0.417880 0.499980 0.381240 -0.582839
O8    O     O_R   0.499990 0.680320 0.618770 -0.572523
O9    O     O_R   0.500000 0.680360 0.381190 -0.585382
O10   O     O_R   0.582120 0.500020 0.618760 -0.580802
O11   O     O_R   0.582120 0.500060 0.381180 -0.571779
O12   O     O_2   0.847123 0.646654 0.681091 -0.543541
C45   C     C_3   0.674902 0.711625 0.364163 -0.878419
H21   H     H_    0.628118 0.711397 0.379195 0.229246
H22   H     H_    0.691125 0.797881 0.412564 0.238579
H23   H     H_    0.684548 0.714993 0.250433 0.240880
C46   C     C_3   0.798926 0.691697 0.348545 -0.797850
H24   H     H_    0.793063 0.783856 0.396305 0.240949
H25   H     H_    0.845053 0.672220 0.347375 0.227362
H26   H     H_    0.785709 0.694948 0.237891 0.232191
C47   C     C_3   0.434074 0.311644 0.866572 -0.792107
H27   H     H_    0.462906 0.236592 0.835854 0.232899
H28   H     H_    0.403078 0.270228 0.943119 0.179909
H29   H     H_    0.408499 0.341449 0.778093 0.256337
C48   C     C_3   0.942680 0.747887 0.789907 -0.739321
H30   H     H_    0.917283 0.814644 0.729454 0.257153
H31   H     H_    0.915426 0.698067 0.868467 0.258207
H32   H     H_    0.974524 0.802785 0.848649 0.201514

loop_
_geom_bond_atom_site_label_1
_geom_bond_atom_site_label_2
_ccdc_geom_bond_type
C46   H24   S    
Cu1   O1    S    
C10   O4    S    
C41   C42   A    
C48   H30   S    
C31   H6    S    
C11   H16   S    
C48   H32   S    
C7    C8    A    
C41   N1    A    
Cu1   Cu2   S    
C26   C27   A    
C29   C30   A    
Cu1   O6    S    
C18   C24   A    
C23   C29   S    
C21   C22   A    
C28   C29   A    
C2    C42   A    
C5    C6    A    
C15   C16   A    
C38   H11   S    
C18   C19   A    
C7    H15   S    
Cu2   N3    S    
C24   N1    S    
C34   O10   A    
C38   H12   S    
C28   H4    S    
Cu2   O9    S    
C21   C45   S    
C16   C17   A    
C40   N1    A    
C15   H18   S    
Cu1   O8    S    
C34   O11   A    
C33   N3    A    
C20   C34   S    
C25   C32   S    
C5    C43   A    
C13   C14   A    
C8    C48   S    
C9    O3    S    
C32   H8    S    
Cu2   O5    S    
C36   N4    A    
C35   H9    S    
C1    O5    A    
C40   O12   S    
C47   H27   S    
C19   H2    S    
C25   C26   A    
C33   C37   A    
C35   C36   A    
C43   C44   A    
C37   C38   S    
C47   H28   S    
Cu2   O11   S    
C3    H10   S    
C45   H21   S    
C13   H17   S    
C30   C31   S    
C39   H13   S    
C12   O7    A    
C33   C39   S    
C22   C46   S    
C41   O2    S    
C36   C47   S    
C45   H22   S    
C12   C14   S    
C12   O6    A    
C1    C26   S    
C22   C24   A    
C42   C43   A    
C3    C4    A    
C32   H7    S    
C25   C30   A    
C11   C17   A    
C17   N2    S    
Cu1   N4    S    
C31   C32   S    
C8    C44   A    
C31   H5    S    
C4    C5    A    
C6    C10   A    
Cu2   O7    S    
C48   H31   S    
C6    C7    A    
C10   N2    A    
C2    H1    S    
C18   H20   S    
C19   C20   A    
C46   H25   S    
C2    C3    A    
C9    N2    A    
C47   H29   S    
C11   C13   A    
C38   C39   S    
C1    O1    A    
C39   H14   S    
Cu1   O10   S    
C23   O8    A    
C40   C44   A    
C45   H23   S    
C20   C21   A    
C35   N3    A    
C46   H26   S    
C27   C28   A    
C14   C15   A    
C16   H19   S    
C23   O9    A    
C4    C9    A    
C37   N4    A    
C27   H3    S    
