data_mof_unit_52264.cif
_audit_creation_date              2013-03-05T16:09:45-0500
_audit_creation_method            fapswitch 2.2
_symmetry_space_group_name_H-M    P1
_symmetry_Int_Tables_number       1
_space_group_crystal_system       triclinic
_cell_length_a                    12.802085
_cell_length_b                    10.710971
_cell_length_c                    9.884437
_cell_angle_alpha                 90.372578
_cell_angle_beta                  98.178143
_cell_angle_gamma                 90.663985
_cell_volume                      1341.46225761

loop_
_atom_site_label
_atom_site_type_symbol
_atom_site_description
_atom_site_fract_x
_atom_site_fract_y
_atom_site_fract_z
_atom_type_partial_charge
O1    O     O_R   0.499990 0.316750 0.614620 -0.625083
O2    O     O_R   0.500010 0.683250 0.385380 -0.625067
O3    O     O_R   0.499990 0.316780 0.385290 -0.586600
O4    O     O_R   0.500010 0.683220 0.614710 -0.586755
C1    C     C_R   0.499772 0.260017 0.499653 0.889464
C2    C     C_R   0.500230 0.739983 0.500348 0.889313
O5    O     O_R   0.346360 0.499970 0.595710 -0.642407
O6    O     O_R   0.653640 0.500030 0.404290 -0.642391
O7    O     O_R   0.346360 0.499990 0.366380 -0.541750
O8    O     O_R   0.653640 0.500010 0.633620 -0.541875
C3    C     C_R   0.298153 0.502775 0.472021 0.919689
C4    C     C_R   0.701846 0.497216 0.527977 0.919572
Zn1   Zn    Zn3+2 0.500000 0.499980 0.653120 1.035762
Zn2   Zn    Zn3+2 0.500000 0.500020 0.346880 1.035753
C5    C     C_R   0.814380 0.490177 0.546438 -0.107690
C6    C     C_R   0.185617 0.509792 0.453553 -0.107770
C7    C     C_R   0.023093 0.606910 0.359304 -0.175244
C8    C     C_R   0.976896 0.393027 0.640660 -0.175206
C9    C     C_R   0.130548 0.592192 0.359261 0.283126
C10   C     C_R   0.869436 0.407726 0.640679 0.283334
C11   C     C_R   0.134085 0.441835 0.544483 -0.255124
C12   C     C_R   0.865917 0.558152 0.455528 -0.255263
C13   C     C_R   0.027876 0.458267 0.546493 0.116059
C14   C     C_R   0.972122 0.541702 0.453502 0.116086
H1    H     H_    0.822306 0.621490 0.383564 0.165966
H2    H     H_    0.177700 0.378514 0.616464 0.166024
H3    H     H_    0.980107 0.671252 0.288298 0.186865
H4    H     H_    0.019875 0.328660 0.711640 0.186934
C15   C     C_R   0.519402 0.063465 0.382545 -0.131773
C16   C     C_R   0.480602 0.936535 0.617456 -0.131639
H5    H     H_    0.535200 0.111755 0.291467 0.180164
H6    H     H_    0.464803 0.888245 0.708534 0.180240
C17   C     C_R   0.519852 0.935600 0.383022 -0.159839
C18   C     C_R   0.480152 0.064400 0.616979 -0.159815
H7    H     H_    0.535938 0.886593 0.292116 0.172297
H8    H     H_    0.464066 0.113407 0.707886 0.172283
C19   C     C_R   0.500390 0.872505 0.500464 -0.018632
C20   C     C_R   0.499614 0.127495 0.499537 -0.018634
C21   C     C_R   0.582953 0.549390 0.088341 -0.200312
C22   C     C_R   0.417050 0.450616 0.911642 -0.200213
H9    H     H_    0.648658 0.590177 0.155729 0.184345
H10   H     H_    0.351358 0.409827 0.844233 0.184606
C23   C     C_R   0.583404 0.550202 0.945021 0.375387
C24   C     C_R   0.416572 0.449822 0.054957 0.375158
N1    N     N_R   0.499970 0.499970 0.857200 -0.152257
N2    N     N_R   0.500030 0.500030 0.142800 -0.152128
Br1   Br    Br    0.801456 0.304341 0.761310 -0.412045
Br2   Br    Br    0.198495 0.695451 0.238480 -0.412254
N3    N     N_R   0.671954 0.605528 0.893883 0.226619
O9    O     O_R   0.658742 0.704409 0.818233 -0.369879
O10   O     O_R   0.766998 0.577278 0.949281 -0.357036
N4    N     N_R   0.327946 0.394565 0.106021 0.226660
O11   O     O_R   0.341213 0.296222 0.182531 -0.369472
O12   O     O_R   0.232931 0.422009 0.049683 -0.357552

loop_
_geom_bond_atom_site_label_1
_geom_bond_atom_site_label_2
_geom_bond_distance
_ccdc_geom_bond_type
C15   C20   1.396010 A    
O5    Zn1   1.968048 S    
O5    C3    1.289483 A    
O7    Zn2   2.003433 S    
C6    C11   1.392460 A    
C21   H9    1.081842 S    
C23   N1    1.378672 A    
C3    C6    1.429138 S    
C8    C10   1.386535 A    
C4    C5    1.429126 S    
O6    C4    1.289467 A    
C13   C14   1.411306 A    
C24   N4    1.429553 S    
N3    O10   1.301162 A    
C22   H10   1.081842 S    
Zn2   N2    2.017271 S    
C2    C19   1.419403 S    
C15   H5    1.083667 S    
C1    C20   1.419403 S    
N4    O11   1.299342 A    
C16   H6    1.083666 S    
O7    C3    1.286658 A    
O2    C2    1.284805 A    
O3    Zn2   2.001486 S    
O8    C4    1.286666 A    
C21   N2    1.359966 A    
O1    C1    1.284802 A    
C7    C9    1.386528 A    
C11   H2    1.086287 S    
C24   N2    1.378887 A    
C18   H8    1.083681 S    
C11   C13   1.375987 A    
C6    C9    1.408122 A    
C5    C10   1.408110 A    
O2    Zn2   1.996690 S    
C12   C14   1.375982 A    
C7    C14   1.396900 A    
O1    Zn1   1.996690 S    
C16   C18   1.369676 A    
C8    C13   1.396900 A    
C7    H3    1.084233 S    
C15   C17   1.369678 A    
C22   C24   1.417547 A    
C8    H4    1.084231 S    
C22   N1    1.359833 A    
Zn1   N1    2.017271 S    
O4    C2    1.287356 A    
N3    O9    1.299205 A    
O4    Zn1   2.001486 S    
C9    Br2   1.922376 S    
C23   N3    1.429371 S    
C21   C23   1.417564 A    
O6    Zn2   1.968046 S    
C17   H7    1.083680 S    
C18   C20   1.398199 A    
C12   H1    1.086287 S    
C5    C12   1.392448 A    
C17   C19   1.398200 A    
C10   Br1   1.922354 S    
C16   C19   1.396010 A    
N4    O12   1.301467 A    
O3    C1    1.287358 A    
O8    Zn1   2.003432 S    
