data_mof_unit_51381.cif
_audit_creation_date              2012-12-10T18:57:39-0500
_audit_creation_method            fapswitch 2.2
_symmetry_space_group_name_H-M    P1
_symmetry_Int_Tables_number       1
_space_group_crystal_system       triclinic
_cell_length_a                    10.946431
_cell_length_b                    10.863232
_cell_length_c                    9.546326
_cell_angle_alpha                 90.014869
_cell_angle_beta                  89.779421
_cell_angle_gamma                 90.282703
_cell_volume                      1135.16591445

loop_
_atom_site_label
_atom_site_type_symbol
_atom_type_description
_atom_site_fract_x
_atom_site_fract_y
_atom_site_fract_z
_atom_type_partial_charge
C1    C     C_R   0.500362 0.262728 0.499838 0.799482
C2    C     C_R   0.501648 0.130160 0.498128 -0.123172
C3    C     C_R   0.504212 0.064575 0.370430 -0.208663
C4    C     C_R   0.504258 0.935441 0.370482 -0.213149
C5    C     C_R   0.501376 0.869920 0.498234 -0.092070
C6    C     C_R   0.499748 0.937948 0.621173 0.059665
C7    C     C_3   0.495013 0.927774 0.777010 -0.459763
C8    C     C_3   0.496217 0.069877 0.777552 0.074451
C9    C     C_R   0.558445 0.591442 0.073302 0.260017
C10   C     C_R   0.432214 0.417260 0.074718 -0.083329
C11   C     C_R   0.431904 0.417513 0.925829 -0.102768
C12   C     C_R   0.265425 0.500604 0.500299 0.847561
C13   C     C_R   0.558708 0.591213 0.925907 0.265343
C14   C     C_3   0.691544 0.621522 0.919397 -0.508692
C15   C     C_3   0.691206 0.622072 0.078201 -0.509393
C16   C     C_R   0.500330 0.737294 0.499851 0.808399
C17   C     C_R   0.734609 0.498120 0.500060 0.849499
C18   C     C_2   0.933788 0.492889 0.385861 -0.154680
C19   C     C_2   0.866462 0.492223 0.503236 -0.323637
C20   C     C_2   0.067594 0.489091 0.386552 -0.156765
C21   C     C_2   0.133598 0.504523 0.503181 -0.318736
C22   C     C_R   0.500525 0.062157 0.621031 0.101543
Cu1   Cu    Cu3+1 0.499990 0.499980 0.640670 0.934780
Cu2   Cu    Cu3+1 0.500010 0.500020 0.359330 0.939383
H1    H     H_    0.890183 0.494709 0.284282 0.155129
H2    H     H_    0.379344 0.348655 0.130730 0.136720
H3    H     H_    0.378729 0.349178 0.870233 0.133564
H4    H     H_    0.747260 0.545751 0.874566 0.217694
H5    H     H_    0.709479 0.713641 0.873107 0.187420
H6    H     H_    0.746345 0.546354 0.122595 0.211136
H7    H     H_    0.708542 0.714578 0.124010 0.196325
H8    H     H_    0.906460 0.484861 0.606246 0.142398
H9    H     H_    0.112665 0.474776 0.286295 0.163284
H10   H     H_    0.092684 0.522018 0.604438 0.144609
H11   H     H_    0.505859 0.112254 0.270797 0.168887
H12   H     H_    0.506146 0.887691 0.270875 0.165397
H13   H     H_    0.407117 0.887558 0.814102 0.167540
H14   H     H_    0.577684 0.884135 0.821368 0.200237
H15   H     H_    0.409910 0.110449 0.818115 0.098732
N1    N     N_R   0.500780 0.500930 0.147930 -0.185656
N2    N     N_R   0.500780 0.500890 0.852020 -0.185434
O1    O     O_R   0.500000 0.319640 0.618810 -0.587886
O2    O     O_R   0.500010 0.319680 0.381230 -0.589617
O3    O     O_R   0.321940 0.499980 0.618760 -0.586551
O4    O     O_R   0.321950 0.500020 0.381180 -0.580719
O5    O     O_R   0.499990 0.680320 0.618770 -0.579583
O6    O     O_R   0.500000 0.680360 0.381190 -0.588411
O7    O     O_R   0.678050 0.499980 0.618820 -0.588865
O8    O     O_R   0.678060 0.500020 0.381240 -0.579278
N3    N     N_2   0.605090 0.123481 0.841763 -0.403509
H16   H     H_    0.592013 0.212315 0.876425 0.262618
C23   C     C_3   0.723413 0.106720 0.775498 -0.636107
H17   H     H_    0.796195 0.138441 0.847878 0.210759
H18   H     H_    0.729465 0.162159 0.677927 0.219657
H19   H     H_    0.739945 0.008379 0.750970 0.224204

loop_
_geom_bond_atom_site_label_1
_geom_bond_atom_site_label_2
_ccdc_geom_bond_type
C2    C22   A    
N3    C23   S    
Cu1   Cu2   S    
C17   O7    A    
C15   H7    S    
C6    C7    S    
Cu1   O7    S    
C8    H15   S    
C11   H3    S    
C8    C22   S    
Cu1   N2    S    
C23   H19   S    
C3    H11   S    
C10   H2    S    
C13   N2    A    
C2    C3    A    
C7    H13   S    
Cu2   O4    S    
C7    C8    S    
C12   O3    A    
Cu1   O5    S    
C13   C14   S    
C23   H17   S    
Cu1   O1    S    
C18   H1    S    
C19   H8    S    
C16   O6    A    
Cu2   N1    S    
C7    H14   S    
C23   H18   S    
C11   N2    A    
C18   C20   S    
C9    C15   S    
C5    C6    A    
C4    H12   S    
C10   C11   A    
C20   H9    S    
C14   H5    S    
C16   O5    A    
C3    C4    A    
C6    C22   A    
C8    N3    S    
C1    O1    A    
C18   C19   D    
C20   C21   D    
C15   H6    S    
C10   N1    A    
C1    C2    S    
C17   O8    A    
Cu2   O8    S    
C12   O4    A    
Cu2   O2    S    
C9    C13   A    
C14   C15   S    
C17   C19   S    
C5    C16   S    
C21   H10   S    
N3    H16   S    
C14   H4    S    
Cu2   O6    S    
C12   C21   S    
C1    O2    A    
C9    N1    A    
Cu1   O3    S    
C4    C5    A    
