data_mof_unit_51515.cif
_audit_creation_date              2013-03-05T15:52:46-0500
_audit_creation_method            fapswitch 2.2
_symmetry_space_group_name_H-M    P1
_symmetry_Int_Tables_number       1
_space_group_crystal_system       triclinic
_cell_length_a                    6.943082
_cell_length_b                    14.7669
_cell_length_c                    21.302965
_cell_angle_alpha                 74.79788
_cell_angle_beta                  90.400302
_cell_angle_gamma                 90.685683
_cell_volume                      2107.54811354

loop_
_atom_site_label
_atom_site_type_symbol
_atom_site_description
_atom_site_fract_x
_atom_site_fract_y
_atom_site_fract_z
_atom_type_partial_charge
O1    O     O_R   0.648150 0.130050 0.214300 -0.597301
O2    O     O_R   0.351850 0.869950 0.785700 -0.597302
O3    O     O_R   0.320490 0.006660 0.340150 -0.601858
O4    O     O_R   0.679510 0.993340 0.659850 -0.601858
O5    O     O_R   0.146100 0.869940 0.285700 -0.598955
O6    O     O_R   0.853900 0.130060 0.714300 -0.598952
C1    C     C_R   0.489375 0.001587 0.367139 0.899390
C2    C     C_R   0.510625 0.998413 0.632861 0.899390
O7    O     O_R   0.318690 0.137980 0.218120 -0.599424
O8    O     O_R   0.681310 0.862020 0.781880 -0.599425
O9    O     O_R   0.144280 0.002190 0.162800 -0.600518
O10   O     O_R   0.855720 0.997810 0.837200 -0.600517
C3    C     C_R   0.488528 0.175610 0.206173 0.925337
C4    C     C_R   0.511472 0.824390 0.793827 0.925338
O11   O     O_R   0.649960 0.997790 0.337200 -0.602914
O12   O     O_R   0.350040 0.002210 0.662800 -0.602914
O13   O     O_3   0.479300 0.955290 0.231990 -0.261872
O14   O     O_3   0.520700 0.044710 0.768010 -0.261875
V1    V     V_3+5 0.206040 0.008290 0.253340 1.170833
V2    V     V_3+5 0.793960 0.991710 0.746660 1.170833
O15   O     O_R   0.814320 0.993320 0.159850 -0.586885
O16   O     O_R   0.185680 0.006680 0.840150 -0.586885
C5    C     C_R   0.982470 0.998544 0.132802 0.988667
C6    C     C_R   0.017530 0.001455 0.867198 0.988693
O17   O     O_R   0.816120 0.862000 0.281880 -0.579265
O18   O     O_R   0.183880 0.138000 0.718120 -0.579272
C7    C     C_R   0.984294 0.824206 0.293761 1.051305
C8    C     C_R   0.015706 0.175794 0.706239 1.051336
V3    V     V_3+5 0.705540 0.991700 0.246660 1.191432
V4    V     V_3+5 0.294460 0.008300 0.753340 1.191426
O19   O     O_3   0.982150 0.044700 0.268010 -0.289548
O20   O     O_3   0.017850 0.955300 0.731990 -0.289550
C9    C     C_R   0.991555 0.722054 0.320140 -0.268331
C10   C     C_R   0.008447 0.277946 0.679862 -0.268339
C11   C     C_R   0.030757 0.564637 0.308727 -0.304742
C12   C     C_R   0.969284 0.435366 0.691274 -0.304750
C13   C     C_R   0.014154 0.660994 0.279718 0.361569
C14   C     C_R   0.985873 0.339008 0.720284 0.361558
C15   C     C_R   0.983660 0.686229 0.387834 -0.298015
C16   C     C_R   0.016336 0.313771 0.612167 -0.298020
C17   C     C_R   0.998602 0.588912 0.417686 0.131212
C18   C     C_R   0.001414 0.411089 0.582315 0.131217
C19   C     C_R   0.023034 0.528562 0.376521 0.137871
C20   C     C_R   0.976998 0.471440 0.623480 0.137872
C21   C     C_R   0.991197 0.549664 0.486763 0.071195
C22   C     C_R   0.008824 0.450337 0.513238 0.071192
C23   C     C_R   0.033387 0.393709 0.469756 -0.212325
C24   C     C_R   0.966646 0.606293 0.530245 -0.212323
C25   C     C_R   0.039915 0.432206 0.403024 -0.208961
C26   C     C_R   0.960126 0.567797 0.596977 -0.208965
H1    H     H_    0.058857 0.385721 0.371731 0.131045
H2    H     H_    0.941197 0.614282 0.628270 0.131045
H3    H     H_    0.047822 0.517106 0.278093 0.167460
H4    H     H_    0.952234 0.482899 0.721907 0.167471
H5    H     H_    0.048511 0.318723 0.485443 0.125455
H6    H     H_    0.951533 0.681280 0.514558 0.125454
C27   C     C_3   0.921293 0.920603 0.991463 -0.125609
C28   C     C_3   0.078707 0.079395 0.008537 -0.125604
C29   C     C_3   0.096852 0.925898 0.035758 -0.073221
C30   C     C_3   0.903148 0.074100 0.964242 -0.073210
H7    H     H_    0.176671 0.864792 0.065647 0.158622
H8    H     H_    0.823328 0.135207 0.934354 0.158619
H9    H     H_    0.856334 0.855126 0.983991 0.115058
H10   H     H_    0.143666 0.144873 0.016009 0.115057
C31   C     C_3   0.990696 0.998983 0.062197 -0.112831
C32   C     C_3   0.009304 0.001015 0.937803 -0.112833
C33   C     C_3   0.814955 0.993696 0.018709 -0.122222
C34   C     C_3   0.185045 0.006303 0.981292 -0.122220
C35   C     C_3   0.681321 0.995526 0.479410 -0.101811
C36   C     C_3   0.318679 0.004474 0.520590 -0.101812
C37   C     C_3   0.602005 0.074034 0.507807 -0.131074
C38   C     C_3   0.397995 0.925966 0.492193 -0.131073
H11   H     H_    0.830933 0.991916 0.462199 0.110206
H12   H     H_    0.169067 0.008084 0.537801 0.110206
C39   C     C_3   0.502369 0.998985 0.562266 -0.076690
C40   C     C_3   0.497631 0.001015 0.437734 -0.076690
C41   C     C_3   0.581748 0.920489 0.534688 -0.140477
C42   C     C_3   0.418252 0.079511 0.465312 -0.140477
H13   H     H_    0.648861 0.854819 0.563763 0.102213
H14   H     H_    0.351139 0.145181 0.436237 0.102212
C43   C     C_R   0.502578 0.276946 0.178527 -0.089581
C44   C     C_R   0.497422 0.723054 0.821473 -0.089581
C45   C     C_R   0.594238 0.430289 0.189146 -0.132014
C46   C     C_R   0.405757 0.569712 0.810854 -0.132009
C47   C     C_R   0.564708 0.334889 0.217032 -0.186784
C48   C     C_R   0.435289 0.665111 0.782968 -0.186782
C49   C     C_R   0.470336 0.314192 0.111950 -0.235409
C50   C     C_R   0.529664 0.685807 0.888050 -0.235408
C51   C     C_R   0.503406 0.410618 0.081889 0.111670
C52   C     C_R   0.496590 0.589382 0.918111 0.111671
C53   C     C_R   0.565888 0.468361 0.122108 0.159053
C54   C     C_R   0.434107 0.531640 0.877892 0.159058
C55   C     C_R   0.480052 0.451086 0.013453 0.054399
C56   C     C_R   0.519944 0.548914 0.986547 0.054396
C57   C     C_R   0.580985 0.603024 0.028987 -0.183810
C58   C     C_R   0.419009 0.396976 0.971013 -0.183811
C59   C     C_R   0.602743 0.563413 0.095221 -0.151488
C60   C     C_R   0.397251 0.436588 0.904779 -0.151490
H15   H     H_    0.650738 0.607756 0.125713 0.172505
H16   H     H_    0.349254 0.392245 0.874287 0.172503
H17   H     H_    0.574762 0.734898 0.914872 0.098488
H18   H     H_    0.425241 0.265101 0.085128 0.098488
H19   H     H_    0.407819 0.693995 0.731502 0.106092
H20   H     H_    0.592178 0.306005 0.268498 0.106093
H21   H     H_    0.642916 0.474167 0.219844 0.128609
H22   H     H_    0.357077 0.525834 0.780156 0.128608
H23   H     H_    0.614435 0.676773 0.012796 0.132864
H24   H     H_    0.385557 0.323228 0.987204 0.132862
H25   H     H_    0.032369 0.263027 0.584387 0.115407
H26   H     H_    0.967605 0.736973 0.415613 0.115410
N1    N     N_R   0.978861 0.305081 0.790185 0.216843
O21   O     O_R   0.074121 0.231012 0.820529 -0.462080
O22   O     O_R   0.892336 0.353524 0.824420 -0.424035
N2    N     N_R   0.021176 0.694922 0.209818 0.216834
O23   O     O_R   0.925817 0.768962 0.179472 -0.462059
O24   O     O_R   0.107803 0.646510 0.175586 -0.424027
H27   H     H_    0.662233 0.988384 0.034474 0.122508
H28   H     H_    0.337767 0.011615 0.965526 0.122505
H29   H     H_    0.686034 0.135166 0.514738 0.102714
H30   H     H_    0.313966 0.864834 0.485262 0.102714

loop_
_geom_bond_atom_site_label_1
_geom_bond_atom_site_label_2
_geom_bond_distance
_ccdc_geom_bond_type
C32   C34   1.540486 S    
C55   C56   1.431982 A    
C52   C56   1.432120 A    
C36   C42   1.549566 S    
O13   V3    1.707401 S    
C35   C41   1.549566 S    
N1    O21   1.300841 A    
C27   C32   1.539686 S    
O4    C2    1.296617 A    
V1    O19   1.708241 S    
N2    O23   1.300893 A    
C54   C60   1.391230 A    
C23   C25   1.386576 A    
C21   C22   1.433159 A    
C7    C9    1.466514 S    
O9    V1    1.997694 S    
C9    C15   1.401002 A    
C10   C16   1.401009 A    
C11   C13   1.400575 A    
C46   C48   1.391197 A    
O3    C1    1.296617 A    
C42   H14   1.110380 S    
C27   C29   1.550046 S    
C11   H3    1.084358 S    
C28   C30   1.550047 S    
C3    C43   1.459704 S    
C35   C40   1.539570 S    
C30   H8    1.110176 S    
C18   C22   1.434228 A    
C35   C37   1.549513 S    
O7    C3    1.295533 A    
C34   H28   1.110170 S    
O5    C7    1.292826 A    
C52   C54   1.420707 A    
O7    V1    2.015224 S    
C15   H26   1.076838 S    
O6    C8    1.292828 A    
C30   C33   1.549511 S    
O8    V2    2.015224 S    
C31   C33   1.540486 S    
C58   C60   1.386403 A    
C36   H12   1.110508 S    
C46   H22   1.084256 S    
O3    V1    2.002136 S    
O14   V4    1.707400 S    
C51   C53   1.420707 A    
C11   C19   1.403325 A    
C1    C40   1.502397 S    
C6    C32   1.503890 S    
C24   C26   1.386573 A    
C58   H24   1.075632 S    
C8    C10   1.466518 S    
C2    O12   1.297391 A    
C28   H10   1.110369 S    
C17   C19   1.416883 A    
C38   H30   1.110487 S    
C18   C20   1.416881 A    
C27   C33   1.549389 S    
C48   H19   1.083563 S    
C59   H15   1.084713 S    
O11   V3    1.994833 S    
C41   H13   1.110380 S    
O17   V3    2.023402 S    
C29   H7    1.110178 S    
V4    O20   2.155531 S    
C15   C17   1.415532 A    
O8    C4    1.295534 A    
C19   C25   1.392432 A    
C13   N2    1.442184 S    
C25   H1    1.084570 S    
C44   C48   1.394755 A    
O15   V3    1.996708 S    
C2    C39   1.502397 S    
C9    C13   1.411230 A    
C45   H21   1.084254 S    
C38   C41   1.549739 S    
C29   C34   1.549511 S    
C49   H18   1.076725 S    
C39   C41   1.539303 S    
C28   C31   1.539685 S    
C26   H2    1.084570 S    
O10   V2    1.997694 S    
O1    V3    2.021105 S    
C38   C40   1.539888 S    
N1    O22   1.301733 A    
C53   C59   1.391229 A    
C35   H11   1.110508 S    
C33   H27   1.110171 S    
C43   C49   1.397705 A    
C47   H20   1.083562 S    
C57   H23   1.075631 S    
C28   C34   1.549388 S    
C45   C47   1.391198 A    
C50   C52   1.416456 A    
O18   V4    2.023402 S    
C55   C58   1.414511 A    
C60   H16   1.084712 S    
O15   C5    1.298034 A    
O16   C6    1.298036 A    
C12   C20   1.403323 A    
O1    C3    1.290328 A    
C4    C44   1.459704 S    
O6    V2    2.016757 S    
C23   H5    1.075667 S    
V2    O20   1.708242 S    
C21   C24   1.413586 A    
C20   C26   1.392431 A    
C24   H6    1.075666 S    
C22   C23   1.413586 A    
O16   V4    1.996704 S    
C10   C14   1.411250 A    
C50   H17   1.076726 S    
C27   H9    1.110367 S    
C40   C42   1.539303 S    
C16   C18   1.415531 A    
N2    O24   1.301723 A    
C57   C59   1.386405 A    
C16   H25   1.076837 S    
O5    V1    2.016757 S    
O17   C7    1.294726 A    
C45   C53   1.404274 A    
O10   C6    1.296147 A    
O18   C8    1.294725 A    
C37   H29   1.110485 S    
O2    V4    2.021107 S    
C5    C31   1.503890 S    
C12   C14   1.400579 A    
V3    O19   2.155532 S    
C29   C31   1.539111 S    
C37   C39   1.539889 S    
C44   C50   1.397705 A    
C1    O11   1.297390 A    
O9    C5    1.296147 A    
O13   V1    2.157150 S    
O14   V2    2.157149 S    
C51   C55   1.432121 A    
C56   C57   1.414511 A    
O2    C4    1.290326 A    
C12   H4    1.084357 S    
C30   C32   1.539112 S    
O4    V2    2.002139 S    
C36   C39   1.539570 S    
C49   C51   1.416456 A    
C17   C21   1.434229 A    
C36   C38   1.549511 S    
C46   C54   1.404274 A    
C14   N1    1.442197 S    
O12   V4    1.994833 S    
C37   C42   1.549739 S    
C43   C47   1.394755 A    
