data_mof_unit_28542.cif
_audit_creation_date              2012-10-26T19:11:54-0400
_audit_creation_method            fapswitch 2.2
_symmetry_space_group_name_H-M    P1
_symmetry_Int_Tables_number       1
_space_group_crystal_system       triclinic
_cell_length_a                    27.782856
_cell_length_b                    15.873404
_cell_length_c                    14.634854
_cell_angle_alpha                 90.477635
_cell_angle_beta                  89.965458
_cell_angle_gamma                 89.818733
_cell_volume                      6453.8371393

loop_
_atom_site_label
_atom_site_type_symbol
_atom_type_description
_atom_site_fract_x
_atom_site_fract_y
_atom_site_fract_z
_atom_type_partial_charge
C1    C     C_R   0.499889 0.339525 0.499668 0.537671
C2    C     C_R   0.872454 0.481711 0.415789 0.030686
C3    C     C_R   0.354667 0.501180 0.500123 0.016339
C4    C     C_R   0.645268 0.498947 0.499777 0.017315
C5    C     C_R   0.975125 0.477594 0.420540 0.001369
C6    C     C_R   0.024839 0.532184 0.579701 0.001735
C7    C     C_R   0.973684 0.527521 0.579926 0.018104
C8    C     C_R   0.026142 0.471052 0.424882 0.017626
C9    C     C_R   0.948976 0.502710 0.499066 0.028610
C10   C     C_R   0.050920 0.501286 0.503460 0.028618
C11   C     C_R   0.949528 0.461140 0.339225 -0.123401
C12   C     C_R   0.500112 0.660483 0.500356 0.537681
C13   C     C_R   0.050685 0.568059 0.653123 -0.123016
C14   C     C_R   0.899219 0.462434 0.335455 -0.002561
C15   C     C_R   0.101020 0.569206 0.655682 -0.002639
C16   C     C_R   0.407505 0.500391 0.500024 0.538823
C17   C     C_R   0.592471 0.499700 0.499957 0.538653
C18   C     C_R   0.053339 0.433993 0.353444 -0.148111
C19   C     C_R   0.946234 0.545943 0.658966 -0.147619
C20   C     C_3   0.533998 0.973530 0.558154 0.028035
C21   C     C_3   0.465913 0.026538 0.442868 0.028035
C22   C     C_3   0.543548 0.028187 0.472735 -0.100766
C23   C     C_R   0.102153 0.500592 0.505463 -0.041522
C24   C     C_3   0.456369 0.971870 0.528269 -0.100812
C25   C     C_1   0.499709 0.250056 0.499047 -0.047195
C26   C     C_1   0.500269 0.749967 0.501160 -0.047094
C27   C     C_3   0.490517 0.029222 0.584377 0.026324
C28   C     C_3   0.509391 0.970865 0.416610 0.026420
C29   C     C_3   0.499616 0.083163 0.499445 0.038932
C30   C     C_3   0.500305 0.916890 0.501544 0.038856
C31   C     C_1   0.499615 0.174668 0.498974 -0.076334
C32   C     C_1   0.500336 0.825367 0.501625 -0.076269
C33   C     C_3   0.460682 0.539456 0.970010 0.017012
C34   C     C_R   0.897743 0.502925 0.497029 -0.041492
C35   C     C_3   0.539283 0.460521 0.029986 0.017161
C36   C     C_3   0.460274 0.459610 0.030463 -0.104148
C37   C     C_3   0.539691 0.540369 0.969536 -0.103822
C38   C     C_3   0.499820 0.579178 0.031592 0.023730
C39   C     C_3   0.500144 0.420802 0.968403 0.023815
C40   C     C_R   0.178261 0.466430 0.431776 0.384230
C41   C     C_R   0.821465 0.524190 0.575406 0.384086
C42   C     C_3   0.499899 0.499636 0.091761 0.005760
C43   C     C_3   0.500067 0.500345 0.908237 0.005782
C44   C     C_1   0.499927 0.499711 0.194287 0.110804
C45   C     C_R   0.127940 0.466255 0.430714 0.023304
C46   C     C_1   0.500057 0.500281 0.805713 0.111055
C47   C     C_R   0.178713 0.531806 0.579071 0.381565
C48   C     C_R   0.821360 0.481291 0.418864 0.381655
C49   C     C_R   0.278504 0.573914 0.469067 0.062390
C50   C     C_R   0.721413 0.424391 0.525336 0.062605
C51   C     C_R   0.329666 0.573502 0.468735 -0.024250
C52   C     C_R   0.670250 0.424745 0.525540 -0.024129
C53   C     C_R   0.329615 0.429685 0.531828 -0.046522
C54   C     C_R   0.670271 0.572200 0.473089 -0.046337
C55   C     C_R   0.279236 0.431946 0.532504 -0.051847
C56   C     C_R   0.871786 0.524538 0.576841 0.023153
C57   C     C_R   0.720651 0.570520 0.473884 -0.051855
C58   C     C_R   0.253973 0.502382 0.502033 0.228532
C59   C     C_R   0.745932 0.498383 0.499334 0.228809
C60   C     C_3   0.357805 0.352358 0.563337 -0.245816
C61   C     C_3   0.327907 0.274323 0.587331 -0.313899
C62   C     C_3   0.360442 0.201073 0.614779 -0.455419
C63   C     C_3   0.641987 0.650489 0.444797 -0.246902
C64   C     C_3   0.671857 0.728574 0.420877 -0.313771
C65   C     C_3   0.639328 0.801439 0.392282 -0.455381
C66   C     C_3   0.572331 0.939815 0.623469 -0.250158
C67   C     C_R   0.103156 0.432101 0.356277 -0.118825
C68   C     C_3   0.606248 0.009603 0.656568 -0.299446
C69   C     C_3   0.643927 0.975014 0.722219 -0.453557
C70   C     C_3   0.427464 0.060553 0.377999 -0.250131
C71   C     C_3   0.393779 0.990778 0.344017 -0.299656
C72   C     C_3   0.355878 0.025760 0.279073 -0.453213
C73   C     C_3   0.521291 0.936771 0.321715 -0.411142
C74   C     C_3   0.478602 0.063381 0.679240 -0.411176
C75   C     C_3   0.415178 0.582452 0.935974 -0.401393
C76   C     C_3   0.584782 0.417512 0.064021 -0.401102
C77   C     C_3   0.500035 0.331462 0.928272 -0.250956
C78   C     C_R   0.896394 0.544924 0.657107 -0.119211
C79   C     C_3   0.491586 0.264666 0.001462 -0.295814
C80   C     C_3   0.491674 0.176304 0.959507 -0.458150
C81   C     C_3   0.499918 0.668529 0.071690 -0.250982
C82   C     C_3   0.508373 0.735298 0.998471 -0.295748
C83   C     C_3   0.508234 0.823682 0.040367 -0.458105
C84   C     C_3   0.641063 0.347247 0.550127 -0.394503
C85   C     C_3   0.358786 0.649085 0.437767 -0.392375
C86   C     C_3   0.750232 0.346493 0.551577 -0.229133
C87   C     C_3   0.750871 0.334394 0.655559 -0.298734
C88   C     C_3   0.776840 0.253097 0.681027 -0.463062
C89   C     C_R   0.127613 0.533969 0.581602 0.030217
C90   C     C_3   0.249665 0.648763 0.434063 -0.229089
C91   C     C_3   0.249686 0.651031 0.329220 -0.300144
C92   C     C_3   0.222707 0.728141 0.294231 -0.461708
C93   C     C_3   0.876128 0.443420 0.243989 -0.351246
C94   C     C_3   0.124339 0.609550 0.738524 -0.351909
Cu1   Cu    Cu3+1 0.500010 0.500000 0.590220 0.957623
Cu2   Cu    Cu3+1 0.499990 0.500000 0.409780 0.956838
H1    H     H_    0.427519 0.426939 0.055041 0.102111
H2    H     H_    0.962130 0.559105 0.724634 0.104084
H3    H     H_    0.578943 0.052122 0.449373 0.096010
H4    H     H_    0.420971 0.947939 0.551615 0.096586
H5    H     H_    0.385506 0.184420 0.558286 0.153161
H6    H     H_    0.381661 0.218203 0.676472 0.150951
H7    H     H_    0.338153 0.145101 0.630525 0.142536
H8    H     H_    0.303543 0.289103 0.645606 0.163429
H9    H     H_    0.306113 0.254561 0.527219 0.168266
H10   H     H_    0.383269 0.333934 0.507919 0.148490
H11   H     H_    0.379289 0.370395 0.624441 0.170925
H12   H     H_    0.572446 0.573040 0.944958 0.102679
H13   H     H_    0.619080 0.784276 0.329432 0.150900
H14   H     H_    0.613366 0.817290 0.447501 0.153549
H15   H     H_    0.661512 0.857884 0.378020 0.142234
H16   H     H_    0.693292 0.748743 0.481295 0.165292
H17   H     H_    0.696553 0.713687 0.363133 0.165703
H18   H     H_    0.619763 0.633820 0.384197 0.171331
H19   H     H_    0.617198 0.668026 0.501620 0.147477
H20   H     H_    0.626223 0.947834 0.783292 0.151000
H21   H     H_    0.665979 0.925597 0.687805 0.156378
H22   H     H_    0.668068 0.026741 0.744868 0.140189
H23   H     H_    0.258453 0.379111 0.556480 0.121260
H24   H     H_    0.624985 0.037912 0.597207 0.155595
H25   H     H_    0.585474 0.059893 0.692124 0.162122
H26   H     H_    0.554072 0.910416 0.682723 0.144111
H27   H     H_    0.593596 0.890436 0.587387 0.138300
H28   H     H_    0.333664 0.074439 0.314337 0.157147
H29   H     H_    0.373393 0.053977 0.218366 0.151082
H30   H     H_    0.331925 0.974026 0.255714 0.139962
H31   H     H_    0.414704 0.941215 0.307590 0.161969
H32   H     H_    0.375242 0.961463 0.403018 0.156086
H33   H     H_    0.406049 0.109316 0.414828 0.138767
H34   H     H_    0.741429 0.625020 0.454683 0.120431
H35   H     H_    0.445611 0.090784 0.319123 0.144195
H36   H     H_    0.521642 0.989202 0.272055 0.124587
H37   H     H_    0.557258 0.906346 0.322659 0.126486
H38   H     H_    0.494194 0.889382 0.300467 0.127834
H39   H     H_    0.478132 0.010959 0.728907 0.124571
H40   H     H_    0.505757 0.110640 0.700559 0.127866
H41   H     H_    0.442682 0.093969 0.678198 0.126558
H42   H     H_    0.395131 0.610039 0.994660 0.128154
H43   H     H_    0.424555 0.632847 0.887149 0.130688
H44   H     H_    0.392092 0.535517 0.900594 0.138144
H45   H     H_    0.122239 0.403524 0.299286 0.160589
H46   H     H_    0.604830 0.389930 0.005333 0.128826
H47   H     H_    0.607870 0.464436 0.099414 0.138812
H48   H     H_    0.575399 0.367110 0.112833 0.130285
H49   H     H_    0.462661 0.170377 0.907653 0.150072
H50   H     H_    0.526940 0.162681 0.926652 0.148701
H51   H     H_    0.485396 0.129138 0.013811 0.138840
H52   H     H_    0.520231 0.268157 0.054118 0.164368
H53   H     H_    0.456306 0.275911 0.035315 0.158834
H54   H     H_    0.470976 0.327330 0.876272 0.142338
H55   H     H_    0.535060 0.319855 0.893605 0.142118
H56   H     H_    0.877148 0.559757 0.719652 0.159930
H57   H     H_    0.472947 0.837284 0.073150 0.148605
H58   H     H_    0.537220 0.829668 0.092268 0.150198
H59   H     H_    0.514523 0.870824 0.986042 0.138807
H60   H     H_    0.543671 0.724075 0.964677 0.158891
H61   H     H_    0.479752 0.731749 0.945771 0.164418
H62   H     H_    0.464888 0.680140 0.106334 0.141661
H63   H     H_    0.528970 0.672687 0.123702 0.142724
H64   H     H_    0.618985 0.360838 0.611770 0.150381
H65   H     H_    0.616778 0.330524 0.492562 0.133926
H66   H     H_    0.662523 0.290385 0.564982 0.114655
H67   H     H_    0.968249 0.449452 0.275908 0.107164
H68   H     H_    0.380298 0.631687 0.376504 0.151840
H69   H     H_    0.337312 0.705039 0.419502 0.113779
H70   H     H_    0.383555 0.669161 0.493309 0.133315
H71   H     H_    0.758073 0.197882 0.650662 0.149390
H72   H     H_    0.814629 0.254330 0.656218 0.158288
H73   H     H_    0.777139 0.246392 0.756487 0.147180
H74   H     H_    0.769698 0.388264 0.688476 0.209564
H75   H     H_    0.713727 0.332433 0.683411 0.163655
H76   H     H_    0.735963 0.290028 0.515656 0.133666
H77   H     H_    0.788069 0.350617 0.527874 0.160106
H78   H     H_    0.032227 0.598608 0.709016 0.107220
H79   H     H_    0.184721 0.727276 0.317955 0.158032
H80   H     H_    0.240303 0.786778 0.318993 0.149421
H81   H     H_    0.223030 0.727809 0.218360 0.147515
H82   H     H_    0.287031 0.652277 0.302276 0.163330
H83   H     H_    0.231956 0.593391 0.302042 0.205631
H84   H     H_    0.211671 0.646486 0.457045 0.160528
H85   H     H_    0.263448 0.708398 0.464046 0.133855
H86   H     H_    0.903111 0.432520 0.189079 0.096151
H87   H     H_    0.854262 0.385187 0.248366 0.175555
H88   H     H_    0.853557 0.497528 0.222348 0.174432
H89   H     H_    0.037164 0.403548 0.295047 0.104765
H90   H     H_    0.097503 0.634708 0.788071 0.095955
H91   H     H_    0.146206 0.562227 0.775607 0.178055
H92   H     H_    0.146947 0.663521 0.717302 0.171250
N1    N     N_R   0.202339 0.499900 0.504441 -0.402297
N2    N     N_R   0.797565 0.501386 0.497884 -0.402411
N3    N     N_1   0.499980 0.500000 0.274190 -0.198404
N4    N     N_1   0.500020 0.500000 0.725810 -0.198275
O1    O     O_R   0.500010 0.379080 0.576170 -0.498414
O2    O     O_2   0.796416 0.546331 0.650995 -0.523735
O3    O     O_2   0.795185 0.460302 0.344666 -0.525139
O4    O     O_2   0.205079 0.561516 0.649465 -0.524822
O5    O     O_R   0.499990 0.620920 0.423830 -0.498543
O6    O     O_R   0.500000 0.379080 0.423800 -0.487716
O7    O     O_R   0.500000 0.620920 0.576200 -0.487617
O8    O     O_R   0.430270 0.500020 0.576180 -0.498038
O9    O     O_R   0.569730 0.499980 0.423820 -0.497864
O10   O     O_R   0.430260 0.500010 0.423810 -0.494117
O11   O     O_R   0.569740 0.499990 0.576190 -0.493234
O12   O     O_2   0.203140 0.433810 0.360466 -0.522546

loop_
_geom_bond_atom_site_label_1
_geom_bond_atom_site_label_2
_ccdc_geom_bond_type
C25   C31   T    
C66   C68   S    
C87   C88   S    
C69   H20   S    
C34   C56   A    
C81   H63   S    
C22   C29   S    
C27   C29   S    
C3    C53   A    
C77   H54   S    
C36   C42   S    
C1    O6    A    
C24   C27   S    
C49   C90   S    
C71   H31   S    
C51   C85   S    
C15   C94   S    
C81   C82   S    
C84   H64   S    
C78   H56   S    
Cu2   O9    S    
C83   H58   S    
C55   H23   S    
C92   H80   S    
C26   C32   T    
C37   C38   S    
C41   N2    A    
C4    C52   A    
C23   C45   A    
C50   C59   A    
C39   C77   S    
Cu2   N3    S    
C20   C66   S    
C35   C37   S    
C94   H92   S    
C38   C42   S    
C75   H44   S    
C20   C22   S    
C44   N3    T    
C93   H88   S    
C57   C59   A    
C83   H59   S    
C54   C63   S    
Cu1   O11   S    
C91   H82   S    
C69   H22   S    
C22   H3    S    
C33   C36   S    
C56   C78   A    
C52   C84   S    
C17   O11   A    
C35   C42   S    
C65   H15   S    
C63   H18   S    
C19   H2    S    
C80   H51   S    
C40   N1    A    
Cu1   Cu2   S    
C68   C69   S    
C49   C51   A    
C91   H83   S    
C45   C67   A    
C50   C52   A    
C12   O5    A    
C66   H26   S    
C70   C71   S    
C64   H17   S    
C27   C74   S    
C61   H9    S    
C14   C93   S    
C48   N2    A    
C16   O8    A    
C79   H53   S    
C62   H5    S    
C82   H60   S    
C2    C34   A    
C80   H50   S    
C73   H36   S    
Cu1   O1    S    
C22   C28   S    
C72   H28   S    
C1    C25   S    
C47   C89   A    
C77   H55   S    
C40   C45   A    
C42   C44   S    
C16   O10   A    
C28   C73   S    
C53   C60   S    
C33   C75   S    
C53   C55   A    
C92   H79   S    
Cu2   O5    S    
C74   H41   S    
C90   H84   S    
C35   C76   S    
C33   C43   S    
C40   O12   S    
C57   H34   S    
C61   H8    S    
C94   H91   S    
C37   H12   S    
C91   C92   S    
C82   H61   S    
C3    C51   A    
C86   C87   S    
Cu1   O8    S    
C39   C43   S    
C88   H72   S    
C18   C67   A    
C87   H74   S    
C21   C29   S    
C70   H33   S    
C8    C18   A    
C49   C58   A    
C63   C64   S    
C74   H40   S    
C60   C61   S    
C47   N1    A    
C19   C78   A    
C35   C39   S    
C3    C16   S    
C41   C56   A    
C5    C9    A    
C41   O2    S    
C84   H66   S    
C15   C89   A    
C93   H86   S    
C47   O4    S    
C90   H85   S    
C29   C31   S    
C88   H71   S    
C87   H75   S    
C74   H39   S    
C58   N1    S    
C11   H67   S    
C23   C89   A    
Cu2   O6    S    
C77   C79   S    
C17   O9    A    
C65   H13   S    
C36   H1    S    
C60   H11   S    
Cu1   N4    S    
C4    C17   S    
C76   H48   S    
C8    C10   A    
C80   H49   S    
C21   C28   S    
C73   H37   S    
C7    C19   A    
C13   C15   A    
C48   O3    S    
C9    C34   A    
C86   H76   S    
C37   C43   S    
C21   C24   S    
C85   H70   S    
C67   H45   S    
C60   H10   S    
C13   H78   S    
C62   H7    S    
C2    C14   A    
C7    C9    A    
C81   H62   S    
C4    C54   A    
C24   H4    S    
C36   C39   S    
C94   H90   S    
C46   N4    T    
C75   H42   S    
C68   H25   S    
C6    C10   A    
C5    C8    A    
C88   H73   S    
C5    C11   A    
C6    C7    A    
C83   H57   S    
C20   C27   S    
C10   C23   A    
C21   C70   S    
C18   H89   S    
C33   C38   S    
C72   H29   S    
C86   H77   S    
C2    C48   A    
C64   C65   S    
C28   C30   S    
C85   H69   S    
Cu2   O10   S    
C38   C81   S    
C75   H43   S    
C68   H24   S    
C6    C13   A    
C30   C32   S    
C93   H87   S    
C90   C91   S    
C63   H19   S    
C69   H21   S    
C70   H35   S    
C11   C14   A    
C12   O7    A    
C79   H52   S    
C61   C62   S    
C71   H32   S    
C43   C46   S    
C24   C30   S    
C65   H14   S    
C64   H16   S    
C92   H81   S    
C50   C86   S    
C79   C80   S    
C66   H27   S    
C76   H47   S    
C72   H30   S    
C71   C72   S    
C73   H38   S    
Cu1   O7    S    
C82   C83   S    
C55   C58   A    
C12   C26   S    
C20   C30   S    
C85   H68   S    
C1    O1    A    
C59   N2    S    
C84   H65   S    
C62   H6    S    
C54   C57   A    
C76   H46   S    
