data_mof_unit_5824.cif
_audit_creation_date              2012-12-10T16:59:59-0500
_audit_creation_method            fapswitch 2.2
_symmetry_space_group_name_H-M    P1
_symmetry_Int_Tables_number       1
_space_group_crystal_system       triclinic
_cell_length_a                    23.550018
_cell_length_b                    10.901659
_cell_length_c                    9.700366
_cell_angle_alpha                 90.494143
_cell_angle_beta                  89.875932
_cell_angle_gamma                 90.580772
_cell_volume                      2490.19041109

loop_
_atom_site_label
_atom_site_type_symbol
_atom_type_description
_atom_site_fract_x
_atom_site_fract_y
_atom_site_fract_z
_atom_type_partial_charge
C1    C     C_R   0.501502 0.265218 0.499056 0.879308
C2    C     C_R   0.971542 0.273212 0.414464 -0.168654
C3    C     C_R   0.030610 0.274776 0.421346 -0.157073
C4    C     C_R   0.060022 0.381332 0.463896 -0.003276
C5    C     C_R   0.029552 0.487077 0.501727 -0.040102
C6    C     C_R   0.058810 0.596331 0.539687 -0.063846
C7    C     C_R   0.026607 0.700007 0.582820 0.144663
C8    C     C_R   0.967409 0.692454 0.586651 -0.127370
C9    C     C_R   0.119379 0.384178 0.469895 0.533441
C10   C     C_R   0.118860 0.596746 0.532157 0.532848
C11   C     C_R   0.238723 0.538718 0.617463 -0.203935
C12   C     C_R   0.391034 0.500818 0.500380 0.845664
C13   C     C_R   0.298401 0.543492 0.618251 0.417921
C14   C     C_R   0.328503 0.499969 0.502032 -0.114051
C15   C     C_R   0.298683 0.452992 0.387924 -0.309571
C16   C     C_R   0.239577 0.450776 0.387503 -0.099864
C17   C     C_R   0.209047 0.492632 0.502549 0.297622
C18   C     C_R   0.758870 0.398872 0.583219 0.376622
C19   C     C_R   0.699265 0.413622 0.591610 0.248247
C20   C     C_R   0.671505 0.492785 0.499249 -0.219122
C21   C     C_R   0.704131 0.565291 0.407711 0.071695
C22   C     C_R   0.762951 0.555600 0.406703 -0.161643
C23   C     C_R   0.502831 0.734897 0.500202 0.889664
C24   C     C_R   0.790529 0.474507 0.494210 0.182618
C25   C     C_2   0.520431 0.933314 0.386414 0.481436
C26   C     C_2   0.512701 0.866798 0.501890 -0.482158
C27   C     C_2   0.527630 0.067346 0.394893 0.117998
C28   C     C_2   0.501670 0.132343 0.495944 -0.402209
C29   C     C_2   0.472075 0.420814 0.923605 0.019027
C30   C     C_2   0.465200 0.433646 0.077496 -0.055544
C31   C     C_R   0.608968 0.499305 0.499818 0.851948
C32   C     C_R   0.879042 0.578776 0.546335 0.568896
C33   C     C_R   0.881005 0.377252 0.448517 0.582733
C34   C     C_R   0.940532 0.376760 0.454555 -0.011935
C35   C     C_R   0.969549 0.483098 0.500849 -0.019441
C36   C     C_R   0.938555 0.585575 0.545064 -0.082503
Cu1   Cu    Cu3+1 0.500010 0.500020 0.638630 0.950868
Cu2   Cu    Cu3+1 0.499990 0.499980 0.361370 0.933831
H1    H     H_    0.950270 0.190129 0.379381 0.185449
H2    H     H_    0.787834 0.613805 0.339063 0.184811
H3    H     H_    0.517233 0.909250 0.602961 0.122311
H4    H     H_    0.477507 0.087485 0.576733 0.130256
H5    H     H_    0.452388 0.341495 0.874460 0.108050
H6    H     H_    0.431407 0.381963 0.127093 0.133111
H7    H     H_    0.053170 0.192665 0.391235 0.188543
H8    H     H_    0.536302 0.530290 0.109033 0.233580
H9    H     H_    0.943971 0.772176 0.621007 0.197449
H10   H     H_    0.215216 0.573679 0.705078 0.156711
H11   H     H_    0.321149 0.417911 0.298607 0.171513
H12   H     H_    0.217461 0.416663 0.297047 0.162255
N1    N     N_R   0.851498 0.475820 0.498028 -0.423713
N2    N     N_R   0.147737 0.491056 0.501647 -0.448760
N3    N     N_2   0.499380 0.498660 0.846910 -0.127775
N4    N     N_2   0.499370 0.498630 0.153040 -0.268636
O1    O     O_R   0.500010 0.321960 0.617040 -0.584100
O2    O     O_2   0.852954 0.281346 0.391054 -0.577009
O3    O     O_2   0.148560 0.280312 0.445227 -0.545505
O4    O     O_2   0.148453 0.701769 0.552392 -0.558824
O5    O     O_R   0.499990 0.321920 0.382900 -0.585013
O6    O     O_R   0.417890 0.499980 0.617100 -0.547172
O7    O     O_R   0.417870 0.499940 0.382950 -0.584574
O8    O     O_R   0.500010 0.678080 0.617100 -0.598629
O9    O     O_R   0.499990 0.678040 0.382960 -0.530591
O10   O     O_R   0.582130 0.500060 0.617050 -0.557075
O11   O     O_R   0.582110 0.500020 0.382900 -0.612878
O12   O     O_2   0.848843 0.674516 0.594946 -0.554054
O13   O     O_3   0.667582 0.344919 0.683997 -0.605907
C37   C     C_3   0.672838 0.397886 0.816867 0.114097
H13   H     H_    0.659653 0.495874 0.816504 0.144169
H14   H     H_    0.717339 0.392863 0.854488 0.174872
C38   C     C_3   0.634511 0.327555 0.916595 -0.343079
H15   H     H_    0.589670 0.335328 0.882935 0.242557
H16   H     H_    0.645802 0.228819 0.915550 0.219243
C39   C     C_3   0.640348 0.377957 0.063021 -0.917807
H17   H     H_    0.683846 0.362040 0.102692 0.266180
H18   H     H_    0.609290 0.331464 0.131575 0.266523
H19   H     H_    0.631865 0.477808 0.064388 0.240048
N5    N     N_3   0.679145 0.655806 0.321333 -0.583365
H20   H     H_    0.653696 0.712613 0.382375 0.200128
H21   H     H_    0.653953 0.611703 0.247469 0.230732
O14   O     O_3   0.516019 0.880408 0.256100 -0.572230
C40   C     C_3   0.570595 0.853213 0.202963 0.113684
H22   H     H_    0.576324 0.752420 0.207085 0.158059
H23   H     H_    0.606485 0.897410 0.260727 0.130850
C41   C     C_3   0.573924 0.892921 0.052285 -0.330869
H24   H     H_    0.537884 0.851566 0.994011 0.225818
H25   H     H_    0.570447 0.994271 0.046258 0.229991
C42   C     C_3   0.629661 0.853584 0.985394 -0.938073
H26   H     H_    0.666254 0.896935 0.039811 0.271937
H27   H     H_    0.630472 0.882867 0.876041 0.256710
H28   H     H_    0.633819 0.752207 0.988575 0.249794
N6    N     N_3   0.560945 0.125057 0.288721 -0.595858
H29   H     H_    0.590438 0.185526 0.333637 0.224310
H30   H     H_    0.534248 0.171975 0.221878 0.247734
N7    N     N_3   0.507696 0.615117 0.903098 -0.512452
H31   H     H_    0.545359 0.649789 0.860992 0.235846
H32   H     H_    0.474444 0.670038 0.869460 0.257500
N8    N     N_3   0.051924 0.813887 0.626565 -0.572998
H33   H     H_    0.079289 0.797957 0.709050 0.260928
H34   H     H_    0.073996 0.852833 0.543971 0.272289
O15   O     O_3   0.327643 0.606367 0.721444 -0.593831
C43   C     C_3   0.314927 0.560691 0.854238 0.054576
H35   H     H_    0.355261 0.528627 0.900186 0.170977
H36   H     H_    0.284974 0.480660 0.855566 0.112836
C44   C     C_3   0.291666 0.664937 0.943724 -0.331131
H37   H     H_    0.321883 0.743938 0.941983 0.239510
H38   H     H_    0.250412 0.695615 0.901499 0.222757
C45   C     C_3   0.283184 0.624643 0.092414 -0.890507
H39   H     H_    0.253287 0.545354 0.096577 0.247905
H40   H     H_    0.265253 0.701313 0.154132 0.275002
H41   H     H_    0.324531 0.598647 0.138003 0.264705
O16   O     O_3   0.787258 0.322951 0.673537 -0.609868
C46   C     C_3   0.774258 0.197829 0.645895 0.117384
H42   H     H_    0.807571 0.159293 0.577638 0.193070
H43   H     H_    0.732550 0.182011 0.594153 0.159215
C47   C     C_3   0.774708 0.126879 0.781168 -0.352817
H44   H     H_    0.817442 0.134982 0.829034 0.235632
H45   H     H_    0.743255 0.166842 0.853646 0.229085
C48   C     C_3   0.760247 0.991436 0.757999 -0.877598
H46   H     H_    0.717060 0.981120 0.713233 0.251482
H47   H     H_    0.761166 0.942729 0.858023 0.264878
H48   H     H_    0.791676 0.948668 0.687347 0.280891

loop_
_geom_bond_atom_site_label_1
_geom_bond_atom_site_label_2
_ccdc_geom_bond_type
O15   C43   S    
C7    N8    S    
N3    N7    S    
N7    H31   S    
C10   N2    A    
O14   C40   S    
C7    C8    A    
C41   H24   S    
C45   H39   S    
C30   N4    D    
Cu1   Cu2   S    
C39   H18   S    
C18   C24   A    
C32   C36   A    
C10   O4    S    
C18   O16   S    
C18   C19   A    
C1    O5    A    
C5    C6    A    
N5    H21   S    
C41   C42   S    
C15   C16   A    
C47   H44   S    
C43   C44   S    
C34   C35   A    
C8    C36   A    
C23   C26   S    
Cu2   O9    S    
C2    H1    S    
C23   O8    A    
C35   C36   A    
C47   H45   S    
C16   C17   A    
C39   H19   S    
C21   N5    S    
C1    C28   S    
C42   H28   S    
C19   O13   S    
Cu2   O7    S    
Cu1   N3    S    
C2    C34   A    
C24   N1    S    
C23   O9    A    
C21   C22   A    
C29   H5    S    
C25   O14   S    
C30   H6    S    
C11   H10   S    
C9    N2    A    
C17   N2    S    
O16   C46   S    
Cu1   O8    S    
C48   H47   S    
C44   C45   S    
C39   H17   S    
C41   H25   S    
O13   C37   S    
C38   H16   S    
N5    H20   S    
C37   H13   S    
C25   C26   D    
C3    H7    S    
Cu1   O1    S    
C32   N1    A    
C29   C30   S    
C44   H38   S    
Cu2   N4    S    
Cu2   O11   S    
C22   H2    S    
H8    N4    S    
N6    H30   S    
C33   C34   A    
C27   N6    S    
C45   H41   S    
C20   C21   A    
C43   H36   S    
C42   H27   S    
C40   H22   S    
C40   H23   S    
C22   C24   A    
C33   N1    A    
C13   O15   S    
C3    C4    A    
Cu1   O10   S    
C32   O12   S    
C46   H42   S    
C48   H48   S    
C31   O11   A    
C11   C17   A    
C31   O10   A    
C12   C14   S    
C4    C5    A    
C6    C10   A    
C38   C39   S    
C48   H46   S    
N7    H32   S    
C6    C7    A    
C25   C27   S    
C40   C41   S    
C44   H37   S    
N8    H34   S    
C47   C48   S    
C46   C47   S    
C19   C20   A    
C2    C3    A    
C1    O1    A    
C8    H9    S    
C38   H15   S    
C12   O7    A    
C11   C13   A    
C29   N3    D    
C33   O2    S    
C37   C38   S    
C5    C35   A    
C28   H4    S    
N6    H29   S    
C45   H40   S    
C9    O3    S    
C15   H11   S    
C43   H35   S    
C16   H12   S    
Cu1   O6    S    
Cu2   O5    S    
C12   O6    A    
C42   H26   S    
C37   H14   S    
N8    H33   S    
C27   C28   D    
C14   C15   A    
C4    C9    A    
C13   C14   A    
C26   H3    S    
C46   H43   S    
C20   C31   S    
