data_mof_unit_24383.cif
_audit_creation_date              2013-03-05T16:34:12-0500
_audit_creation_method            fapswitch 2.2
_symmetry_space_group_name_H-M    P1
_symmetry_Int_Tables_number       1
_space_group_crystal_system       triclinic
_cell_length_a                    10.903986
_cell_length_b                    10.859424
_cell_length_c                    9.580437
_cell_angle_alpha                 89.055617
_cell_angle_beta                  91.237708
_cell_angle_gamma                 91.095368
_cell_volume                      1133.81072761

loop_
_atom_site_label
_atom_site_type_symbol
_atom_site_description
_atom_site_fract_x
_atom_site_fract_y
_atom_site_fract_z
_atom_type_partial_charge
O1    O     O_R   0.500000 0.319640 0.618810 -0.586673
O2    O     O_R   0.500010 0.319680 0.381230 -0.591357
C1    C     C_R   0.505749 0.262611 0.501449 0.793867
O3    O     O_R   0.319640 0.499990 0.618790 -0.510387
O4    O     O_R   0.319650 0.500030 0.381210 -0.593163
C2    C     C_R   0.262143 0.501169 0.498228 0.882334
Cu1   Cu    Cu3+1 0.499990 0.499980 0.640670 1.006853
Cu2   Cu    Cu3+1 0.500010 0.500020 0.359330 0.949258
O5    O     O_R   0.499990 0.680320 0.618770 -0.568910
O6    O     O_R   0.500000 0.680360 0.381190 -0.593250
O7    O     O_R   0.680350 0.499970 0.618790 -0.582772
O8    O     O_R   0.680360 0.500010 0.381210 -0.596376
C3    C     C_R   0.500476 0.737790 0.498905 0.828950
C4    C     C_R   0.737625 0.497015 0.501871 0.806538
C5    C     C_R   0.184459 0.408194 0.022398 -0.183337
H1    H     H_    0.228668 0.460395 0.940146 0.210583
C6    C     C_R   0.161087 0.465770 0.148220 -0.125731
H2    H     H_    0.181955 0.563136 0.158712 0.172773
C7    C     C_R   0.107041 0.398724 0.257829 0.132953
C8    C     C_R   0.078158 0.273331 0.240067 -0.242726
C9    C     C_R   0.096594 0.217485 0.112292 -0.179084
H3    H     H_    0.067542 0.122433 0.099281 0.187479
C10   C     C_R   0.145864 0.285798 0.000472 0.442757
C11   C     C_R   0.930818 0.468849 0.382499 -0.235188
H4    H     H_    0.877708 0.442933 0.290826 0.169375
C12   C     C_R   0.871685 0.495239 0.505316 -0.151523
C13   C     C_R   0.941203 0.517814 0.628364 -0.096325
C14   C     C_R   0.067018 0.544956 0.615724 0.354997
C15   C     C_R   0.127687 0.505204 0.495316 -0.177688
C16   C     C_R   0.057430 0.461717 0.379626 -0.020426
C17   C     C_R   0.861469 0.549847 0.870547 -0.044759
H5    H     H_    0.869381 0.648723 0.855993 0.150755
C18   C     C_R   0.819615 0.500965 0.997262 -0.149676
H6    H     H_    0.796750 0.561810 0.080484 0.139777
C19   C     C_R   0.806579 0.373520 0.016341 -0.138516
H7    H     H_    0.772521 0.335620 0.113483 0.134017
C20   C     C_R   0.835651 0.294612 0.909128 -0.114167
H8    H     H_    0.824730 0.195984 0.923570 0.173149
C21   C     C_R   0.880025 0.342908 0.783706 -0.086039
H9    H     H_    0.903225 0.280513 0.701649 0.157625
C22   C     C_R   0.894894 0.470910 0.764038 0.160511
C23   C     C_R   0.497101 0.060645 0.626785 0.077373
C24   C     C_R   0.522237 0.129905 0.505814 -0.143856
C25   C     C_R   0.562455 0.067845 0.387834 -0.155882
H10   H     H_    0.592729 0.118459 0.296085 0.166765
C26   C     C_R   0.559132 0.938877 0.385961 -0.186616
H11   H     H_    0.593305 0.892831 0.296355 0.157723
C27   C     C_R   0.508664 0.871588 0.498144 -0.083518
C28   C     C_R   0.480811 0.934613 0.618095 0.034069
C29   C     C_3   0.363993 0.935913 0.696918 -0.398685
C30   C     C_3   0.392782 0.070128 0.724797 0.165297
H12   H     H_    0.282393 0.925456 0.626251 0.216906
H13   H     H_    0.361380 0.876319 0.791698 0.240055
H14   H     H_    0.321284 0.135042 0.688688 0.171146
C31   C     C_R   0.482102 0.606208 0.071194 0.240877
N1    N     N_R   0.500790 0.500930 0.147930 -0.204645
C32   C     C_R   0.508748 0.393430 0.075921 -0.064523
H15   H     H_    0.518617 0.306677 0.131074 0.176907
C33   C     C_R   0.509165 0.393761 0.927876 -0.032847
H16   H     H_    0.520569 0.308685 0.874809 0.206206
N2    N     N_R   0.500790 0.500890 0.852020 -0.209149
C34   C     C_R   0.484617 0.606555 0.923918 0.291969
C35   C     C_3   0.568684 0.716773 0.922268 -0.458843
C36   C     C_3   0.559639 0.720056 0.079139 -0.486714
H17   H     H_    0.661446 0.695476 0.886111 0.195435
H18   H     H_    0.529386 0.798700 0.870648 0.228380
H19   H     H_    0.648335 0.706684 0.135993 0.202217
H20   H     H_    0.505188 0.799005 0.113319 0.223009
N3    N     N_R   0.149806 0.233858 0.863624 0.110013
O9    O     O_R   0.181855 0.302068 0.757184 -0.427768
O10   O     O_R   0.108176 0.122569 0.841523 -0.370498
N4    N     N_R   0.434753 0.086803 0.870078 0.122799
O11   O     O_R   0.550654 0.080004 0.904832 -0.419577
O12   O     O_R   0.354664 0.087388 0.968570 -0.348129
H21   H     H_    0.034308 0.220697 0.322770 0.165296
N5    N     N_R   0.129694 0.625287 0.713482 0.125278
O13   O     O_R   0.202712 0.711416 0.666119 -0.406586
O14   O     O_R   0.101619 0.627070 0.844431 -0.406364

loop_
_geom_bond_atom_site_label_1
_geom_bond_atom_site_label_2
_geom_bond_distance
_ccdc_geom_bond_type
C31   N1    1.365193 A    
C35   H17   1.106029 S    
C10   N3    1.437576 S    
C19   H7    1.081614 S    
Cu2   N1    2.025367 S    
Cu1   Cu2   2.695357 S    
C21   C22   1.406421 A    
Cu1   O7    1.982282 S    
C1    C24   1.455492 S    
C12   C13   1.410037 A    
C34   C35   1.493698 S    
C36   H20   1.109907 S    
C14   C15   1.419500 A    
C19   C20   1.394009 A    
C11   C12   1.390434 A    
O4    C2    1.296658 A    
O7    C4    1.295358 A    
C32   C33   1.418385 A    
C5    H1    1.079780 S    
C31   C34   1.411763 A    
N1    C32   1.370862 A    
C5    C6    1.397544 A    
N3    O10   1.301820 A    
O5    C3    1.297986 A    
Cu1   N2    2.024843 S    
C6    C7    1.401872 A    
C7    C8    1.404019 A    
C29   H12   1.111565 S    
C17   C18   1.399015 A    
C15   C16   1.416020 A    
C23   C30   1.496673 S    
C5    C10   1.404238 A    
C35   H18   1.100285 S    
C33   H16   1.072420 S    
C9    H3    1.082301 S    
N3    O9    1.300483 A    
O3    Cu1   1.973168 S    
C25   C26   1.400698 A    
C29   C30   1.511923 S    
C26   C27   1.405765 A    
C33   N2    1.364999 A    
C29   H13   1.106880 S    
C36   H19   1.110460 S    
C11   H4    1.079757 S    
N4    O12   1.299633 A    
C21   H9    1.083430 S    
C4    C12   1.461936 S    
C8    H21   1.083551 S    
O1    C1    1.295821 A    
C24   C25   1.407803 A    
C20   H8    1.082310 S    
O4    Cu2   1.982282 S    
C13   C22   1.483452 S    
C17   H5    1.082518 S    
Cu2   O8    1.973169 S    
C31   C36   1.486431 S    
C6    H2    1.083133 S    
N5    O13   1.299137 A    
O3    C2    1.302253 A    
C27   C28   1.389325 A    
O8    C4    1.302156 A    
C9    C10   1.403580 A    
C23   C24   1.400394 A    
C14   N5    1.442805 S    
C25   H10   1.083218 S    
Cu1   O5    1.966153 S    
C26   H11   1.077465 S    
C17   C22   1.402035 A    
O1    Cu1   1.972986 S    
O2    Cu2   1.966155 S    
N5    O14   1.298308 A    
N4    O11   1.303089 A    
O6    C3    1.297545 A    
C3    C27   1.453914 S    
C30   H14   1.107117 S    
O2    C1    1.299754 A    
C20   C21   1.395590 A    
C32   H15   1.078573 S    
C18   C19   1.397954 A    
C18   H6    1.080134 S    
N2    C34   1.364287 A    
C11   C16   1.385112 A    
C23   C28   1.380386 A    
C35   C36   1.509307 S    
C2    C15   1.467245 S    
C8    C9    1.395167 A    
Cu2   O6    1.972986 S    
C28   C29   1.495191 S    
C30   N4    1.468717 S    
C13   C14   1.405047 A    
C7    C16   1.479826 S    
