data_mof_unit_51574.cif
_audit_creation_date              2012-12-10T19:00:00-0500
_audit_creation_method            fapswitch 2.2
_symmetry_space_group_name_H-M    P1
_symmetry_Int_Tables_number       1
_space_group_crystal_system       triclinic
_cell_length_a                    10.807149
_cell_length_b                    10.549548
_cell_length_c                    9.979761
_cell_angle_alpha                 91.433559
_cell_angle_beta                  93.058239
_cell_angle_gamma                 92.940884
_cell_volume                      1134.24160879

loop_
_atom_site_label
_atom_site_type_symbol
_atom_type_description
_atom_site_fract_x
_atom_site_fract_y
_atom_site_fract_z
_atom_type_partial_charge
C1    C     C_R   0.497980 0.260706 0.498521 0.915486
C2    C     C_R   0.394881 0.059032 0.543936 0.115974
C3    C     C_R   0.503517 0.871904 0.503881 -0.002303
C4    C     C_R   0.496483 0.128096 0.496119 -0.002303
C5    C     C_R   0.549994 0.601167 0.079184 0.098629
C6    C     C_R   0.450006 0.398833 0.920816 0.098630
C7    C     C_R   0.550161 0.602154 0.936161 0.140426
C8    C     C_R   0.449839 0.397846 0.063839 0.140426
C9    C     C_R   0.260049 0.497529 0.496159 0.864966
C10   C     C_R   0.739951 0.502471 0.503841 0.864965
C11   C     C_R   0.127939 0.431879 0.021724 -0.174564
C12   C     C_R   0.502020 0.739294 0.501479 0.915485
C13   C     C_R   0.872062 0.568126 0.978276 -0.174567
C14   C     C_R   0.132536 0.473304 0.156498 -0.104966
C15   C     C_R   0.867465 0.526700 0.843502 -0.104964
C16   C     C_R   0.089136 0.392469 0.255494 0.142921
C17   C     C_R   0.910864 0.607534 0.744505 0.142920
C18   C     C_R   0.046242 0.267756 0.217840 -0.192316
C19   C     C_R   0.953757 0.732247 0.782157 -0.192317
C20   C     C_R   0.038399 0.227714 0.083096 -0.112824
C21   C     C_R   0.961601 0.772290 0.916901 -0.112823
C22   C     C_R   0.076452 0.310165 0.983753 0.169998
C23   C     C_R   0.872636 0.499423 0.509416 -0.076222
C24   C     C_R   0.923549 0.689841 0.016246 0.170000
C25   C     C_R   0.923084 0.446590 0.396285 -0.270311
C26   C     C_R   0.076916 0.553411 0.603715 -0.270311
C27   C     C_R   0.127364 0.500578 0.490584 -0.076222
C28   C     C_R   0.950377 0.552820 0.616314 0.007387
C29   C     C_R   0.049623 0.447182 0.383685 0.007386
C30   C     C_R   0.600738 0.071042 0.451913 -0.270347
C31   C     C_R   0.399261 0.928958 0.548087 -0.270346
C32   C     C_R   0.605119 0.940967 0.456064 0.115974
H1    H     H_    0.157806 0.497187 0.946411 0.140200
H2    H     H_    0.137254 0.594847 0.685553 0.167010
H3    H     H_    0.678767 0.127502 0.416978 0.137927
H4    H     H_    0.321233 0.872498 0.583022 0.137927
H5    H     H_    0.094043 0.340260 0.783620 0.195454
H6    H     H_    0.103938 0.188745 0.829578 0.173529
H7    H     H_    0.905960 0.659746 0.216379 0.195452
H8    H     H_    0.896061 0.811261 0.170419 0.173529
H9    H     H_    0.729006 0.905464 0.317209 0.181441
H10   H     H_    0.788672 0.913966 0.477073 0.182988
H11   H     H_    0.270993 0.094535 0.682791 0.181441
H12   H     H_    0.842195 0.502818 0.053589 0.140200
H13   H     H_    0.211328 0.086034 0.522926 0.182988
H14   H     H_    0.554859 0.787368 0.134733 0.206239
H15   H     H_    0.695363 0.721096 0.138361 0.181589
H16   H     H_    0.445141 0.212631 0.865267 0.206239
H17   H     H_    0.304638 0.278903 0.861639 0.181589
H18   H     H_    0.161525 0.571117 0.181946 0.158003
H19   H     H_    0.838476 0.428886 0.818055 0.158004
H20   H     H_    0.009226 0.204897 0.291849 0.133891
H21   H     H_    0.990773 0.795106 0.708148 0.133890
H22   H     H_    0.998896 0.133669 0.055467 0.135923
H23   H     H_    0.001104 0.866336 0.944528 0.135923
H24   H     H_    0.862746 0.405155 0.314446 0.167010
I1    I     I_    0.632127 0.770811 0.856355 -0.398114
I2    I     I_    0.367871 0.229189 0.143645 -0.398113
N1    N     N_R   0.499970 0.499970 0.857200 -0.110710
N2    N     N_R   0.500030 0.500030 0.142800 -0.110709
N3    N     N_3   0.056350 0.271165 0.845129 -0.479554
N4    N     N_3   0.943651 0.728842 0.154868 -0.479553
N5    N     N_3   0.712660 0.879216 0.415274 -0.459765
N6    N     N_3   0.287340 0.120784 0.584726 -0.459765
N7    N     N_3   0.602486 0.706549 0.159030 -0.378354
N8    N     N_3   0.397514 0.293451 0.840971 -0.378354
O1    O     O_R   0.499990 0.316750 0.614620 -0.594303
O2    O     O_R   0.500010 0.683250 0.385380 -0.594303
O3    O     O_R   0.499990 0.316780 0.385290 -0.590229
O4    O     O_R   0.500010 0.683220 0.614710 -0.590229
O5    O     O_R   0.316760 0.500000 0.614660 -0.615165
O6    O     O_R   0.683240 0.500000 0.385340 -0.615164
O7    O     O_R   0.316760 0.500020 0.385330 -0.610459
O8    O     O_R   0.683240 0.499980 0.614670 -0.610459
Zn1   Zn    Zn3+2 0.500000 0.499980 0.653120 0.990524
Zn2   Zn    Zn3+2 0.500000 0.500020 0.346880 0.990525

loop_
_geom_bond_atom_site_label_1
_geom_bond_atom_site_label_2
_ccdc_geom_bond_type
O5    Zn1   S    
C27   C29   A    
C25   H24   S    
O6    Zn2   S    
C18   H20   S    
C12   O2    A    
C26   C27   A    
C30   H3    S    
C19   C21   A    
C11   C14   A    
H8    N4    S    
O3    Zn2   S    
C3    C12   S    
C17   C19   A    
C26   H2    S    
C15   H19   S    
H6    N3    S    
C8    I2    S    
C19   H21   S    
C9    O7    A    
C7    N1    A    
C2    N6    S    
H11   N6    S    
C25   C29   A    
H17   N8    S    
C11   H1    S    
H14   N7    S    
C20   H22   S    
O8    Zn1   S    
C5    C7    A    
C6    C8    A    
C16   C29   S    
N2    Zn2   S    
C1    O3    A    
C13   C24   A    
C2    C31   A    
C2    C4    A    
C23   C28   A    
C3    C31   A    
C5    N7    S    
C20   C22   A    
C13   C15   A    
O7    Zn2   S    
C14   C16   A    
O1    Zn1   S    
H9    N5    S    
N1    Zn1   S    
C9    C27   S    
C21   H23   S    
C15   C17   A    
H7    N4    S    
C12   O4    A    
C24   N4    S    
C11   C22   A    
C5    N2    A    
C17   C28   S    
C6    N1    A    
C9    O5    A    
C32   N5    S    
H5    N3    S    
C10   C23   S    
O2    Zn2   S    
H13   N6    S    
C26   C28   A    
C1    C4    S    
C8    N2    A    
C22   N3    S    
C30   C32   A    
C10   O8    A    
C14   H18   S    
C1    O1    A    
H15   N7    S    
C18   C20   A    
C23   C25   A    
C3    C32   A    
C6    N8    S    
C16   C18   A    
C21   C24   A    
O4    Zn1   S    
C31   H4    S    
H16   N8    S    
H10   N5    S    
C7    I1    S    
C13   H12   S    
C4    C30   A    
C10   O6    A    
