data_mof_unit_57278.cif
_audit_creation_date              2013-03-05T15:49:09-0500
_audit_creation_method            fapswitch 2.2
_symmetry_space_group_name_H-M    P1
_symmetry_Int_Tables_number       1
_space_group_crystal_system       triclinic
_cell_length_a                    22.428894
_cell_length_b                    13.008802
_cell_length_c                    26.994274
_cell_angle_alpha                 90.028969
_cell_angle_beta                  90.344754
_cell_angle_gamma                 90.070237
_cell_volume                      7876.05188366

loop_
_atom_site_label
_atom_site_type_symbol
_atom_site_description
_atom_site_fract_x
_atom_site_fract_y
_atom_site_fract_z
_atom_type_partial_charge
O1    O     O_R   0.769900 0.064540 0.196060 -0.493825
O2    O     O_R   0.230100 0.064540 0.803940 -0.495744
O3    O     O_R   0.269900 0.564540 0.196060 -0.494703
O4    O     O_R   0.730100 0.564540 0.803940 -0.478703
O5    O     O_R   0.750800 0.274080 0.199250 -0.462672
O6    O     O_R   0.249200 0.274080 0.800750 -0.464149
O7    O     O_R   0.250800 0.774080 0.199250 -0.451628
O8    O     O_R   0.749200 0.774080 0.800750 -0.459451
C1    C     C_R   0.721755 0.347827 0.178870 0.568639
C2    C     C_R   0.278234 0.347839 0.821062 0.569553
C3    C     C_R   0.222110 0.848601 0.179445 0.572919
C4    C     C_R   0.778045 0.848629 0.820652 0.564913
O9    O     O_R   0.669990 0.371670 0.194150 -0.458740
O10   O     O_R   0.330010 0.371670 0.805850 -0.464149
O11   O     O_R   0.169990 0.871670 0.194150 -0.464696
O12   O     O_R   0.830010 0.871670 0.805850 -0.462704
O13   O     O_R   0.574600 0.238480 0.197800 -0.497728
O14   O     O_R   0.425400 0.238480 0.802200 -0.502572
O15   O     O_R   0.074600 0.738480 0.197800 -0.505105
O16   O     O_R   0.925400 0.738480 0.802200 -0.497709
C5    C     C_R   0.555512 0.156686 0.176647 0.542310
C6    C     C_R   0.446519 0.157723 0.822182 0.544154
C7    C     C_R   0.053316 0.657625 0.177901 0.545268
C8    C     C_R   0.944346 0.656786 0.823450 0.545164
O17   O     O_R   0.566130 0.068680 0.194240 -0.502895
O18   O     O_R   0.433870 0.068680 0.805760 -0.498546
O19   O     O_R   0.066130 0.568680 0.194240 -0.476888
O20   O     O_R   0.933870 0.568680 0.805760 -0.505425
O21   O     O_R   0.680610 0.992490 0.199570 -0.464227
O22   O     O_R   0.319390 0.992490 0.800430 -0.458485
O23   O     O_R   0.180610 0.492490 0.199570 -0.448426
O24   O     O_R   0.819390 0.492490 0.800430 -0.476690
C9    C     C_R   0.730719 0.004513 0.178539 0.580747
C10   C     C_R   0.269137 0.004360 0.821343 0.581017
C11   C     C_R   0.231678 0.499645 0.179849 0.551304
C12   C     C_R   0.768599 0.502081 0.820628 0.593728
O25   O     O_R   0.770060 0.065440 0.307230 -0.512961
O26   O     O_R   0.229940 0.065440 0.692770 -0.513876
O27   O     O_R   0.270060 0.565440 0.307230 -0.517300
O28   O     O_R   0.729940 0.565440 0.692770 -0.513097
O29   O     O_R   0.750960 0.274920 0.302300 -0.499820
O30   O     O_R   0.249040 0.274920 0.697700 -0.500510
O31   O     O_R   0.250960 0.774920 0.302300 -0.502366
O32   O     O_R   0.749040 0.774920 0.697700 -0.500441
C13   C     C_R   0.721185 0.347219 0.321643 0.551505
C14   C     C_R   0.278828 0.347178 0.678339 0.552193
C15   C     C_R   0.221188 0.847229 0.321639 0.548962
C16   C     C_R   0.778823 0.847192 0.678344 0.552955
O33   O     O_R   0.670160 0.372580 0.305320 -0.511485
O34   O     O_R   0.329840 0.372580 0.694680 -0.510470
O35   O     O_R   0.170160 0.872580 0.305320 -0.510788
O36   O     O_R   0.829840 0.872580 0.694680 -0.511038
O37   O     O_R   0.574760 0.239320 0.300850 -0.506041
O38   O     O_R   0.425240 0.239320 0.699150 -0.504463
O39   O     O_R   0.074760 0.739320 0.300850 -0.506366
O40   O     O_R   0.925240 0.739320 0.699150 -0.504921
C17   C     C_R   0.554367 0.158852 0.321641 0.539605
C18   C     C_R   0.445632 0.158880 0.678358 0.541292
C19   C     C_R   0.054362 0.658853 0.321637 0.537747
C20   C     C_R   0.945626 0.658880 0.678355 0.542063
O41   O     O_R   0.566290 0.069580 0.305400 -0.512944
O42   O     O_R   0.433710 0.069580 0.694600 -0.514054
O43   O     O_R   0.066290 0.569580 0.305400 -0.514105
O44   O     O_R   0.933710 0.569580 0.694600 -0.512792
O45   O     O_R   0.680760 0.993330 0.302620 -0.499680
O46   O     O_R   0.319240 0.993330 0.697380 -0.500077
O47   O     O_R   0.180760 0.493330 0.302620 -0.503391
O48   O     O_R   0.819240 0.493330 0.697380 -0.499515
C21   C     C_R   0.731378 0.002642 0.323195 0.553334
C22   C     C_R   0.268618 0.002696 0.676793 0.552918
C23   C     C_R   0.231382 0.502632 0.323190 0.543278
C24   C     C_R   0.768612 0.502674 0.676801 0.556904
Cr1   Cr    Cr6+3 0.756570 0.170940 0.251190 1.102249
Cr2   Cr    Cr6+3 0.243430 0.170940 0.748810 1.098894
Cr3   Cr    Cr6+3 0.256570 0.670940 0.251190 1.100921
Cr4   Cr    Cr6+3 0.743430 0.670940 0.748810 1.109492
Cr5   Cr    Cr6+3 0.623740 0.299110 0.249580 1.077680
Cr6   Cr    Cr6+3 0.376260 0.299110 0.750420 1.079580
Cr7   Cr    Cr6+3 0.123740 0.799110 0.249580 1.079447
Cr8   Cr    Cr6+3 0.876260 0.799110 0.750420 1.078587
Cr9   Cr    Cr6+3 0.625990 0.036240 0.250480 1.091037
Cr10  Cr    Cr6+3 0.374010 0.036240 0.749520 1.095408
Cr11  Cr    Cr6+3 0.125990 0.536240 0.250480 1.113293
Cr12  Cr    Cr6+3 0.874010 0.536240 0.749520 1.080993
O49   O     O_3   0.668770 0.168760 0.250420 -0.285377
O50   O     O_3   0.331230 0.168760 0.749580 -0.285324
O51   O     O_3   0.168770 0.668760 0.250420 -0.281988
O52   O     O_3   0.831230 0.668760 0.749580 -0.286236
C25   C     C_R   0.541292 0.070773 0.096244 -0.112507
C26   C     C_R   0.501153 0.078834 0.892390 -0.101095
C27   C     C_R   0.998619 0.578143 0.107744 -0.090118
C28   C     C_R   0.959282 0.570596 0.903732 -0.111125
C29   C     C_R   0.533184 0.073563 0.045289 0.007386
C30   C     C_R   0.515061 0.078488 0.942740 0.016220
C31   C     C_R   0.984658 0.577840 0.057396 0.014969
C32   C     C_R   0.966963 0.573256 0.954759 0.007489
C33   C     C_R   0.535111 0.988198 0.965587 -0.114547
C34   C     C_R   0.543964 0.985645 0.016642 -0.121683
C35   C     C_R   0.957155 0.484650 0.983147 -0.121685
C36   C     C_R   0.965715 0.487048 0.034249 -0.103261
H1    H     H_    0.505753 0.008551 0.871124 0.168667
H2    H     H_    0.556472 0.999526 0.112901 0.167550
H3    H     H_    0.945242 0.498860 0.886803 0.159558
H4    H     H_    0.994626 0.507564 0.128833 0.191198
H5    H     H_    0.542684 0.919027 0.944134 0.157261
H6    H     H_    0.558865 0.914759 0.033771 0.147058
H7    H     H_    0.943272 0.413330 0.965773 0.139091
H8    H     H_    0.958909 0.417363 0.055484 0.173067
C37   C     C_R   0.476575 0.166733 0.870362 -0.003348
C38   C     C_R   0.534063 0.159903 0.125201 -0.004283
C39   C     C_R   0.965508 0.660274 0.875024 -0.002727
C40   C     C_R   0.022646 0.666451 0.129952 -0.008677
C41   C     C_R   0.516062 0.252087 0.102678 -0.120923
C42   C     C_R   0.471381 0.258188 0.897907 -0.120456
C43   C     C_R   0.026567 0.758494 0.102749 -0.123491
C44   C     C_R   0.982012 0.753023 0.897932 -0.119201
C45   C     C_R   0.505677 0.255235 0.051396 0.014312
C46   C     C_R   0.485370 0.259240 0.948420 0.009774
C47   C     C_R   0.012183 0.759754 0.052299 0.007895
C48   C     C_R   0.991982 0.756131 0.949282 0.012518
C49   C     C_R   0.515025 0.165849 0.022627 0.061373
C50   C     C_R   0.505722 0.168221 0.971172 0.063011
C51   C     C_R   0.992932 0.668229 0.029243 0.058654
C52   C     C_R   0.983757 0.666054 0.977757 0.059560
C53   C     C_R   0.486918 0.346165 0.028181 -0.116874
C54   C     C_R   0.476466 0.347983 0.977069 -0.120366
C55   C     C_R   0.019736 0.849280 0.023974 -0.116109
C56   C     C_R   0.009282 0.847650 0.972848 -0.109724
H9    H     H_    0.452495 0.326494 0.881022 0.168354
H10   H     H_    0.511341 0.321206 0.124760 0.151763
H11   H     H_    0.985894 0.822591 0.876083 0.155913
H12   H     H_    0.044795 0.827248 0.119819 0.164695
H13   H     H_    0.460728 0.418394 0.960052 0.165264
H14   H     H_    0.479646 0.415440 0.049611 0.149911
H15   H     H_    0.015533 0.917520 0.951660 0.157476
H16   H     H_    0.034513 0.920153 0.041254 0.160517
C57   C     C_R   0.735477 0.977885 0.125944 0.012929
C58   C     C_R   0.263718 0.977066 0.873769 0.013977
C59   C     C_R   0.241300 0.447097 0.131820 0.000259
C60   C     C_R   0.764346 0.474629 0.873005 0.024551
C61   C     C_R   0.755482 0.056522 0.094635 -0.140597
C62   C     C_R   0.244459 0.055746 0.905299 -0.140219
C63   C     C_R   0.294923 0.463344 0.106536 -0.135229
C64   C     C_R   0.767410 0.557654 0.906165 -0.132944
C65   C     C_R   0.753028 0.045846 0.043780 -0.117323
C66   C     C_R   0.245877 0.043971 0.956103 -0.121310
C67   C     C_R   0.298928 0.442672 0.056002 -0.116402
C68   C     C_R   0.767213 0.541556 0.956830 -0.118884
C69   C     C_R   0.732867 0.954032 0.022387 -0.002086
C70   C     C_R   0.264437 0.951026 0.977226 -0.000309
C71   C     C_R   0.248383 0.410651 0.028779 -0.004559
C72   C     C_R   0.764288 0.441805 0.975614 -0.011103
C73   C     C_R   0.711149 0.875515 0.053297 -0.108162
C74   C     C_R   0.285210 0.872136 0.945997 -0.092322
C75   C     C_R   0.196524 0.385276 0.055132 -0.090575
C76   C     C_R   0.761793 0.357688 0.943049 -0.090067
C77   C     C_R   0.711191 0.887391 0.105072 0.184433
C78   C     C_R   0.286217 0.885270 0.894317 0.191341
C79   C     C_R   0.193536 0.397804 0.106487 0.205242
C80   C     C_R   0.761431 0.372598 0.891280 0.195865
C81   C     C_R   0.696261 0.880984 0.941614 -0.120496
C82   C     C_R   0.301207 0.875339 0.057238 -0.111158
C83   C     C_R   0.208202 0.347482 0.946125 -0.129703
C84   C     C_R   0.800193 0.368460 0.055765 -0.131601
C85   C     C_R   0.704324 0.860555 0.891105 0.164308
C86   C     C_R   0.294309 0.855653 0.107888 0.172840
C87   C     C_R   0.209309 0.345022 0.894250 0.152643
C88   C     C_R   0.794212 0.354546 0.107090 0.151169
C89   C     C_R   0.793932 0.967846 0.892562 0.201031
C90   C     C_R   0.208467 0.971108 0.108758 0.162742
C91   C     C_R   0.294983 0.460307 0.895639 0.165662
C92   C     C_R   0.705073 0.462826 0.105094 0.173203
C93   C     C_R   0.785913 0.983734 0.943018 -0.091565
C94   C     C_R   0.214730 0.985605 0.057966 -0.115458
C95   C     C_R   0.289924 0.468003 0.947055 -0.113112
C96   C     C_R   0.713028 0.477081 0.054386 -0.101582
C97   C     C_R   0.738109 0.939086 0.968261 -0.047542
C98   C     C_R   0.260082 0.936434 0.031488 -0.049206
C99   C     C_R   0.249479 0.406715 0.973404 -0.046721
C100  C     C_R   0.758792 0.427127 0.029308 -0.057131
C101  C     C_R   0.756270 0.897522 0.866952 -0.002882
C102  C     C_R   0.244389 0.896960 0.133223 -0.008677
C103  C     C_R   0.257821 0.390904 0.869169 -0.002975
C104  C     C_R   0.742853 0.393762 0.131422 -0.009160
H17   H     H_    0.770376 0.129423 0.109537 0.175674
H18   H     H_    0.231277 0.129551 0.890596 0.173407
H19   H     H_    0.333092 0.496929 0.125272 0.182502
H20   H     H_    0.770509 0.635959 0.892627 0.130549
H21   H     H_    0.656984 0.851683 0.960011 0.148221
H22   H     H_    0.339117 0.843114 0.038071 0.162239
H23   H     H_    0.174591 0.302395 0.964482 0.154558
H24   H     H_    0.838032 0.335967 0.036539 0.156152
H25   H     H_    0.766828 0.110432 0.021304 0.126959
H26   H     H_    0.233110 0.108996 0.978678 0.127307
H27   H     H_    0.341305 0.456119 0.038232 0.128327
H28   H     H_    0.769128 0.607216 0.981526 0.132546
H29   H     H_    0.818215 0.030674 0.962573 0.159528
H30   H     H_    0.183253 0.035357 0.039257 0.159251
H31   H     H_    0.318061 0.522934 0.966141 0.157753
H32   H     H_    0.682826 0.526988 0.034161 0.171514
H33   H     H_    0.695525 0.803845 0.037431 0.142007
H34   H     H_    0.299716 0.799534 0.961482 0.146501
H35   H     H_    0.157097 0.357443 0.036414 0.152980
H36   H     H_    0.758685 0.280761 0.958191 0.147569
C105  C     C_R   0.527668 0.168825 0.370942 0.018624
C106  C     C_R   0.472323 0.168867 0.629054 0.020404
C107  C     C_R   0.027645 0.668827 0.370931 0.019915
C108  C     C_R   0.972298 0.668865 0.629042 0.019399
C109  C     C_R   0.536944 0.259554 0.398196 -0.124537
C110  C     C_R   0.463108 0.259556 0.601829 -0.123263
C111  C     C_R   0.036908 0.759559 0.398186 -0.123398
C112  C     C_R   0.963072 0.759552 0.601818 -0.124124
C113  C     C_R   0.525624 0.261898 0.448769 -0.120180
C114  C     C_R   0.474415 0.261882 0.551254 -0.120165
C115  C     C_R   0.025572 0.761903 0.448756 -0.120184
C116  C     C_R   0.974364 0.761877 0.551241 -0.120121
C117  C     C_R   0.503825 0.174159 0.472875 0.035733
C118  C     C_R   0.496140 0.174168 0.527117 0.035671
C119  C     C_R   0.003770 0.674162 0.472858 0.035530
C120  C     C_R   0.996084 0.674164 0.527100 0.035778
C121  C     C_R   0.490451 0.085807 0.444926 -0.080995
C122  C     C_R   0.509451 0.085862 0.555035 -0.080205
C123  C     C_R   0.990403 0.585810 0.444907 -0.080921
C124  C     C_R   0.009402 0.585858 0.555016 -0.080469
C125  C     C_R   0.502640 0.082927 0.394394 -0.107515
C126  C     C_R   0.497277 0.082999 0.605569 -0.105647
C127  C     C_R   0.002608 0.582930 0.394377 -0.106652
C128  C     C_R   0.997243 0.582995 0.605552 -0.106385
H37   H     H_    0.556842 0.326731 0.381272 0.139309
H38   H     H_    0.443269 0.326710 0.618777 0.139817
H39   H     H_    0.056809 0.826736 0.381265 0.139999
H40   H     H_    0.943238 0.826705 0.618771 0.139319
H41   H     H_    0.527949 0.018141 0.537596 0.164384
H42   H     H_    0.471896 0.018063 0.462341 0.164554
H43   H     H_    0.027897 0.518137 0.537573 0.164173
H44   H     H_    0.971845 0.518065 0.462318 0.164648
H45   H     H_    0.504929 0.012255 0.625760 0.146553
H46   H     H_    0.494939 0.012153 0.374180 0.145575
H47   H     H_    0.004902 0.512251 0.625741 0.146015
H48   H     H_    0.994914 0.512155 0.374161 0.146443
H49   H     H_    0.536713 0.330869 0.469335 0.106467
H50   H     H_    0.463376 0.330817 0.530712 0.106291
H51   H     H_    0.036655 0.830874 0.469323 0.106458
H52   H     H_    0.963319 0.830812 0.530701 0.106394
C129  C     C_R   0.738209 0.960051 0.372791 -0.029874
C130  C     C_R   0.261834 0.960277 0.627140 -0.029467
C131  C     C_R   0.238233 0.459977 0.372771 -0.030208
C132  C     C_R   0.761803 0.460176 0.627167 -0.028465
C133  C     C_R   0.686424 0.934750 0.399159 -0.080828
C134  C     C_R   0.313661 0.935423 0.600764 -0.080734
C135  C     C_R   0.186462 0.434582 0.399136 -0.080521
C136  C     C_R   0.813616 0.435228 0.600792 -0.080854
C137  C     C_R   0.688756 0.921673 0.449927 0.366380
C138  C     C_R   0.311387 0.922591 0.549981 0.365981
C139  C     C_R   0.188806 0.421451 0.449900 0.366230
C140  C     C_R   0.811326 0.422336 0.550013 0.366076
C141  C     C_R   0.743577 0.929480 0.474879 0.034634
C142  C     C_R   0.256582 0.930155 0.525015 0.034587
C143  C     C_R   0.243629 0.429297 0.474848 0.034675
C144  C     C_R   0.756519 0.429932 0.525053 0.034516
C145  C     C_R   0.796097 0.947411 0.448145 -0.180099
C146  C     C_R   0.204024 0.947669 0.551737 -0.180078
C147  C     C_R   0.296140 0.447300 0.448113 -0.180088
C148  C     C_R   0.703971 0.447512 0.551778 -0.180103
C149  C     C_R   0.793370 0.963642 0.397287 -0.146346
C150  C     C_R   0.206694 0.963687 0.602619 -0.146395
C151  C     C_R   0.293399 0.463584 0.397260 -0.147463
C152  C     C_R   0.706657 0.463590 0.602654 -0.145246
C153  C     C_R   0.781429 0.985537 0.557270 -0.127106
C154  C     C_R   0.218741 0.985983 0.442651 -0.127608
C155  C     C_R   0.281457 0.485415 0.557237 -0.127197
C156  C     C_R   0.718699 0.485831 0.442692 -0.127335
C157  C     C_R   0.788690 0.967750 0.607717 -0.121026
C158  C     C_R   0.211430 0.968019 0.392217 -0.123260
C159  C     C_R   0.288702 0.467677 0.607688 -0.122072
C160  C     C_R   0.711410 0.467932 0.392250 -0.122306
C161  C     C_R   0.720986 0.822311 0.601749 -0.129289
C162  C     C_R   0.279190 0.822942 0.398153 -0.129570
C163  C     C_R   0.221050 0.322164 0.601725 -0.129479
C164  C     C_R   0.779132 0.322800 0.398174 -0.129267
C165  C     C_R   0.715023 0.838431 0.551387 -0.065304
C166  C     C_R   0.285205 0.839236 0.448502 -0.065408
C167  C     C_R   0.215104 0.338235 0.551359 -0.065391
C168  C     C_R   0.785122 0.339027 0.448530 -0.065206
C169  C     C_R   0.746151 0.918673 0.528671 0.062079
C170  C     C_R   0.254054 0.919352 0.471228 0.062292
C171  C     C_R   0.246210 0.418497 0.528639 0.062073
C172  C     C_R   0.753984 0.419146 0.471264 0.062273
C173  C     C_R   0.759969 0.883906 0.629810 0.025344
C174  C     C_R   0.240130 0.884224 0.370125 0.024039
C175  C     C_R   0.259993 0.383829 0.629789 0.024487
C176  C     C_R   0.740107 0.384149 0.370146 0.024511
H53   H     H_    0.643041 0.933201 0.381298 0.164551
H54   H     H_    0.357034 0.934049 0.618642 0.164616
H55   H     H_    0.143077 0.433009 0.381278 0.164811
H56   H     H_    0.856991 0.433836 0.618664 0.164465
H57   H     H_    0.804892 0.049118 0.540283 0.115796
H58   H     H_    0.195266 0.049471 0.459653 0.115640
H59   H     H_    0.304902 0.549010 0.540245 0.115803
H60   H     H_    0.695234 0.549323 0.459702 0.115618
H61   H     H_    0.818889 0.016099 0.628838 0.145389
H62   H     H_    0.181189 0.016153 0.371114 0.144629
H63   H     H_    0.318875 0.516071 0.628811 0.145194
H64   H     H_    0.681192 0.516110 0.371149 0.144704
H65   H     H_    0.688496 0.784769 0.529868 0.163654
H66   H     H_    0.311766 0.785760 0.470008 0.163727
H67   H     H_    0.188605 0.284531 0.529841 0.163559
H68   H     H_    0.811659 0.285508 0.470031 0.163814
H69   H     H_    0.698791 0.756272 0.617732 0.141063
H70   H     H_    0.301391 0.756975 0.382166 0.141331
H71   H     H_    0.198869 0.256115 0.617713 0.141076
H72   H     H_    0.801327 0.256835 0.382179 0.141430
H73   H     H_    0.838938 0.951403 0.466798 0.121212
H74   H     H_    0.161197 0.951465 0.533062 0.121278
H75   H     H_    0.338982 0.451322 0.466763 0.120998
H76   H     H_    0.661142 0.451331 0.533108 0.121356
H77   H     H_    0.833728 0.983332 0.377579 0.149951
H78   H     H_    0.166310 0.983056 0.622334 0.149461
H79   H     H_    0.333747 0.483337 0.377553 0.148159
H80   H     H_    0.666284 0.483019 0.622370 0.150687
N1    N     N_R   0.840830 0.023496 0.868208 0.112354
O53   O     O_R   0.829999 0.071098 0.826726 -0.229864
O54   O     O_R   0.891448 0.039522 0.890765 -0.340565
N2    N     N_R   0.165721 0.032716 0.134911 0.104999
O55   O     O_R   0.180318 0.074556 0.177088 -0.266282
O56   O     O_R   0.116032 0.059914 0.113517 -0.310134
N3    N     N_R   0.338409 0.523045 0.871014 0.113867
O57   O     O_R   0.325034 0.568343 0.829440 -0.224412
O58   O     O_R   0.389708 0.541760 0.891949 -0.319422
N4    N     N_R   0.658326 0.519069 0.129070 0.116813
O59   O     O_R   0.669077 0.567345 0.170415 -0.226677
O60   O     O_R   0.607336 0.532753 0.106776 -0.309335
N5    N     N_R   0.686237 0.807936 0.135414 0.088427
O61   O     O_R   0.640188 0.756167 0.119742 -0.270933
O62   O     O_R   0.710390 0.784400 0.177859 -0.286243
N6    N     N_R   0.311104 0.806297 0.863756 0.092275
O63   O     O_R   0.358175 0.756656 0.878695 -0.254107
O64   O     O_R   0.287200 0.783616 0.821083 -0.286742
N7    N     N_R   0.141447 0.361428 0.131865 0.105962
O65   O     O_R   0.089161 0.368227 0.110968 -0.332152
O66   O     O_R   0.147445 0.305088 0.171400 -0.247854
N8    N     N_R   0.755266 0.284838 0.858928 0.096512
O67   O     O_R   0.735969 0.197745 0.876350 -0.316586
O68   O     O_R   0.767623 0.290756 0.811998 -0.289222
F1    F     F_    0.636868 0.908612 0.474857 -0.659595
F2    F     F_    0.363304 0.909959 0.525061 -0.660184
F3    F     F_    0.136926 0.408313 0.474832 -0.659660
F4    F     F_    0.863235 0.409635 0.525090 -0.659945
N9    N     N_R   0.659154 0.803424 0.865059 0.088694
O69   O     O_R   0.638531 0.837441 0.822997 -0.300989
O70   O     O_R   0.631491 0.728313 0.886988 -0.324639
N10   N     N_R   0.338675 0.794940 0.132862 0.097524
O71   O     O_R   0.361960 0.827623 0.174251 -0.303189
O72   O     O_R   0.363261 0.717497 0.110332 -0.341079
N11   N     N_R   0.160586 0.297649 0.867711 0.089028
O73   O     O_R   0.141013 0.339075 0.826864 -0.295693
O74   O     O_R   0.128638 0.226336 0.888558 -0.338020
N12   N     N_R   0.841382 0.304055 0.133927 0.082479
O75   O     O_R   0.859597 0.341521 0.176101 -0.300725
O76   O     O_R   0.873774 0.234550 0.112245 -0.335686

loop_
_geom_bond_atom_site_label_1
_geom_bond_atom_site_label_2
_geom_bond_distance
_ccdc_geom_bond_type
O4    C12   1.267348 A    
C133  C137  1.381730 A    
O39   C19   1.273761 A    
C121  H42   1.082906 S    
C62   C66   1.380191 A    
C23   C131  1.456475 S    
C144  C148  1.404479 A    
O1    Cr1   2.055293 S    
Cr7   O51   1.974819 S    
C5    C38   1.467604 S    
C60   C80   1.417827 A    
N5    O61   1.300769 A    
C147  C151  1.390082 A    
C7    C40   1.466726 S    
C141  C145  1.404485 A    
C91   C103  1.418026 A    
C29   C49   1.407250 A    
C140  F4    1.358398 S    
C74   C78   1.405903 A    
O25   C21   1.268434 A    
C112  H40   1.083266 S    
C32   C35   1.402345 A    
C121  C125  1.393311 A    
C1    O9    1.273122 A    
O44   Cr12  2.049888 S    
C161  C165  1.381398 A    
C16   C173  1.455296 S    
C11   C59   1.482436 S    
C66   C70   1.399798 A    
C3    O11   1.272996 A    
C4    O12   1.269965 A    
C9    C57   1.465808 S    
N2    O55   1.301591 A    
C106  C126  1.402858 A    
C134  C138  1.381530 A    
C71   C75   1.406107 A    
C66   H26   1.082163 S    
C163  C167  1.381382 A    
C61   C65   1.380503 A    
C154  H58   1.083311 S    
C33   H5    1.083944 S    
O2    C10   1.263835 A    
C59   C79   1.419711 A    
C4    C101  1.487446 S    
O17   Cr9   2.064692 S    
C150  H78   1.083216 S    
C157  C173  1.401379 A    
C154  C170  1.403107 A    
C158  H62   1.083232 S    
C73   H33   1.082810 S    
C117  C121  1.405613 A    
N4    O59   1.301482 A    
O16   Cr8   1.943010 S    
C84   C88   1.404555 A    
C55   H16   1.083695 S    
C56   H15   1.083563 S    
N8    O67   1.301506 A    
C30   C33   1.400316 A    
C93   H29   1.081836 S    
C109  C113  1.390425 A    
O28   Cr4   2.062746 S    
O12   Cr8   2.055628 S    
C72   C100  1.467952 S    
O15   C7    1.271962 A    
O46   Cr10  1.943800 S    
C71   C99   1.496031 S    
N11   O73   1.301651 A    
C108  C112  1.405094 A    
C6    C37   1.465863 S    
N10   O71   1.301447 A    
C139  F3    1.358384 S    
N4    O60   1.301582 A    
C30   C50   1.413221 A    
C21   C129  1.456502 S    
C132  C136  1.404754 A    
C114  C118  1.402996 A    
C81   C97   1.399724 A    
C82   H22   1.082760 S    
C90   C94   1.392038 A    
C129  C149  1.400032 A    
Cr12  O52   1.973994 S    
N6    O63   1.300400 A    
O7    Cr3   1.944984 S    
C28   C39   1.408125 A    
C17   O41   1.270452 A    
C47   C51   1.409304 A    
C19   O43   1.270449 A    
C34   H6    1.084054 S    
C114  H50   1.082756 S    
C20   O44   1.270594 A    
C80   N8    1.443025 S    
C24   C132  1.456268 S    
C85   N9    1.436009 S    
Cr8   O52   1.972673 S    
C1    C104  1.492936 S    
C148  H76   1.083316 S    
C116  H52   1.082755 S    
C161  H69   1.083467 S    
O46   C22   1.267123 A    
C127  H48   1.083152 S    
C113  H49   1.082757 S    
C14   C175  1.455282 S    
C165  H65   1.083106 S    
C16   O36   1.267161 A    
N1    O53   1.301591 A    
C143  C147  1.404472 A    
O27   C23   1.268426 A    
C91   N3    1.436325 S    
C93   C97   1.399626 A    
O31   C15   1.268251 A    
C81   C85   1.401818 A    
O32   C16   1.267401 A    
O47   Cr11  1.945075 S    
N9    O69   1.301410 A    
C26   C30   1.392664 A    
O21   C9    1.271691 A    
C146  H74   1.083314 S    
C86   C102  1.421420 A    
C33   C34   1.391674 A    
C51   C52   1.404023 A    
O24   C12   1.272143 A    
C124  H43   1.082903 S    
C123  C127  1.393310 A    
C161  C173  1.403560 A    
O8    Cr4   1.943786 S    
C77   N5    1.434379 S    
C46   C50   1.409328 A    
O32   Cr4   1.937156 S    
C106  C110  1.405090 A    
C69   C73   1.407590 A    
C59   C63   1.402281 A    
O11   Cr7   2.055150 S    
O27   Cr3   2.064257 S    
O3    Cr3   2.055293 S    
C131  C151  1.400035 A    
Cr5   O49   1.974819 S    
C126  H45   1.083149 S    
C90   C102  1.418381 A    
C107  C111  1.405078 A    
C142  C146  1.404484 A    
C75   H35   1.077991 S    
C147  H75   1.083314 S    
C43   H12   1.084363 S    
C36   H8    1.083933 S    
C41   H10   1.084188 S    
O22   C10   1.273151 A    
C75   C79   1.397781 A    
C72   C76   1.404122 A    
C76   C80   1.410938 A    
C2    O10   1.272129 A    
N3    O58   1.301481 A    
C117  C118  1.475365 S    
C25   C38   1.408096 A    
C10   C58   1.464971 S    
C44   C48   1.403310 A    
C27   C40   1.401224 A    
C67   C71   1.409701 A    
O5    C1    1.282645 A    
C58   C78   1.409653 A    
O3    C11   1.277676 A    
O8    C4    1.281175 A    
Cr1   O49   1.969409 S    
O38   C18   1.273916 A    
C42   C46   1.397412 A    
N12   O76   1.301598 A    
C158  C174  1.401401 A    
C95   H31   1.081189 S    
C144  C172  1.459436 S    
C37   C42   1.407979 A    
C41   C45   1.403018 A    
Cr3   O51   1.969409 S    
N11   O74   1.301740 A    
C43   C47   1.397780 A    
C83   C99   1.408028 A    
O26   Cr2   2.062746 S    
C19   C107  1.468390 S    
C129  C133  1.404730 A    
O29   C13   1.268234 A    
O28   C24   1.269133 A    
O14   C6    1.271893 A    
C68   C72   1.395035 A    
C163  H71   1.083466 S    
C131  C135  1.404716 A    
C133  H53   1.083500 S    
C87   N11   1.440745 S    
O40   Cr8   1.935603 S    
C57   C77   1.412105 A    
O41   Cr9   2.050265 S    
C108  C128  1.402859 A    
C168  H68   1.083109 S    
C140  C144  1.401861 A    
O33   Cr5   2.058814 S    
O5    Cr1   1.944984 S    
O35   Cr7   2.058814 S    
C82   C98   1.400100 A    
C123  H44   1.082905 S    
O29   Cr1   1.936399 S    
C137  C141  1.401966 A    
C96   C100  1.394163 A    
N2    O56   1.301612 A    
C89   C93   1.390314 A    
C83   H23   1.077772 S    
C26   C37   1.401171 A    
C84   H24   1.083633 S    
C45   C53   1.402770 A    
Cr9   O49   1.971940 S    
C92   C96   1.393938 A    
C47   C55   1.404171 A    
C53   H14   1.083672 S    
C18   O42   1.270596 A    
Cr11  O51   1.971940 S    
O26   C22   1.269133 A    
C125  H46   1.083149 S    
O20   Cr12  2.063706 S    
C162  H70   1.083462 S    
C111  H39   1.083271 S    
C166  H66   1.083106 S    
C130  C134  1.404771 A    
C152  H80   1.083216 S    
N8    O68   1.300743 A    
C18   C106  1.468418 S    
C31   C51   1.413041 A    
C124  C128  1.393308 A    
O30   C14   1.267382 A    
C86   N10   1.436254 S    
C5    O17   1.262060 A    
C82   C86   1.400612 A    
N10   O72   1.301416 A    
C105  C125  1.402858 A    
C39   C44   1.403769 A    
C156  H60   1.083309 S    
C65   H25   1.082569 S    
C84   C100  1.396100 A    
O42   Cr10  2.049888 S    
O18   Cr10  2.063706 S    
O31   Cr3   1.936399 S    
C2    C103  1.488923 S    
C3    C102  1.486533 S    
C96   H32   1.084178 S    
C162  C174  1.403502 A    
O34   Cr6   2.060708 S    
C74   H34   1.082633 S    
O6    Cr2   1.943786 S    
N5    O62   1.301272 A    
C165  C169  1.398959 A    
O24   Cr12  1.932014 S    
O30   Cr2   1.937156 S    
C167  C171  1.398942 A    
O48   Cr12  1.943800 S    
C8    O20   1.262671 A    
C168  C172  1.398918 A    
N6    O64   1.301273 A    
C58   C62   1.401162 A    
C119  C120  1.475365 S    
O37   C17   1.273760 A    
C31   C36   1.400272 A    
C20   C108  1.468431 S    
C15   O35   1.267962 A    
Cr10  O50   1.973994 S    
O40   C20   1.273916 A    
O43   Cr11  2.050265 S    
C63   C67   1.393679 A    
O21   Cr9   1.932493 S    
C115  C119  1.403005 A    
O39   Cr7   1.935085 S    
C135  C139  1.381724 A    
N7    O65   1.301381 A    
C13   O33   1.267973 A    
C156  C160  1.389938 A    
C78   N6    1.433054 S    
C141  C169  1.459745 S    
C110  H38   1.083266 S    
O15   Cr7   1.941337 S    
C89   C101  1.420850 A    
C49   C50   1.403686 A    
C22   C130  1.456278 S    
C107  C127  1.402855 A    
C154  C158  1.389932 A    
O9    Cr5   2.055150 S    
C53   C54   1.398341 A    
C42   H9    1.084340 S    
O23   C11   1.269302 A    
C55   C56   1.398627 A    
C57   C61   1.402278 A    
C60   C64   1.403765 A    
O6    C2    1.280236 A    
C48   C56   1.402777 A    
C155  C171  1.403204 A    
C145  H73   1.083312 S    
C164  H72   1.083462 S    
C35   H7    1.083870 S    
C115  H51   1.082757 S    
C153  C157  1.390044 A    
C135  H55   1.083504 S    
O19   Cr11  2.064692 S    
C155  H59   1.083302 S    
N3    O57   1.301447 A    
C159  C175  1.401368 A    
O45   C21   1.266521 A    
O47   C23   1.266526 A    
C73   C77   1.406054 A    
O13   C5    1.279392 A    
C119  C123  1.405616 A    
C6    O18   1.271193 A    
C138  C142  1.401848 A    
O36   Cr8   2.060708 S    
C15   C174  1.455111 S    
C65   C69   1.399774 A    
O38   Cr6   1.935603 S    
C111  C115  1.390420 A    
C122  H41   1.082903 S    
O22   Cr10  1.932014 S    
C134  H54   1.083503 S    
C25   H2    1.084653 S    
O37   Cr5   1.935085 S    
C28   C32   1.387546 A    
C27   H4    1.084449 S    
C64   C68   1.383752 A    
C153  H57   1.083303 S    
O1    C9    1.264388 A    
O7    C3    1.279679 A    
C164  C176  1.403517 A    
C149  H77   1.083217 S    
C143  C171  1.459720 S    
C153  C169  1.403197 A    
C157  H61   1.083230 S    
C155  C159  1.390039 A    
C151  H79   1.083219 S    
C159  H63   1.083233 S    
C122  C126  1.393310 A    
C88   N12   1.438236 S    
C17   C105  1.468405 S    
O23   Cr11  1.932493 S    
C45   C49   1.414515 A    
C28   H3    1.084436 S    
O45   Cr9   1.945075 S    
C68   H28   1.083899 S    
C87   C103  1.416407 A    
C112  C116  1.390426 A    
C54   H13   1.083433 S    
C88   C104  1.424357 A    
C67   H27   1.081338 S    
C7    O19   1.271130 A    
Cr4   O52   1.969481 S    
O2    Cr2   2.055815 S    
O48   C24   1.267132 A    
C136  C140  1.381528 A    
Cr6   O50   1.972673 S    
N9    O70   1.301394 A    
C94   C98   1.401631 A    
C25   C29   1.386877 A    
C8    C39   1.468864 S    
O13   Cr5   1.941337 S    
C167  H67   1.083106 S    
C118  C122  1.405610 A    
C62   H18   1.080011 S    
C139  C143  1.401975 A    
C94   H30   1.081441 S    
C32   C52   1.407085 A    
O16   C8    1.279777 A    
C79   N7    1.437623 S    
C128  H47   1.083147 S    
C81   H21   1.082866 S    
C113  C117  1.403006 A    
C95   C99   1.403936 A    
N1    O54   1.301592 A    
C110  C114  1.390422 A    
C91   C95   1.396777 A    
C83   C87   1.401029 A    
C26   H1    1.084689 S    
C92   C104  1.423229 A    
C35   C36   1.391937 A    
C105  C109  1.405084 A    
C148  C152  1.390035 A    
C69   C97   1.479284 S    
C109  H37   1.083270 S    
Cr2   O50   1.969481 S    
C145  C149  1.390100 A    
C90   N2    1.438541 S    
C12   C60   1.462088 S    
C38   C41   1.403479 A    
C160  H64   1.083229 S    
O14   Cr6   1.943010 S    
N7    O66   1.301360 A    
C166  C170  1.398930 A    
C163  C175  1.403575 A    
C162  C166  1.381241 A    
C61   H17   1.081681 S    
C76   H36   1.083497 S    
C120  C124  1.405610 A    
C64   H20   1.084683 S    
O25   Cr1   2.064257 S    
C89   N1    1.438639 S    
C136  H56   1.083500 S    
C63   H19   1.083152 S    
C164  C168  1.381233 A    
C146  C150  1.390037 A    
C132  C152  1.399988 A    
C156  C172  1.403119 A    
C14   O34   1.267165 A    
C70   C98   1.480903 S    
C142  C170  1.459435 S    
C85   C101  1.421923 A    
C130  C150  1.399985 A    
C92   N4    1.436344 S    
C44   H11   1.084155 S    
C13   C176  1.455114 S    
O10   Cr6   2.055628 S    
N12   O75   1.301489 A    
O4    Cr4   2.055815 S    
C160  C176  1.401392 A    
C138  F2    1.358403 S    
C27   C31   1.392885 A    
C70   C74   1.409246 A    
C46   C54   1.404348 A    
C116  C120  1.402996 A    
C29   C34   1.402331 A    
C40   C43   1.407849 A    
C48   C52   1.414248 A    
C137  F1    1.358385 S    
