data_mof_unit_65062.cif
_audit_creation_date              2012-12-10T20:13:26-0500
_audit_creation_method            fapswitch 2.2
_symmetry_space_group_name_H-M    P1
_symmetry_Int_Tables_number       1
_space_group_crystal_system       triclinic
_cell_length_a                    15.933241
_cell_length_b                    15.933109
_cell_length_c                    36.32262
_cell_angle_alpha                 90.001322
_cell_angle_beta                  90.003621
_cell_angle_gamma                 90.026371
_cell_volume                      9221.07963325

loop_
_atom_site_label
_atom_site_type_symbol
_atom_type_description
_atom_site_fract_x
_atom_site_fract_y
_atom_site_fract_z
_atom_type_partial_charge
C1    C     C_1   0.499850 0.000161 0.421646 0.032520
C2    C     C_R   0.999957 0.500004 0.650946 0.499431
C3    C     C_R   0.499999 0.999983 0.349046 0.501315
C4    C     C_R   0.499987 0.999973 0.650954 0.501188
C5    C     C_R   0.500021 0.999992 0.849055 0.499234
C6    C     C_R   0.500026 0.999991 0.150946 0.500896
C7    C     C_R   0.000010 0.499974 0.849054 0.501037
C8    C     C_R   0.000006 0.499978 0.150945 0.499155
C9    C     C_R   0.160157 0.339844 0.250001 0.509233
C10   C     C_R   0.839844 0.660157 0.750000 0.509635
C11   C     C_R   0.660151 0.160151 0.250001 0.510455
C12   C     C_1   0.499915 0.999173 0.578356 0.032048
C13   C     C_R   0.339848 0.839850 0.750000 0.507982
C14   C     C_R   0.839843 0.660157 0.250000 0.511310
C15   C     C_R   0.160158 0.339843 0.750000 0.511112
C16   C     C_R   0.339849 0.839850 0.249999 0.509688
C17   C     C_R   0.660150 0.160151 0.750000 0.510943
C18   C     C_R   0.160151 0.660150 0.750000 0.507611
C19   C     C_R   0.839849 0.339849 0.250000 0.511167
C20   C     C_R   0.660156 0.839843 0.750000 0.509766
C21   C     C_R   0.339844 0.160157 0.250000 0.508251
C22   C     C_R   0.839850 0.339849 0.749999 0.511138
C23   C     C_1   0.004537 0.499826 0.421646 0.028890
C24   C     C_R   0.160149 0.660152 0.250000 0.507937
C25   C     C_R   0.339842 0.160156 0.750000 0.510840
C26   C     C_R   0.660157 0.839843 0.250000 0.512212
C27   C     C_1   0.223375 0.723380 0.249999 -0.018852
C28   C     C_1   0.776623 0.276621 0.749999 -0.015940
C29   C     C_1   0.276619 0.223383 0.250000 -0.019895
C30   C     C_1   0.723381 0.776618 0.750000 -0.017727
C31   C     C_1   0.776622 0.276623 0.250000 -0.015993
C32   C     C_1   0.223378 0.723377 0.750001 -0.019686
C33   C     C_1   0.723383 0.776619 0.250000 -0.013503
C34   C     C_1   0.005084 0.500060 0.578357 0.019318
C35   C     C_1   0.276618 0.223381 0.750000 -0.014522
C36   C     C_1   0.223382 0.276618 0.750000 -0.014474
C37   C     C_1   0.776618 0.723382 0.249999 -0.013660
C38   C     C_1   0.276621 0.776623 0.750000 -0.019551
C39   C     C_1   0.723378 0.223377 0.250001 -0.015997
C40   C     C_1   0.776619 0.723382 0.750000 -0.017739
C41   C     C_1   0.223382 0.276618 0.250001 -0.019536
C42   C     C_1   0.723377 0.223378 0.750000 -0.015925
C43   C     C_1   0.276621 0.776623 0.249998 -0.018445
C44   C     C_R   0.571192 0.027497 0.480670 0.236013
C45   C     C_1   0.999819 0.504806 0.921644 0.029194
C46   C     C_R   0.428548 0.971536 0.519339 0.235844
C47   C     C_R   0.031217 0.572823 0.480517 0.252565
C48   C     C_R   0.987353 0.426271 0.519400 0.235894
C49   C     C_R   0.427392 0.974992 0.480601 0.232880
C50   C     C_R   0.572340 0.024079 0.519400 0.231808
C51   C     C_R   0.990535 0.425186 0.480685 0.232164
C52   C     C_R   0.032598 0.572811 0.519257 0.252894
C53   C     C_R   0.070625 0.537019 0.980518 0.253884
C54   C     C_R   0.927817 0.482110 0.019391 0.237178
C55   C     C_R   0.517118 0.072403 0.980608 0.237111
C56   C     C_1   0.999982 0.505312 0.078356 0.020167
C57   C     C_R   0.463600 0.929067 0.019482 0.253811
C58   C     C_R   0.926513 0.485187 0.980679 0.230745
C59   C     C_R   0.070512 0.538337 0.019263 0.252959
C60   C     C_R   0.462282 0.929167 0.980738 0.252920
C61   C     C_R   0.514011 0.073681 0.019320 0.230722
C62   C     C_R   0.499587 0.000580 0.461344 -0.043788
C63   C     C_R   0.500151 0.998509 0.538660 -0.044132
C64   C     C_R   0.008796 0.499340 0.461323 -0.051273
C65   C     C_R   0.009196 0.499679 0.538679 -0.050884
C66   C     C_R   0.999056 0.509071 0.961321 -0.051216
C67   C     C_1   0.494654 0.999998 0.921643 0.020141
C68   C     C_R   0.999348 0.509450 0.038678 -0.050582
C69   C     C_R   0.490487 0.000605 0.961322 -0.050603
C70   C     C_R   0.490851 0.000903 0.038679 -0.051280
C71   C     C_1   0.000030 0.502336 0.111504 0.019819
C72   C     C_1   0.000021 0.502090 0.888498 0.027060
C73   C     C_1   0.497888 0.999981 0.111503 0.027049
C74   C     C_1   0.497647 0.999963 0.888496 0.019825
C75   C     C_1   0.499929 0.999603 0.611514 0.027783
C76   C     C_1   0.499969 0.000027 0.388487 0.027912
C77   C     C_1   0.002201 0.500026 0.611506 0.019034
C78   C     C_1   0.495149 0.000170 0.078356 0.029169
C79   C     C_1   0.001920 0.499982 0.388498 0.026548
C80   C     C_3   0.133021 0.641847 0.053281 -0.101726
C81   C     C_3   0.801847 0.527415 0.957259 -0.081462
C82   C     C_3   0.470505 0.197905 0.042740 -0.081386
C83   C     C_3   0.359378 0.865642 0.946727 -0.101524
C84   C     C_3   0.859573 0.367977 0.041588 -0.079615
C85   C     C_3   0.140981 0.641204 0.950920 -0.094507
C86   C     C_3   0.360117 0.857687 0.049085 -0.094261
C87   C     C_3   0.630568 0.141810 0.958427 -0.079386
C88   C     C_3   0.697320 0.981694 0.542537 -0.080573
C89   C     C_R   0.999943 0.500001 0.349054 0.501176
C90   C     C_3   0.302411 0.017574 0.457530 -0.088999
C91   C     C_3   0.131248 0.642897 0.553207 -0.102003
C92   C     C_3   0.042266 0.304109 0.457314 -0.090882
C93   C     C_3   0.359481 0.858501 0.542025 -0.092001
C94   C     C_3   0.639915 0.140553 0.457837 -0.086376
C95   C     C_3   0.878728 0.349548 0.541587 -0.079511
C96   C     C_3   0.129706 0.650763 0.450835 -0.088783
H1    H     H_    0.107669 0.636436 0.081623 0.126181
H2    H     H_    0.364516 0.891109 0.918395 0.126182
H3    H     H_    0.316323 0.905876 0.963284 0.074157
H4    H     H_    0.329857 0.802748 0.944621 0.144199
H5    H     H_    0.916331 0.346741 0.056848 0.104143
H6    H     H_    0.856643 0.337168 0.014124 0.154977
H7    H     H_    0.803829 0.347216 0.057459 0.151733
H8    H     H_    0.142299 0.683496 0.975208 0.111587
H9    H     H_    0.085251 0.655238 0.933512 0.090381
H10   H     H_    0.197631 0.655029 0.934235 0.149609
H11   H     H_    0.317833 0.855905 0.024800 0.111744
H12   H     H_    0.092307 0.684496 0.036745 0.074368
H13   H     H_    0.345531 0.913295 0.066479 0.090111
H14   H     H_    0.346867 0.800923 0.065787 0.150200
H15   H     H_    0.652398 0.085270 0.943174 0.104174
H16   H     H_    0.661324 0.145070 0.985896 0.155124
H17   H     H_    0.650766 0.197761 0.942556 0.151850
H18   H     H_    0.719335 0.958032 0.515373 0.162396
H19   H     H_    0.667270 0.930111 0.558481 0.104424
H20   H     H_    0.753379 0.002571 0.558165 0.152526
H21   H     H_    0.332482 0.069219 0.441632 0.098601
H22   H     H_    0.280425 0.041116 0.484718 0.156250
H23   H     H_    0.195612 0.672012 0.055364 0.143487
H24   H     H_    0.246327 0.996812 0.441889 0.148830
H25   H     H_    0.176788 0.605591 0.536610 0.074137
H26   H     H_    0.127893 0.617112 0.581535 0.126993
H27   H     H_    0.156601 0.707580 0.555314 0.145570
H28   H     H_    0.068385 0.284198 0.484361 0.152196
H29   H     H_    0.090763 0.338251 0.441090 0.096792
H30   H     H_    0.025621 0.246481 0.441807 0.149445
H31   H     H_    0.415655 0.837626 0.557790 0.097142
H32   H     H_    0.357378 0.826838 0.514727 0.149953
H33   H     H_    0.303124 0.838397 0.557645 0.139625
H34   H     H_    0.832180 0.578343 0.941013 0.101541
H35   H     H_    0.641830 0.172460 0.485083 0.151539
H36   H     H_    0.583705 0.161090 0.442011 0.095818
H37   H     H_    0.696225 0.160707 0.442202 0.152909
H38   H     H_    0.848258 0.344247 0.514117 0.155665
H39   H     H_    0.853213 0.404535 0.556831 0.105525
H40   H     H_    0.862258 0.292400 0.557466 0.151380
H41   H     H_    0.147840 0.596171 0.433464 0.090707
H42   H     H_    0.171882 0.655384 0.475084 0.116925
H43   H     H_    0.139128 0.708198 0.434078 0.159030
H44   H     H_    0.779978 0.552003 0.984290 0.159945
H45   H     H_    0.745675 0.506353 0.941757 0.155817
H46   H     H_    0.419876 0.167035 0.058971 0.101284
H47   H     H_    0.445719 0.219559 0.015709 0.159815
H48   H     H_    0.490979 0.254268 0.058259 0.155993
O1    O     O_3   1.000000 0.500000 0.250000 -0.446635
O2    O     O_R   1.000000 0.569200 0.668500 -0.534945
O3    O     O_R   0.569200 0.000000 0.331500 -0.528802
O4    O     O_R   0.430800 0.000000 0.668500 -0.530142
O5    O     O_R   0.500000 0.069200 0.831500 -0.528959
O6    O     O_R   0.500000 0.930800 0.168500 -0.530719
O7    O     O_R   0.930800 0.500000 0.831500 -0.534672
O8    O     O_R   0.069200 0.500000 0.168500 -0.534847
O9    O     O_R   0.500000 0.930800 0.831500 -0.534895
O10   O     O_R   0.500000 0.069200 0.168500 -0.534489
O11   O     O_R   0.069200 0.500000 0.831500 -0.530368
O12   O     O_3   1.000000 0.500000 0.750000 -0.446656
O13   O     O_R   0.930800 0.500000 0.168500 -0.529006
O14   O     O_R   0.097420 0.333350 0.271390 -0.535362
O15   O     O_R   0.902580 0.666650 0.728610 -0.531502
O16   O     O_R   0.666650 0.097420 0.271390 -0.532440
O17   O     O_R   0.333350 0.902580 0.728610 -0.532860
O18   O     O_R   0.902580 0.666650 0.271390 -0.530636
O19   O     O_R   0.097420 0.333350 0.728610 -0.531696
O20   O     O_R   0.333350 0.902580 0.271390 -0.532100
O21   O     O_R   0.666650 0.097420 0.728610 -0.531674
O22   O     O_R   0.097420 0.666650 0.728610 -0.533806
O23   O     O_3   0.500000 0.000000 0.250000 -0.446592
O24   O     O_R   0.902580 0.333350 0.271390 -0.531683
O25   O     O_R   0.666650 0.902580 0.728610 -0.533793
O26   O     O_R   0.333350 0.097420 0.271390 -0.535441
O27   O     O_R   0.902580 0.333350 0.728610 -0.531986
O28   O     O_R   0.097420 0.666650 0.271390 -0.533244
O29   O     O_R   0.333350 0.097420 0.728610 -0.531307
O30   O     O_R   0.666650 0.902580 0.271390 -0.530578
O31   O     O_R   0.597420 0.833350 0.771390 -0.531371
O32   O     O_R   0.402580 0.166650 0.228610 -0.533131
O33   O     O_R   0.166650 0.597420 0.771390 -0.533000
O34   O     O_3   0.500000 0.000000 0.750000 -0.446773
O35   O     O_R   0.833350 0.402580 0.228610 -0.531192
O36   O     O_R   0.402580 0.166650 0.771390 -0.530958
O37   O     O_R   0.597420 0.833350 0.228610 -0.530059
O38   O     O_R   0.833350 0.402580 0.771390 -0.531015
O39   O     O_R   0.166650 0.597420 0.228610 -0.533412
O40   O     O_R   0.597420 0.166650 0.228610 -0.531200
O41   O     O_R   0.402580 0.833350 0.771390 -0.533394
O42   O     O_R   0.166650 0.402580 0.228610 -0.530844
O43   O     O_R   0.833350 0.597420 0.771390 -0.533786
O44   O     O_R   0.402580 0.833350 0.228610 -0.532885
O45   O     O_R   0.000000 0.569200 0.331500 -0.530344
O46   O     O_R   0.597420 0.166650 0.771390 -0.531422
O47   O     O_R   0.833350 0.597420 0.228610 -0.531029
O48   O     O_R   0.166650 0.402580 0.771390 -0.530185
O49   O     O_3   0.143305 0.561400 0.037505 -0.511665
O50   O     O_3   0.856125 0.458341 0.961767 -0.547858
O51   O     O_3   0.540133 0.144340 0.038232 -0.547660
O52   O     O_3   0.439934 0.856151 0.962495 -0.511627
O53   O     O_3   0.857238 0.456150 0.038432 -0.540152
O54   O     O_3   0.143646 0.556187 0.961672 -0.507173
O55   O     O_3   0.445154 0.855857 0.038329 -0.507162
O56   O     O_R   1.000000 0.430800 0.668500 -0.529641
O57   O     O_3   0.542372 0.143238 0.961566 -0.540222
O58   O     O_3   0.642682 0.050632 0.538431 -0.550327
O59   O     O_3   0.357010 0.948579 0.461561 -0.547894
O60   O     O_3   0.050186 0.647119 0.537496 -0.513202
O61   O     O_3   0.969215 0.352932 0.461776 -0.544255
O62   O     O_3   0.357556 0.946565 0.538320 -0.539717
O63   O     O_3   0.642168 0.052537 0.461700 -0.539947
O64   O     O_3   0.966829 0.353938 0.538450 -0.542989
O65   O     O_3   0.044782 0.647081 0.461669 -0.511221
O66   O     O_R   0.430800 0.000000 0.331500 -0.536636
O67   O     O_R   0.569200 0.000000 0.668500 -0.535164
O68   O     O_R   1.000000 0.430800 0.331500 -0.535060
Zn1   Zn    Zn3+2 0.098900 0.500000 0.219510 0.954245
Zn2   Zn    Zn3+2 0.401100 0.000000 0.280490 0.951711
Zn3   Zn    Zn3+2 1.000000 0.598900 0.719510 0.953684
Zn4   Zn    Zn3+2 0.000000 0.401100 0.280490 0.954070
Zn5   Zn    Zn3+2 0.401100 0.000000 0.719510 0.958369
Zn6   Zn    Zn3+2 0.598900 0.000000 0.280490 0.961858
Zn7   Zn    Zn3+2 0.000000 0.401100 0.719510 0.959746
Zn8   Zn    Zn3+2 1.000000 0.598900 0.280490 0.958548
Zn9   Zn    Zn3+2 0.901100 0.500000 0.780490 0.955936
Zn10  Zn    Zn3+2 0.500000 0.098900 0.219510 0.955060
Zn11  Zn    Zn3+2 0.500000 0.901100 0.780490 0.954363
Zn12  Zn    Zn3+2 0.901100 0.500000 0.219510 0.961164
Zn13  Zn    Zn3+2 0.098900 0.500000 0.780490 0.958806
Zn14  Zn    Zn3+2 0.500000 0.901100 0.219510 0.960319
Zn15  Zn    Zn3+2 0.500000 0.098900 0.780490 0.960765
Zn16  Zn    Zn3+2 0.598900 0.000000 0.719510 0.955400

loop_
_geom_bond_atom_site_label_1
_geom_bond_atom_site_label_2
_ccdc_geom_bond_type
O12   Zn13  S    
C61   C70   A    
C81   H44   S    
C15   O48   A    
C49   O59   S    
C14   O18   A    
O6    Zn14  S    
O17   Zn5   S    
C80   H1    S    
C70   C78   S    
C84   H6    S    
O34   Zn5   S    
C86   H11   S    
C24   C27   S    
C82   H46   S    
C19   C31   S    
C92   H29   S    
C96   H43   S    
C18   O22   A    
C25   O36   A    
O1    Zn12  S    
C20   C30   S    
C59   O49   S    
O40   Zn10  S    
C80   O49   S    
O1    Zn8   S    
C46   C49   A    
C82   O51   S    
C54   O53   S    
O32   Zn10  S    
O39   Zn1   S    
C2    O56   A    
C53   O54   S    
C90   H22   S    
C15   O19   A    
C86   H14   S    
C51   C64   A    
O9    Zn11  S    
O44   Zn14  S    
C92   H28   S    
C34   C77   T    
C96   H42   S    
C17   O46   A    
C93   H33   S    
C20   O31   A    
C87   H15   S    
C26   O30   A    
O14   Zn4   S    
C21   O26   A    
C4    O4    A    
O42   Zn1   S    
C83   O52   S    
C94   H37   S    
C5    O5    A    
C10   C40   S    
C56   C68   S    
C5    C74   S    
C17   C42   S    
C4    C75   S    
C92   O61   S    
C23   C79   T    
C81   O50   S    
C91   O60   S    
C58   C66   A    
C48   C51   A    
O16   Zn6   S    
O68   Zn4   S    
C18   O33   A    
C31   C39   T    
C8    C71   S    
C91   H26   S    
O13   Zn12  S    
C73   C78   T    
O30   Zn6   S    
C32   C38   T    
C48   C65   A    
O29   Zn5   S    
O4    Zn5   S    
C61   O51   S    
O23   Zn6   S    
O34   Zn16  S    
C22   O27   A    
O28   Zn8   S    
O45   Zn8   S    
O22   Zn3   S    
C56   C71   T    
C3    O66   A    
C81   H45   S    
C20   O25   A    
C80   H23   S    
C93   O62   S    
C91   H27   S    
C57   O55   S    
C24   O39   A    
C84   H5    S    
C85   H9    S    
C8    O13   A    
C34   C65   S    
C22   C28   S    
C11   O16   A    
C95   H38   S    
C89   O68   A    
C50   C63   A    
C50   O58   S    
C53   C59   A    
O18   Zn8   S    
C13   O41   A    
C94   O63   S    
O46   Zn15  S    
C90   H21   S    
C88   O58   S    
C86   H13   S    
O15   Zn3   S    
C1    C62   S    
C82   H48   S    
C9    O42   A    
C16   O44   A    
C47   C64   A    
C12   C63   S    
C57   C60   A    
C87   H16   S    
O43   Zn9   S    
C44   C62   A    
O66   Zn2   S    
C21   C29   S    
C83   H2    S    
O21   Zn16  S    
C33   C37   T    
O7    Zn9   S    
C84   H7    S    
O12   Zn9   S    
C67   C69   S    
C35   C36   T    
C90   H24   S    
C88   H20   S    
C93   H31   S    
O23   Zn10  S    
C3    C76   S    
C27   C43   T    
C59   C68   A    
O1    Zn4   S    
C26   C33   S    
C21   O32   A    
C48   O64   S    
O12   Zn3   S    
C95   H39   S    
C10   O43   A    
C13   C38   S    
O25   Zn16  S    
C30   C40   T    
C67   C74   T    
C6    O10   A    
C11   C39   S    
O10   Zn10  S    
C4    O67   A    
C16   C43   S    
O34   Zn15  S    
C55   C69   A    
C85   H8    S    
C25   C35   S    
C7    O7    A    
C14   O47   A    
C84   O53   S    
C60   C69   A    
C23   C64   S    
C83   H4    S    
C47   O65   S    
O41   Zn11  S    
O5    Zn15  S    
O1    Zn1   S    
O34   Zn11  S    
O47   Zn12  S    
C18   C32   S    
C19   O24   A    
C85   H10   S    
C19   O35   A    
C15   C36   S    
C7    C72   S    
C60   O52   S    
C6    C73   S    
C90   O59   S    
C54   C58   A    
C44   C50   A    
C95   O64   S    
C46   O62   S    
C80   H12   S    
O48   Zn13  S    
O38   Zn9   S    
C89   O45   A    
C96   O65   S    
C29   C41   T    
C79   C89   S    
C1    C76   T    
C96   H41   S    
C11   O40   A    
O2    Zn3   S    
C82   H47   S    
O23   Zn14  S    
C92   H30   S    
C51   O61   S    
C13   O17   A    
C47   C52   A    
O26   Zn2   S    
O37   Zn14  S    
C2    O2    A    
O8    Zn1   S    
C86   O55   S    
O36   Zn15  S    
C9    C41   S    
C94   H35   S    
O35   Zn12  S    
O67   Zn16  S    
O20   Zn2   S    
O24   Zn4   S    
C88   H19   S    
C93   H32   S    
C22   O38   A    
C2    C77   S    
C53   C66   A    
C3    O3    A    
C14   C37   S    
C9    O14   A    
O11   Zn13  S    
C81   H34   S    
C46   C63   A    
C16   O20   A    
C8    O8    A    
C5    O9    A    
C55   C61   A    
C28   C42   T    
C95   H40   S    
C7    O11   A    
C58   O50   S    
O12   Zn7   S    
C44   O63   S    
C88   H18   S    
C24   O28   A    
C94   H36   S    
C87   H17   S    
C57   C70   A    
O33   Zn13  S    
C6    O6    A    
C26   O37   A    
C25   O29   A    
C85   O54   S    
C54   C68   A    
C91   H25   S    
C12   C75   T    
C45   C66   S    
O3    Zn6   S    
O56   Zn7   S    
O31   Zn11  S    
C49   C62   A    
C17   O21   A    
O23   Zn2   S    
C52   O60   S    
C10   O15   A    
C87   O57   S    
O27   Zn7   S    
C52   C65   A    
O19   Zn7   S    
C83   H3    S    
C45   C72   T    
C55   O57   S    
