data_mof_unit_52911.cif
_audit_creation_date              2012-12-11T16:09:29-0500
_audit_creation_method            fapswitch 2.2
_symmetry_space_group_name_H-M    P1
_symmetry_Int_Tables_number       1
_space_group_crystal_system       triclinic
_cell_length_a                    6.979868
_cell_length_b                    21.315355
_cell_length_c                    23.634966
_cell_angle_alpha                 90.072982
_cell_angle_beta                  90.463524
_cell_angle_gamma                 89.99862
_cell_volume                      3516.25365836

loop_
_atom_site_label
_atom_site_type_symbol
_atom_type_description
_atom_site_fract_x
_atom_site_fract_y
_atom_site_fract_z
_atom_type_partial_charge
O1    O     O_R   0.494270 0.443530 0.442350 -0.534856
O2    O     O_R   0.824060 0.436290 0.557250 -0.536663
O3    O     O_R   0.994370 0.556470 0.557650 -0.536590
C1    C     C_R   0.655820 0.421154 0.576572 0.719154
O4    O     O_R   0.823990 0.436120 0.442760 -0.534559
O5    O     O_R   0.994300 0.556300 0.442340 -0.529091
C2    C     C_R   0.654613 0.420903 0.423447 0.726007
O6    O     O_R   0.494350 0.443700 0.557660 -0.532406
O7    O     O_3   0.660800 0.539430 0.500000 -0.368511
V1    V     V_3+5 0.935650 0.492690 0.500000 1.463201
O8    O     O_R   0.324020 0.563710 0.442750 -0.537607
C3    C     C_R   0.154628 0.578871 0.423448 0.717873
O9    O     O_R   0.324090 0.563880 0.557240 -0.537693
C4    C     C_R   0.155878 0.579028 0.576591 0.716319
V2    V     V_3+5 0.435660 0.507310 0.500000 1.456131
O10   O     O_3   0.160640 0.460570 0.500000 -0.366374
C5    C     C_3   0.072938 0.718490 0.798136 -0.280861
C6    C     C_3   0.250659 0.710412 0.760295 0.563627
H1    H     H_    0.044224 0.693033 0.838119 0.130334
H2    H     H_    0.412108 0.808470 0.760185 0.168012
C7    C     C_1   0.147443 0.624910 0.621959 -0.184043
C8    C     C_1   0.072125 0.874482 0.877141 -0.185366
C9    C     C_3   0.943492 0.717471 0.744170 -0.287635
C10   C     C_3   0.123727 0.709075 0.707017 0.046360
C11   C     C_3   0.968983 0.789176 0.738672 0.563324
C12   C     C_3   0.095917 0.790500 0.791949 0.047977
C13   C     C_3   0.146701 0.781090 0.700824 -0.277453
C14   C     C_3   0.276141 0.782116 0.754794 -0.284925
C15   C     C_1   0.138231 0.662955 0.660188 0.014693
C16   C     C_1   0.081384 0.836535 0.838839 0.014986
H3    H     H_    0.175430 0.806547 0.660842 0.135007
H4    H     H_    0.807510 0.691129 0.738768 0.167076
C17   C     C_3   0.256168 0.810056 0.250819 0.375846
C18   C     C_3   0.903194 0.787424 0.238006 -0.517629
C19   C     C_3   0.907130 0.736813 0.287693 0.767002
H5    H     H_    0.225832 0.787817 0.341577 0.233074
H6    H     H_    0.787628 0.781591 0.206217 0.124240
H7    H     H_    0.872523 0.834526 0.256214 0.202125
C20   C     C_1   0.142804 0.624588 0.378041 -0.161771
C21   C     C_3   0.098695 0.790687 0.206970 0.091373
C22   C     C_3   0.258680 0.762900 0.301424 -0.549536
C23   C     C_3   0.113613 0.708232 0.291961 0.106811
C24   C     C_3   0.165133 0.676055 0.234749 0.147968
C25   C     C_3   0.146165 0.723577 0.184232 0.030201
C26   C     C_1   0.130290 0.662357 0.339659 0.118073
C27   C     C_1   0.086622 0.837007 0.159624 0.016056
C28   C     C_1   0.076052 0.874870 0.121290 -0.195087
H8    H     H_    0.028594 0.708281 0.155280 0.118275
H9    H     H_    0.313608 0.659973 0.238935 0.120698
H10   H     H_    0.396618 0.807403 0.228586 0.086733
H11   H     H_    0.405586 0.743826 0.307123 0.143007
C29   C     C_3   0.405170 0.260937 0.707158 0.768998
C30   C     C_3   0.760372 0.237325 0.700137 -0.417336
C31   C     C_3   0.734643 0.186268 0.747019 0.281673
H12   H     H_    0.908488 0.256196 0.702766 0.192557
H13   H     H_    0.748349 0.216001 0.657274 0.219974
H14   H     H_    0.874769 0.181102 0.769974 0.081866
C32   C     C_1   0.571010 0.123996 0.877385 -0.181203
C33   C     C_3   0.612967 0.291785 0.707500 0.021455
C34   C     C_3   0.381356 0.217454 0.761640 0.559892
C35   C     C_3   0.584187 0.208510 0.791769 -0.006840
C36   C     C_3   0.659018 0.273010 0.814473 0.137486
C37   C     C_3   0.666280 0.322403 0.765702 -0.524236
C38   C     C_1   0.576910 0.162032 0.839145 0.017185
C39   C     C_1   0.634521 0.337651 0.660254 0.058026
C40   C     C_1   0.646779 0.375428 0.621944 -0.173509
H15   H     H_    0.581826 0.364705 0.775433 0.163924
H16   H     H_    0.815227 0.340734 0.763413 0.180857
H17   H     H_    0.809186 0.265931 0.829489 0.158224
C41   C     C_3   0.506821 0.319400 0.242128 -0.588919
C42   C     C_3   0.822963 0.269472 0.272193 0.709403
C43   C     C_3   0.802019 0.225272 0.219582 -0.417467
H18   H     H_    0.580015 0.363083 0.228760 0.169662
H19   H     H_    0.864455 0.247418 0.181541 0.181946
H20   H     H_    0.886894 0.181684 0.226151 0.216124
C44   C     C_1   0.575080 0.124033 0.121326 -0.205969
C45   C     C_3   0.618348 0.290097 0.292675 -0.041346
C46   C     C_3   0.481127 0.272090 0.191154 0.831596
C47   C     C_3   0.588451 0.208706 0.207159 -0.077647
C48   C     C_3   0.501275 0.179434 0.262775 0.672733
C49   C     C_3   0.501936 0.231044 0.310976 0.184310
C50   C     C_1   0.582203 0.162181 0.159606 0.023546
C51   C     C_1   0.631828 0.336737 0.339948 0.076637
C52   C     C_1   0.643042 0.374900 0.378144 -0.172868
H21   H     H_    0.351800 0.246902 0.318632 0.104949
H22   H     H_    0.363563 0.335268 0.256868 0.213796
O11   O     O_R   0.724990 0.055630 0.941600 -0.533586
O12   O     O_R   0.395220 0.063160 0.056480 -0.538172
O13   O     O_R   0.225040 0.942970 0.056870 -0.534075
C53   C     C_R   0.564491 0.078265 0.075882 0.724878
O14   O     O_R   0.395270 0.063000 0.941990 -0.539397
O15   O     O_R   0.225080 0.942800 0.941570 -0.534327
C54   C     C_R   0.563422 0.078169 0.922692 0.729673
O16   O     O_R   0.724940 0.055790 0.056910 -0.534335
O17   O     O_3   0.558580 0.959880 0.999250 -0.368228
V3    V     V_3+5 0.283680 0.006590 0.999220 1.425169
O18   O     O_R   0.895380 0.935350 0.941950 -0.535852
C55   C     C_R   0.063615 0.920256 0.922590 0.720690
O19   O     O_R   0.895330 0.935520 0.056440 -0.538058
C56   C     C_R   0.064677 0.920492 0.075828 0.722053
V4    V     V_3+5 0.783690 0.991900 0.999180 1.431068
O20   O     O_3   0.058660 0.038680 0.999200 -0.368969
O21   O     O_3   0.399303 0.666488 0.768775 -0.552882
C57   C     C_3   0.493703 0.679474 0.820384 -0.275213
H23   H     H_    0.394560 0.675587 0.856804 0.137306
H24   H     H_    0.562782 0.726484 0.819768 0.149303
H25   H     H_    0.608875 0.644252 0.826694 0.166831
O22   O     O_3   0.871213 0.768848 0.338664 -0.648803
H26   H     H_    0.734892 0.782165 0.337599 0.282114
O23   O     O_3   0.773676 0.685785 0.285033 -0.545196
C58   C     C_3   0.679534 0.676173 0.232937 -0.194120
H27   H     H_    0.774550 0.675563 0.196178 0.159862
H28   H     H_    0.570503 0.712778 0.226634 0.143993
H29   H     H_    0.611575 0.629224 0.233933 0.170388
O24   O     O_3   0.317562 0.723946 0.153300 -0.675771
H30   H     H_    0.286228 0.738658 0.114474 0.290853
O25   O     O_3   0.055377 0.621733 0.225431 -0.638957
H31   H     H_    0.111656 0.599866 0.192363 0.291941
O26   O     O_3   0.308014 0.158526 0.744275 -0.625506
H32   H     H_    0.270983 0.134193 0.778217 0.281388
O27   O     O_3   0.400268 0.221635 0.658850 -0.624597
H33   H     H_    0.265178 0.209298 0.651167 0.324485
O28   O     O_3   0.675296 0.128609 0.722347 -0.509092
C59   C     C_3   0.835510 0.091674 0.707906 -0.134900
H34   H     H_    0.911120 0.074927 0.746641 0.123991
H35   H     H_    0.936183 0.117721 0.680216 0.139302
H36   H     H_    0.784751 0.049835 0.684204 0.164267
O29   O     O_3   0.557506 0.293858 0.862300 -0.627231
H37   H     H_    0.448056 0.320069 0.849997 0.322986
O30   O     O_3   0.246168 0.303139 0.699481 -0.563796
C60   C     C_3   0.249101 0.360282 0.729525 -0.258874
H38   H     H_    0.355385 0.393413 0.712088 0.137368
H39   H     H_    0.265107 0.353868 0.775621 0.162630
H40   H     H_    0.108158 0.383261 0.723094 0.158436
O31   O     O_3   0.248359 0.245197 0.798676 -0.676447
H41   H     H_    0.235694 0.218143 0.832560 0.279280
O32   O     O_3   0.567104 0.297849 0.141539 -0.575959
C61   C     C_3   0.478409 0.353979 0.122509 -0.270098
H42   H     H_    0.343339 0.366414 0.144602 0.167378
H43   H     H_    0.444996 0.349239 0.076737 0.165682
H44   H     H_    0.580805 0.393430 0.127691 0.147796
O33   O     O_3   0.917131 0.235559 0.315285 -0.597208
H45   H     H_    0.955819 0.265763 0.345278 0.313393
O34   O     O_3   0.937202 0.322184 0.258935 -0.645563
H46   H     H_    0.889794 0.341171 0.223226 0.284801
O35   O     O_3   0.577789 0.206965 0.361935 -0.598734
H47   H     H_    0.474343 0.183147 0.380750 0.297042
O36   O     O_3   0.310418 0.159134 0.250212 -0.563746
C62   C     C_3   0.229974 0.121788 0.293419 -0.160263
H48   H     H_    0.207005 0.149087 0.332695 0.149775
H49   H     H_    0.315477 0.078941 0.302248 0.137060
H50   H     H_    0.086955 0.105545 0.278831 0.178243
O37   O     O_3   0.279634 0.261789 0.183680 -0.542127
C63   C     C_3   0.226216 0.233449 0.131542 -0.162410
H51   H     H_    0.174296 0.185112 0.139671 0.161719
H52   H     H_    0.339816 0.231394 0.099033 0.151751
H53   H     H_    0.106028 0.260564 0.112765 0.134463
O38   O     O_3   0.616975 0.128240 0.280104 -0.631518
H54   H     H_    0.602114 0.094263 0.251658 0.280274
O39   O     O_3   0.820375 0.833123 0.730231 -0.552429
C64   C     C_3   0.726155 0.820269 0.678570 -0.264499
H55   H     H_    0.657210 0.773235 0.679050 0.147411
H56   H     H_    0.825397 0.824304 0.642187 0.140714
H57   H     H_    0.610913 0.855480 0.672321 0.170497
O40   O     O_3   0.219410 0.871761 0.270757 -0.537439
C65   C     C_3   0.392349 0.902211 0.285515 -0.231817
H58   H     H_    0.479300 0.911628 0.247218 0.129291
H59   H     H_    0.476906 0.874512 0.316816 0.131560
H60   H     H_    0.357743 0.948051 0.305209 0.168709

loop_
_geom_bond_atom_site_label_1
_geom_bond_atom_site_label_2
_ccdc_geom_bond_type
C49   O35   S    
C36   O29   S    
C31   O28   S    
O12   V3    S    
O40   C65   S    
C8    C55   S    
V3    O20   S    
C41   C46   S    
C18   H6    S    
C22   C23   S    
O17   V3    S    
C10   C13   S    
C1    O6    A    
C60   H40   S    
O29   H37   S    
C57   H24   S    
C64   H55   S    
C30   C33   S    
O15   C55   A    
O31   H41   S    
C30   C31   S    
C21   C27   S    
V4    O20   S    
C17   H10   S    
C6    C10   S    
C5    C12   S    
C4    C7    S    
C32   C54   S    
C43   C47   S    
C62   H49   S    
O5    C3    A    
C45   C51   S    
V2    O10   S    
O18   C55   A    
O15   V3    S    
O22   H26   S    
C34   O26   S    
C18   C19   S    
C19   C23   S    
O23   C58   S    
C19   O22   S    
C29   C34   S    
O14   V3    S    
O11   V4    S    
O8    V2    S    
C58   H27   S    
O16   V4    S    
C9    C10   S    
O1    V2    S    
O7    V1    S    
C63   H52   S    
C20   C26   T    
C2    C52   S    
O1    C2    A    
O9    C4    A    
C41   C45   S    
C65   H59   S    
H5    C22   S    
C41   H18   S    
C43   H20   S    
C57   H23   S    
C64   H56   S    
C53   O16   A    
C30   H12   S    
C32   C38   T    
C37   H15   S    
C17   C21   S    
O13   C56   A    
C13   H3    S    
O28   C59   S    
C6    C14   S    
O36   C62   S    
C25   O24   S    
C63   H53   S    
C43   H19   S    
C62   H50   S    
C44   C50   T    
O4    C2    A    
C46   C47   S    
C24   H9    S    
H2    C14   S    
C11   C12   S    
C7    C15   T    
C28   C56   S    
C36   H17   S    
C34   C35   S    
C23   C26   S    
C35   C38   S    
O2    C1    A    
C24   C25   S    
C36   C37   S    
C29   C33   S    
O14   C54   A    
C29   O27   S    
C48   O38   S    
C51   C52   T    
C45   C49   S    
O26   H32   S    
O18   V4    S    
C11   O39   S    
C5    C6    S    
C63   H51   S    
C58   H28   S    
C5    C9    S    
C10   C15   S    
C25   H8    S    
C19   O23   S    
C34   O31   S    
O27   H33   S    
O3    C4    A    
C61   H43   S    
C24   O25   S    
C42   O33   S    
O19   V4    S    
O12   C53   A    
C48   O36   S    
C12   C16   S    
O6    V2    S    
C59   H36   S    
C65   H58   S    
C18   C21   S    
C23   C24   S    
C60   H38   S    
O2    V1    S    
C46   O32   S    
C42   C45   S    
C64   H57   S    
C59   H35   S    
O35   H47   S    
C30   H13   S    
C27   C28   T    
C8    C16   T    
C18   H7    S    
C33   C37   S    
C17   O40   S    
C48   C49   S    
C60   H39   S    
C61   H44   S    
O5    V1    S    
C47   C50   S    
O8    C3    A    
C46   O37   S    
C31   C35   S    
C11   C13   S    
O32   C61   S    
C37   H16   S    
C12   C14   S    
O19   C56   A    
O34   H46   S    
C29   O30   S    
C9    H4    S    
C3    C20   S    
O9    V2    S    
O30   C60   S    
O7    V2    S    
C17   C22   S    
O4    V1    S    
O3    V1    S    
V1    O10   S    
C62   H48   S    
O39   C64   S    
C1    C40   S    
O38   H54   S    
O13   V3    S    
O11   C54   A    
C5    H1    S    
C58   H29   S    
C6    O21   S    
C9    C11   S    
C35   C36   S    
C49   H21   S    
C61   H42   S    
C47   C48   S    
O17   V4    S    
C21   C25   S    
C42   C43   S    
C65   H60   S    
C39   C40   T    
O21   C57   S    
O33   H45   S    
C42   O34   S    
O37   C63   S    
O25   H31   S    
C22   H11   S    
C57   H25   S    
C33   C39   S    
O24   H30   S    
C44   C53   S    
C59   H34   S    
C13   C14   S    
C31   H14   S    
C41   H22   S    
