data_mof_unit_48752.cif
_audit_creation_date              2012-12-10T17:13:33-0500
_audit_creation_method            fapswitch 2.2
_symmetry_space_group_name_H-M    P1
_symmetry_Int_Tables_number       1
_space_group_crystal_system       triclinic
_cell_length_a                    10.774073
_cell_length_b                    13.100775
_cell_length_c                    11.682942
_cell_angle_alpha                 99.906426
_cell_angle_beta                  93.780136
_cell_angle_gamma                 91.321145
_cell_volume                      1619.91812822

loop_
_atom_site_label
_atom_site_type_symbol
_atom_type_description
_atom_site_fract_x
_atom_site_fract_y
_atom_site_fract_z
_atom_type_partial_charge
C1    C     C_R   0.501565 0.299848 0.478847 0.802134
C2    C     C_3   0.878363 0.494774 0.495719 0.095140
C3    C     C_3   0.935837 0.609361 0.502196 0.348873
C4    C     C_3   0.920982 0.413163 0.384891 0.373118
C5    C     C_R   0.519772 0.816015 0.532210 -0.105709
C6    C     C_R   0.501502 0.187598 0.467728 -0.092298
C7    C     C_R   0.413959 0.021817 0.366978 0.187277
C8    C     C_R   0.426402 0.128850 0.377079 -0.266114
C9    C     C_R   0.564080 0.139780 0.553196 0.125856
C10   C     C_R   0.542061 0.032988 0.549551 0.036201
C11   C     C_R   0.481041 0.972138 0.449176 0.101120
C12   C     C_R   0.260139 0.493017 0.499697 0.790214
C13   C     C_R   0.493579 0.864022 0.432874 0.076482
C14   C     C_R   0.560466 0.879790 0.640263 0.131554
C15   C     C_R   0.578576 0.986085 0.644681 -0.198666
C16   C     C_R   0.380851 0.406205 0.018591 -0.338209
C17   C     C_R   0.391538 0.411790 0.139862 0.422374
C18   C     C_R   0.553821 0.540803 0.157516 -0.043865
C19   C     C_R   0.545803 0.535278 0.034412 0.070135
C20   C     C_R   0.456900 0.467573 0.965250 0.026529
C21   C     C_R   0.446758 0.460956 0.843125 0.035305
C22   C     C_R   0.612271 0.584529 0.855545 0.080500
C23   C     C_R   0.507675 0.701401 0.521168 0.821943
C24   C     C_R   0.624521 0.594335 0.977979 -0.324280
C25   C     C_R   0.740155 0.497360 0.498828 0.783438
C26   C     C_3   0.076547 0.458841 0.615012 0.029024
C27   C     C_3   0.932507 0.455735 0.608397 -0.445890
C28   C     C_3   0.076570 0.597799 0.482315 -0.422309
C29   C     C_3   0.065819 0.406748 0.396944 -0.396771
C30   C     C_3   0.122334 0.488546 0.499717 0.033425
Cu1   Cu    Cu3+1 0.509350 0.507730 0.615930 0.920618
Cu2   Cu    Cu3+1 0.490650 0.492270 0.384070 0.921274
H1    H     H_    0.111737 0.520321 0.688699 0.168833
H2    H     H_    0.094423 0.609338 0.392526 0.175328
H3    H     H_    0.674846 0.628803 0.812857 0.117389
H4    H     H_    0.695372 0.646897 0.027622 0.135286
H5    H     H_    0.893296 0.377726 0.612607 0.181203
H6    H     H_    0.133684 0.659765 0.541399 0.159216
N1    N     N_R   0.523430 0.519360 0.790130 -0.179080
N2    N     N_R   0.476570 0.480640 0.209880 -0.176013
O1    O     O_R   0.506640 0.354460 0.582000 -0.578519
O2    O     O_R   0.490840 0.341410 0.386200 -0.594723
O3    O     O_R   0.325590 0.506510 0.597900 -0.586737
O4    O     O_R   0.309790 0.493450 0.402100 -0.593739
O5    O     O_R   0.509160 0.658590 0.613800 -0.579471
O6    O     O_R   0.493360 0.645540 0.418000 -0.579224
O7    O     O_R   0.690210 0.506550 0.597900 -0.602278
O8    O     O_R   0.674410 0.493490 0.402100 -0.589004
C31   C     C_3   0.888257 0.440449 0.261535 -0.833169
H7    H     H_    0.949299 0.503918 0.243025 0.202859
H8    H     H_    0.907569 0.374059 0.192695 0.218864
H9    H     H_    0.789941 0.457576 0.243920 0.257391
C32   C     C_3   0.870693 0.671964 0.414625 -0.851026
H10   H     H_    0.775284 0.691883 0.439539 0.227709
H11   H     H_    0.923455 0.746127 0.415847 0.227265
H12   H     H_    0.860870 0.633469 0.323619 0.218346
C33   C     C_3   0.508182 0.806811 0.310043 -0.813569
H13   H     H_    0.521566 0.860325 0.247616 0.228937
H14   H     H_    0.594869 0.762717 0.308799 0.224778
H15   H     H_    0.426252 0.754478 0.277454 0.249279
C34   C     C_3   0.594104 0.838105 0.750621 -0.832159
H16   H     H_    0.628671 0.900066 0.823812 0.211052
H17   H     H_    0.511030 0.800756 0.779593 0.249950
H18   H     H_    0.669710 0.782625 0.735560 0.224081
C35   C     C_3   0.315060 0.967033 0.278442 -0.887445
H19   H     H_    0.230240 0.013763 0.279161 0.226736
H20   H     H_    0.349410 0.957029 0.189825 0.234167
H21   H     H_    0.285155 0.890976 0.298631 0.242903
H22   H     H_    0.615933 0.033080 0.725551 0.159291
H23   H     H_    0.372954 0.167041 0.316033 0.163852
C36   C     C_3   0.660529 0.199672 0.641909 -0.849355
H24   H     H_    0.701859 0.266982 0.610179 0.232389
H25   H     H_    0.617873 0.226437 0.725325 0.240352
H26   H     H_    0.740608 0.150679 0.657222 0.215769
H27   H     H_    0.378591 0.408299 0.790176 0.119538
C37   C     C_3   0.124895 0.355180 0.644212 -0.899424
H28   H     H_    0.078379 0.287189 0.586353 0.236235
H29   H     H_    0.226268 0.348456 0.636834 0.242801
H30   H     H_    0.105487 0.349504 0.735162 0.229696
H31   H     H_    0.313381 0.352290 0.965420 0.144351
C38   C     C_3   0.307233 0.335547 0.182927 -0.845450
H32   H     H_    0.332665 0.255595 0.145712 0.202682
H33   H     H_    0.308358 0.340347 0.276872 0.265761
H34   H     H_    0.209576 0.345954 0.151489 0.190612
H35   H     H_    0.622678 0.592339 0.211113 0.126133
H36   H     H_    0.901788 0.502220 0.689628 0.177092
C39   C     C_3   0.923987 0.679669 0.623397 -0.867827
H37   H     H_    0.986913 0.658469 0.693695 0.210330
H38   H     H_    0.949956 0.761856 0.620781 0.237271
H39   H     H_    0.827098 0.677515 0.649573 0.225056
H40   H     H_    0.107359 0.419361 0.315895 0.173954
H41   H     H_    0.095639 0.328071 0.407474 0.164582
C40   C     C_3   0.861560 0.302718 0.380858 -0.858315
H42   H     H_    0.758473 0.304090 0.375908 0.240673
H43   H     H_    0.888322 0.248321 0.303208 0.230020
H44   H     H_    0.893149 0.266859 0.456205 0.208090

loop_
_geom_bond_atom_site_label_1
_geom_bond_atom_site_label_2
_ccdc_geom_bond_type
C39   H37   S    
C40   H42   S    
C23   O5    A    
C27   H36   S    
C11   C13   A    
C19   C20   A    
C37   H30   S    
C6    C9    A    
C38   H32   S    
C7    C8    A    
C32   H10   S    
C7    C11   A    
C22   H3    S    
C26   C27   S    
C24   H4    S    
Cu1   O3    S    
C3    C28   S    
C37   H29   S    
C12   O3    A    
C10   C15   A    
C33   H14   S    
C13   C33   S    
C18   C19   A    
C34   H17   S    
C18   N2    A    
C16   C17   A    
C31   H8    S    
C5    C23   S    
C26   C37   S    
C2    C27   S    
C9    C10   A    
C25   O7    A    
C5    C13   A    
C4    C29   S    
C31   H9    S    
C28   H2    S    
C40   H43   S    
C23   O6    A    
Cu1   O7    S    
Cu2   O8    S    
C38   H33   S    
C32   H11   S    
C15   H22   S    
C18   H35   S    
C3    C39   S    
C1    C6    S    
C37   H28   S    
C36   H25   S    
C33   H15   S    
C6    C8    A    
C35   H20   S    
C14   C34   S    
C16   H31   S    
C17   N2    A    
C34   H18   S    
C2    C4    S    
C29   C30   S    
C7    C35   S    
C26   H1    S    
Cu1   Cu2   S    
C21   N1    A    
C28   H6    S    
C16   C20   A    
C35   H21   S    
Cu2   O4    S    
C25   O8    A    
C5    C14   A    
C1    O1    A    
C26   C30   S    
C40   H44   S    
C39   H38   S    
C31   H7    S    
C22   C24   A    
C29   H40   S    
C38   H34   S    
C32   H12   S    
Cu1   O1    S    
C12   C30   S    
Cu2   O6    S    
C9    C36   S    
C36   H26   S    
C21   H27   S    
C8    H23   S    
C4    C31   S    
C28   C30   S    
C2    C3    S    
C36   H24   S    
C12   O4    A    
C3    C32   S    
C33   H13   S    
C27   H5    S    
C22   N1    A    
Cu1   N1    S    
C19   C24   A    
C2    C25   S    
C17   C38   S    
Cu2   N2    S    
C34   H16   S    
C10   C11   A    
C4    C40   S    
C1    O2    A    
C20   C21   A    
C35   H19   S    
Cu1   O5    S    
C39   H39   S    
Cu2   O2    S    
C14   C15   A    
C29   H41   S    
