data_mof_unit_63229.cif
_audit_creation_date              2012-12-10T16:52:45-0500
_audit_creation_method            fapswitch 2.2
_symmetry_space_group_name_H-M    P1
_symmetry_Int_Tables_number       1
_space_group_crystal_system       triclinic
_cell_length_a                    23.538203
_cell_length_b                    30.363621
_cell_length_c                    19.282195
_cell_angle_alpha                 90.0
_cell_angle_beta                  126.264565
_cell_angle_gamma                 89.999988
_cell_volume                      11111.6078566

loop_
_atom_site_label
_atom_site_type_symbol
_atom_type_description
_atom_site_fract_x
_atom_site_fract_y
_atom_site_fract_z
_atom_type_partial_charge
C1    C     C_R   0.805170 0.190044 0.118196 0.969631
C2    C     C_R   0.359278 0.749725 0.999582 0.907264
C3    C     C_3   0.177464 0.748321 0.628796 -0.818761
C4    C     C_3   0.161422 0.205521 0.643390 0.116272
C5    C     C_3   0.177460 0.251680 0.628795 -0.818761
C6    C     C_3   0.838580 0.794478 0.356611 0.116273
C7    C     C_3   0.822542 0.748320 0.371204 -0.818763
C8    C     C_3   0.338579 0.705521 0.356611 0.116274
C9    C     C_3   0.322541 0.751680 0.371205 -0.818764
C10   C     C_3   0.661424 0.294479 0.643391 0.116270
C11   C     C_3   0.677462 0.248321 0.628797 -0.818762
C12   C     C_3   0.661418 0.705522 0.643389 0.116277
C13   C     C_R   0.359278 0.250275 0.999582 0.907264
C14   C     C_3   0.677459 0.751681 0.628796 -0.818766
C15   C     C_3   0.338572 0.294480 0.356608 0.116267
C16   C     C_3   0.322533 0.248322 0.371202 -0.818757
C17   C     C_R   0.640722 0.749725 0.000418 0.907265
C18   C     C_R   0.140722 0.750275 0.000418 0.907265
C19   C     C_R   0.859278 0.249725 0.999582 0.907265
C20   C     C_R   0.859278 0.750275 0.999582 0.907266
C21   C     C_R   0.140722 0.249725 0.000418 0.907265
C22   C     C_1   0.580716 0.250999 0.000735 -0.179939
C23   C     C_1   0.419284 0.749001 0.999265 -0.179940
C24   C     C_1   0.419284 0.250999 0.999265 -0.179939
C25   C     C_R   0.194830 0.809956 0.881804 0.969632
C26   C     C_1   0.580716 0.749001 0.000735 -0.179939
C27   C     C_1   0.080716 0.750999 0.000735 -0.179939
C28   C     C_1   0.919284 0.249001 0.999265 -0.179939
C29   C     C_1   0.919284 0.750999 0.999265 -0.179938
C30   C     C_1   0.080716 0.249001 0.000735 -0.179940
C31   C     C_1   0.529788 0.251323 0.000362 0.003585
C32   C     C_1   0.470212 0.748676 0.999637 0.003585
C33   C     C_1   0.470212 0.251323 0.999637 0.003585
C34   C     C_1   0.529788 0.748677 0.000362 0.003585
C35   C     C_1   0.029788 0.751324 0.000362 0.003585
C36   C     C_R   0.194830 0.190044 0.881804 0.969632
C37   C     C_1   0.970212 0.248677 0.999637 0.003585
C38   C     C_1   0.970212 0.751323 0.999637 0.003586
C39   C     C_1   0.029788 0.248677 0.000362 0.003585
C40   C     C_2   0.862685 0.123574 0.313464 -0.379724
C41   C     C_2   0.137315 0.876426 0.686535 -0.379725
C42   C     C_2   0.137315 0.123574 0.686536 -0.379723
C43   C     C_2   0.862685 0.876426 0.313464 -0.379723
C44   C     C_2   0.362685 0.623574 0.313464 -0.379723
C45   C     C_2   0.637315 0.376426 0.686536 -0.379724
C46   C     C_2   0.637315 0.623574 0.686536 -0.379721
C47   C     C_R   0.805171 0.809956 0.118196 0.969633
C48   C     C_2   0.362685 0.376426 0.313464 -0.379724
C49   C     C_2   0.924219 0.104481 0.340400 -0.103358
C50   C     C_2   0.075781 0.895519 0.659600 -0.103357
C51   C     C_2   0.075781 0.104481 0.659600 -0.103359
C52   C     C_2   0.924219 0.895519 0.340400 -0.103360
C53   C     C_2   0.424219 0.604481 0.340400 -0.103359
C54   C     C_2   0.575781 0.395519 0.659600 -0.103359
C55   C     C_2   0.575781 0.604481 0.659600 -0.103362
C56   C     C_2   0.424219 0.395519 0.340400 -0.103357
C57   C     C_2   0.835280 0.161739 0.254848 0.532147
C58   C     C_R   0.305170 0.690044 0.118196 0.969632
C59   C     C_2   0.164721 0.838261 0.745152 0.532147
C60   C     C_2   0.164720 0.161739 0.745152 0.532146
C61   C     C_2   0.835279 0.838261 0.254848 0.532145
C62   C     C_2   0.335280 0.661739 0.254848 0.532145
C63   C     C_2   0.664721 0.338261 0.745152 0.532147
C64   C     C_2   0.664721 0.661739 0.745153 0.532145
C65   C     C_2   0.335279 0.338261 0.254848 0.532147
C66   C     C_2   0.826403 0.155382 0.180251 -0.444920
C67   C     C_2   0.173597 0.844618 0.819749 -0.444922
C68   C     C_2   0.173596 0.155382 0.819749 -0.444920
C69   C     C_R   0.694829 0.309956 0.881804 0.969633
C70   C     C_2   0.826404 0.844618 0.180251 -0.444920
C71   C     C_2   0.326403 0.655382 0.180251 -0.444920
C72   C     C_2   0.673596 0.344618 0.819749 -0.444920
C73   C     C_2   0.673596 0.655382 0.819749 -0.444919
C74   C     C_2   0.326404 0.344618 0.180251 -0.444921
C75   C     C_R   0.443927 0.437471 0.386406 0.926320
C76   C     C_R   0.556072 0.562529 0.613594 0.926322
C77   C     C_R   0.556072 0.437471 0.613594 0.926321
C78   C     C_R   0.443928 0.562529 0.386406 0.926320
C79   C     C_R   0.943928 0.937471 0.386406 0.926322
C80   C     C_R   0.694829 0.690044 0.881804 0.969633
C81   C     C_R   0.056072 0.062529 0.613594 0.926320
C82   C     C_R   0.056072 0.937471 0.613594 0.926319
C83   C     C_R   0.943928 0.062529 0.386406 0.926320
C84   C     C_3   0.978943 0.126982 0.333459 -0.380269
C85   C     C_3   0.039956 0.145739 0.420693 -0.347117
C86   C     C_3   0.094690 0.167772 0.413705 -0.893261
C87   C     C_3   0.021057 0.873018 0.666541 -0.380268
C88   C     C_3   0.960044 0.854261 0.579307 -0.347117
C89   C     C_3   0.905311 0.832227 0.586296 -0.893261
C90   C     C_3   0.021057 0.126982 0.666541 -0.380269
C91   C     C_R   0.305171 0.309956 0.118196 0.969632
C92   C     C_3   0.960044 0.145739 0.579307 -0.347118
C93   C     C_3   0.905309 0.167772 0.586294 -0.893263
C94   C     C_3   0.978943 0.873018 0.333459 -0.380269
C95   C     C_3   0.039957 0.854262 0.420695 -0.347118
C96   C     C_3   0.094691 0.832228 0.413707 -0.893263
C97   C     C_3   0.478943 0.626982 0.333458 -0.380271
C98   C     C_3   0.539956 0.645739 0.420693 -0.347118
C99   C     C_3   0.594689 0.667773 0.413703 -0.893262
C100  C     C_3   0.521057 0.373018 0.666540 -0.380269
C101  C     C_3   0.460043 0.354261 0.579305 -0.347118
C102  C     C_R   0.640722 0.250275 0.000418 0.907264
C103  C     C_3   0.405309 0.332228 0.586293 -0.893264
C104  C     C_3   0.521057 0.626982 0.666541 -0.380273
C105  C     C_3   0.460043 0.645738 0.579306 -0.347118
C106  C     C_3   0.405310 0.667772 0.586295 -0.893263
C107  C     C_3   0.478943 0.373018 0.333459 -0.380268
C108  C     C_3   0.539956 0.354260 0.420693 -0.347116
C109  C     C_3   0.594691 0.332228 0.413706 -0.893258
C110  C     C_3   0.838577 0.205521 0.356610 0.116270
C111  C     C_3   0.822541 0.251680 0.371205 -0.818761
C112  C     C_3   0.161426 0.794480 0.643391 0.116268
H1    H     H_    0.828770 0.109137 0.328254 0.165358
H2    H     H_    0.165441 0.877124 0.836333 0.129145
H3    H     H_    0.649832 0.223571 0.641399 0.257357
H4    H     H_    0.659282 0.244873 0.561198 0.204514
H5    H     H_    0.735086 0.242070 0.672539 0.258888
H6    H     H_    0.603454 0.700234 0.597816 0.141161
H7    H     H_    0.689759 0.681582 0.630254 0.138796
H8    H     H_    0.735084 0.757927 0.672531 0.258885
H9    H     H_    0.659269 0.755130 0.561195 0.204515
H10   H     H_    0.649838 0.776431 0.641412 0.257361
H11   H     H_    0.310222 0.318420 0.369729 0.138794
H12   H     H_    0.396536 0.299771 0.402190 0.141166
H13   H     H_    0.165441 0.122876 0.836333 0.129145
H14   H     H_    0.350167 0.223572 0.358606 0.257355
H15   H     H_    0.340708 0.244875 0.438798 0.204514
H16   H     H_    0.264910 0.242071 0.327454 0.258889
H17   H     H_    0.834560 0.877124 0.163667 0.129146
H18   H     H_    0.334559 0.622876 0.163667 0.129145
H19   H     H_    0.665440 0.377124 0.836333 0.129146
H20   H     H_    0.665439 0.622876 0.836333 0.129145
H21   H     H_    0.334560 0.377124 0.163667 0.129145
H22   H     H_    0.116338 0.143637 0.391653 0.265575
H23   H     H_    0.070666 0.195735 0.367707 0.266473
H24   H     H_    0.138685 0.180588 0.477447 0.240847
H25   H     H_    0.171230 0.890863 0.671746 0.165356
H26   H     H_    0.019125 0.170488 0.442863 0.205544
H27   H     H_    0.066226 0.119248 0.469806 0.235218
H28   H     H_    0.999342 0.102703 0.309981 0.207389
H29   H     H_    0.957279 0.154521 0.286989 0.210153
H30   H     H_    0.929335 0.804265 0.632295 0.266474
H31   H     H_    0.883662 0.856363 0.608348 0.265575
H32   H     H_    0.861316 0.819411 0.522554 0.240848
H33   H     H_    0.933773 0.880751 0.530194 0.235218
H34   H     H_    0.980876 0.829512 0.557137 0.205545
H35   H     H_    0.042722 0.845479 0.713011 0.210154
H36   H     H_    0.171230 0.109137 0.671746 0.165358
H37   H     H_    0.000658 0.897297 0.690019 0.207389
H38   H     H_    0.883660 0.143635 0.608344 0.265575
H39   H     H_    0.929333 0.195734 0.632295 0.266475
H40   H     H_    0.861315 0.180588 0.522553 0.240847
H41   H     H_    0.980876 0.170489 0.557139 0.205544
H42   H     H_    0.933775 0.119249 0.530193 0.235218
H43   H     H_    0.000657 0.102703 0.690018 0.207391
H44   H     H_    0.042721 0.154521 0.713012 0.210152
H45   H     H_    0.070667 0.804265 0.367709 0.266473
H46   H     H_    0.116339 0.856363 0.391653 0.265576
H47   H     H_    0.828770 0.890863 0.328254 0.165360
H48   H     H_    0.138687 0.819414 0.477449 0.240846
H49   H     H_    0.066227 0.880753 0.469807 0.235220
H50   H     H_    0.019126 0.829513 0.442865 0.205541
H51   H     H_    0.957279 0.845478 0.286990 0.210153
H52   H     H_    0.999342 0.897296 0.309980 0.207390
H53   H     H_    0.616338 0.643638 0.391651 0.265575
H54   H     H_    0.570664 0.695736 0.367705 0.266474
H55   H     H_    0.638684 0.680589 0.477445 0.240848
H56   H     H_    0.519125 0.670488 0.442863 0.205543
H57   H     H_    0.566227 0.619248 0.469805 0.235219
H58   H     H_    0.328770 0.609138 0.328254 0.165358
H59   H     H_    0.499342 0.602703 0.309980 0.207390
H60   H     H_    0.457278 0.654521 0.286988 0.210153
H61   H     H_    0.429332 0.304265 0.632290 0.266474
H62   H     H_    0.383661 0.356363 0.608347 0.265576
H63   H     H_    0.361313 0.319414 0.522550 0.240846
H64   H     H_    0.433773 0.380752 0.530193 0.235220
H65   H     H_    0.480874 0.329512 0.557135 0.205543
H66   H     H_    0.542721 0.345478 0.713009 0.210153
H67   H     H_    0.500658 0.397296 0.690019 0.207390
H68   H     H_    0.383662 0.643637 0.608349 0.265576
H69   H     H_    0.671230 0.390863 0.671746 0.165359
H70   H     H_    0.429334 0.695736 0.632292 0.266473
H71   H     H_    0.361314 0.680587 0.522552 0.240847
H72   H     H_    0.480873 0.670487 0.557134 0.205540
H73   H     H_    0.433772 0.619247 0.530194 0.235221
H74   H     H_    0.500658 0.602703 0.690020 0.207390
H75   H     H_    0.542721 0.654522 0.713010 0.210152
H76   H     H_    0.570667 0.304266 0.367705 0.266473
H77   H     H_    0.616340 0.356364 0.391656 0.265574
H78   H     H_    0.638685 0.319412 0.477448 0.240846
H79   H     H_    0.566225 0.380751 0.469807 0.235217
H80   H     H_    0.671230 0.609137 0.671746 0.165361
H81   H     H_    0.519124 0.329511 0.442861 0.205545
H82   H     H_    0.457279 0.345479 0.286989 0.210152
H83   H     H_    0.499343 0.397297 0.309982 0.207390
H84   H     H_    0.896540 0.200230 0.402190 0.141164
H85   H     H_    0.810228 0.181582 0.369735 0.138795
H86   H     H_    0.764917 0.257931 0.327462 0.258888
H87   H     H_    0.840720 0.255127 0.438804 0.204514
H88   H     H_    0.850172 0.276428 0.358604 0.257357
H89   H     H_    0.189777 0.818419 0.630270 0.138794
H90   H     H_    0.103464 0.799771 0.597809 0.141166
H91   H     H_    0.328769 0.390863 0.328254 0.165357
H92   H     H_    0.149830 0.723572 0.641392 0.257356
H93   H     H_    0.159288 0.744875 0.561200 0.204514
H94   H     H_    0.235087 0.742069 0.672544 0.258889
H95   H     H_    0.103459 0.200230 0.597811 0.141163
H96   H     H_    0.189770 0.181582 0.630264 0.138794
H97   H     H_    0.235084 0.257930 0.672538 0.258888
H98   H     H_    0.159279 0.255127 0.561197 0.204514
H99   H     H_    0.149830 0.276429 0.641398 0.257357
H100  H     H_    0.810236 0.818418 0.369741 0.138796
H101  H     H_    0.896544 0.799768 0.402186 0.141163
H102  H     H_    0.834559 0.122876 0.163667 0.129145
H103  H     H_    0.850166 0.723570 0.358595 0.257360
H104  H     H_    0.840727 0.744871 0.438805 0.204515
H105  H     H_    0.764917 0.742071 0.327467 0.258886
H106  H     H_    0.396542 0.700231 0.402188 0.141162
H107  H     H_    0.310232 0.681582 0.369738 0.138794
H108  H     H_    0.264917 0.757931 0.327462 0.258889
H109  H     H_    0.340721 0.755128 0.438803 0.204515
H110  H     H_    0.350171 0.776429 0.358603 0.257356
H111  H     H_    0.689771 0.318418 0.630265 0.138795
H112  H     H_    0.603460 0.299770 0.597812 0.141164
O1    O     O_R   0.820770 0.230320 0.141550 -0.570495
O2    O     O_R   0.230290 0.820740 0.960580 -0.636304
O3    O     O_R   0.230290 0.179260 0.960580 -0.636304
O4    O     O_R   0.769710 0.820740 0.039420 -0.636303
O5    O     O_R   0.269710 0.679260 0.039420 -0.636303
O6    O     O_R   0.730290 0.320740 0.960580 -0.636303
O7    O     O_R   0.730290 0.679260 0.960580 -0.636302
O8    O     O_R   0.269710 0.320740 0.039420 -0.636304
O9    O     O_R   0.692770 0.275550 0.051090 -0.608453
O10   O     O_R   0.307230 0.724450 0.948910 -0.608453
O11   O     O_R   0.307230 0.275550 0.948910 -0.608453
O12   O     O_R   0.179230 0.769680 0.858450 -0.570494
O13   O     O_R   0.692770 0.724450 0.051090 -0.608452
O14   O     O_R   0.192770 0.775550 0.051090 -0.608453
O15   O     O_R   0.807230 0.224450 0.948910 -0.608453
O16   O     O_R   0.807230 0.775550 0.948910 -0.608452
O17   O     O_R   0.192770 0.224450 0.051090 -0.608453
O18   O     O_R   0.641720 0.224490 0.948960 -0.623546
O19   O     O_R   0.358280 0.775510 0.051040 -0.623545
O20   O     O_R   0.358280 0.224490 0.051040 -0.623545
O21   O     O_R   0.641720 0.775510 0.948960 -0.623546
O22   O     O_R   0.141720 0.724490 0.948960 -0.623545
O23   O     O_R   0.179230 0.230320 0.858450 -0.570495
O24   O     O_R   0.858280 0.275510 0.051040 -0.623545
O25   O     O_R   0.858280 0.724490 0.051040 -0.623546
O26   O     O_R   0.141720 0.275510 0.948960 -0.623545
O27   O     O_R   0.501540 0.454790 0.409570 -0.625604
O28   O     O_R   0.498460 0.545210 0.590430 -0.625604
O29   O     O_R   0.498460 0.454790 0.590430 -0.625603
O30   O     O_R   0.501540 0.545210 0.409570 -0.625604
O31   O     O_R   0.001540 0.954790 0.409570 -0.625604
O32   O     O_R   0.998460 0.045210 0.590430 -0.625604
O33   O     O_R   0.998460 0.954790 0.590430 -0.625604
O34   O     O_R   0.820770 0.769680 0.141550 -0.570497
O35   O     O_R   0.001540 0.045210 0.409570 -0.625604
O36   O     O_R   0.408080 0.454790 0.409570 -0.631098
O37   O     O_R   0.591920 0.545210 0.590430 -0.631098
O38   O     O_R   0.591920 0.454790 0.590430 -0.631098
O39   O     O_R   0.408080 0.545210 0.409570 -0.631098
O40   O     O_R   0.908080 0.954790 0.409570 -0.631099
O41   O     O_R   0.091920 0.045210 0.590430 -0.631098
O42   O     O_R   0.091920 0.954790 0.590430 -0.631098
O43   O     O_R   0.908080 0.045210 0.409570 -0.631098
O44   O     O_3   0.815322 0.201684 0.270581 -0.587055
O45   O     O_R   0.320770 0.730320 0.141550 -0.570496
O46   O     O_3   0.184678 0.798316 0.729419 -0.587055
O47   O     O_3   0.184678 0.201684 0.729419 -0.587055
O48   O     O_3   0.815320 0.798316 0.270579 -0.587056
O49   O     O_3   0.315321 0.701684 0.270580 -0.587055
O50   O     O_3   0.684679 0.298316 0.729420 -0.587055
O51   O     O_3   0.684681 0.701683 0.729421 -0.587056
O52   O     O_3   0.315321 0.298316 0.270580 -0.587055
O53   O     O_R   0.679230 0.269680 0.858450 -0.570496
O54   O     O_R   0.679230 0.730320 0.858450 -0.570499
O55   O     O_R   0.320770 0.269680 0.141550 -0.570495
O56   O     O_R   0.769710 0.179260 0.039420 -0.636304
Zn1   Zn    Zn3+2 0.784110 0.284120 0.068220 0.983889
Zn2   Zn    Zn3+2 0.062380 0.000000 0.499980 0.928753
Zn3   Zn    Zn3+2 0.437620 0.500000 0.500020 0.928753
Zn4   Zn    Zn3+2 0.562380 0.500000 0.499980 0.928754
Zn5   Zn    Zn3+2 0.215890 0.715880 0.931780 0.983890
Zn6   Zn    Zn3+2 0.215890 0.284120 0.931780 0.983889
Zn7   Zn    Zn3+2 0.784110 0.715880 0.068220 0.983888
Zn8   Zn    Zn3+2 0.284110 0.784120 0.068220 0.983889
Zn9   Zn    Zn3+2 0.715890 0.215880 0.931780 0.983889
Zn10  Zn    Zn3+2 0.715890 0.784120 0.931780 0.983887
Zn11  Zn    Zn3+2 0.284110 0.215880 0.068220 0.983889
Zn12  Zn    Zn3+2 0.937620 0.000000 0.500020 0.928754

loop_
_geom_bond_atom_site_label_1
_geom_bond_atom_site_label_2
_ccdc_geom_bond_type
C61   C70   D    
C96   H46   S    
C87   C88   S    
C14   H10   S    
C46   C55   D    
C75   O36   A    
C78   O39   A    
C41   C50   D    
O45   Zn8   S    
O9    Zn1   S    
C95   C96   S    
C25   C67   S    
C112  H90   S    
C57   C66   D    
C76   O37   A    
C100  H66   S    
C110  O44   S    
C97   C98   S    
C45   H69   S    
C62   C71   D    
C47   C70   S    
C85   C86   S    
C5    H98   S    
C58   O45   A    
C43   C61   S    
C97   H60   S    
C87   H35   S    
C72   H19   S    
O3    Zn11  S    
C17   C26   S    
C84   H29   S    
C49   C84   S    
O43   Zn12  S    
C67   H2    S    
O2    Zn8   S    
C43   H47   S    
C95   H49   S    
C51   C90   S    
C58   C71   S    
C13   O20   A    
C6    H100  S    
C5    H99   S    
C47   O34   A    
C15   C16   S    
C12   H7    S    
C74   H21   S    
C25   O2    A    
C103  H61   S    
O11   Zn6   S    
O39   Zn3   S    
C108  C109  S    
O40   Zn12  S    
C105  H73   S    
C9    H109  S    
C110  C111  S    
C100  C101  S    
O4    Zn10  S    
C63   O50   S    
C111  H87   S    
C98   H57   S    
O24   Zn1   S    
C44   C53   D    
C2    O10   A    
C106  H70   S    
C47   O4    A    
C25   O12   A    
C109  H77   S    
C8    C9    S    
C44   C62   S    
O15   Zn9   S    
C29   C38   T    
O41   Zn2   S    
C64   C73   D    
C31   C33   S    
C108  H79   S    
C52   C94   S    
C92   H41   S    
C102  O18   A    
C89   H30   S    
O1    Zn1   S    
C48   C65   S    
C52   C79   S    
C11   H3    S    
C2    O19   A    
C85   H27   S    
C61   O48   S    
C41   H25   S    
C8    O49   S    
C10   H112  S    
O19   Zn8   S    
C13   O11   A    
C99   H54   S    
C59   C67   D    
O42   Zn2   S    
C4    O47   S    
C96   H45   S    
C73   H20   S    
C42   H36   S    
C101  C103  S    
C56   C75   S    
C65   O52   S    
C81   O41   A    
C3    H92   S    
O7    Zn7   S    
O32   Zn12  S    
C54   C100  S    
C93   H38   S    
C15   O52   S    
C79   O40   A    
C112  H89   S    
C10   O50   S    
O23   Zn6   S    
C75   O27   A    
C9    H110  S    
C12   O51   S    
C106  H68   S    
C104  C105  S    
C86   H22   S    
C19   O24   A    
C4    H96   S    
C99   H55   S    
C20   C29   S    
C64   O51   S    
O54   Zn10  S    
O38   Zn4   S    
C107  H83   S    
C22   C31   T    
C6    O48   S    
C3    H93   S    
C35   C38   S    
C77   O29   A    
C84   C85   S    
C57   O44   S    
C1    O56   A    
C77   O38   A    
C95   H50   S    
C42   C60   S    
C21   O26   A    
O18   Zn9   S    
C53   C97   S    
C20   O16   A    
C55   C104  S    
C45   C63   S    
C103  H62   S    
O30   Zn4   S    
C65   C74   D    
C59   O46   S    
C46   C64   S    
O34   Zn7   S    
C62   O49   S    
C78   O30   A    
C74   C91   S    
C66   H102  S    
C69   C72   S    
C91   O55   A    
C56   C107  S    
C105  H72   S    
C19   C28   S    
C24   C33   T    
C19   O15   A    
C111  H88   S    
O17   Zn11  S    
O37   Zn4   S    
C18   O22   A    
O20   Zn11  S    
C90   C92   S    
C40   H1    S    
C48   H91   S    
C17   O21   A    
C3    C112  S    
C107  C108  S    
C69   O53   A    
C2    C23   S    
C103  H63   S    
C1    C66   S    
O26   Zn6   S    
C88   H33   S    
C82   O42   A    
C17   O13   A    
C63   C72   D    
C83   O35   A    
C11   H4    S    
C16   H16   S    
C41   C59   S    
C109  H76   S    
C15   H11   S    
C10   H111  S    
C80   O54   A    
C110  H85   S    
C55   C76   S    
C50   C87   S    
C9    H108  S    
C86   H24   S    
C15   H12   S    
C96   H48   S    
C12   C14   S    
C45   C54   D    
C36   O3    A    
C14   H8    S    
C110  H84   S    
C12   H6    S    
C93   H39   S    
C80   O7    A    
C112  O46   S    
C11   H5    S    
C94   H52   S    
C84   H28   S    
O28   Zn3   S    
O36   Zn3   S    
O14   Zn8   S    
C50   C82   S    
C4    H95   S    
C21   O17   A    
C105  C106  S    
C1    O1    A    
C48   C56   D    
C104  H75   S    
C51   C81   S    
C88   H34   S    
C40   C57   S    
C26   C34   T    
C93   H40   S    
C3    H94   S    
O35   Zn2   S    
C18   C27   S    
C7    H104  S    
C46   H80   S    
C4    C5    S    
O22   Zn5   S    
C22   C102  S    
O29   Zn3   S    
C36   C68   S    
C6    C7    S    
O12   Zn5   S    
O21   Zn10  S    
C89   H32   S    
O16   Zn10  S    
C21   C30   S    
C42   C51   D    
O55   Zn11  S    
C104  H74   S    
C97   H59   S    
C91   O8    A    
C60   C68   D    
C27   C35   T    
C23   C32   T    
C54   C77   S    
C83   O43   A    
C53   C78   S    
C108  H81   S    
O13   Zn7   S    
C111  H86   S    
C8    H107  S    
C89   H31   S    
O6    Zn1   S    
C71   H18   S    
O10   Zn5   S    
C49   C83   S    
C20   O25   A    
C6    H101  S    
C16   H14   S    
C28   C37   T    
C58   O5    A    
C94   H51   S    
O31   Zn2   S    
C92   C93   S    
C73   C80   S    
C30   C39   T    
O27   Zn4   S    
C70   H17   S    
C60   O47   S    
C98   H56   S    
C94   C95   S    
C43   C52   D    
C16   H15   S    
C44   H58   S    
C106  H71   S    
O56   Zn9   S    
C101  H65   S    
C10   C11   S    
O5    Zn5   S    
C7    H105  S    
C18   O14   A    
C86   H23   S    
O53   Zn9   S    
C88   C89   S    
C13   C24   S    
C102  O9    A    
C37   C39   S    
C98   C99   S    
C87   H37   S    
C8    H106  S    
O25   Zn7   S    
C5    H97   S    
C14   H9    S    
C36   O23   A    
C79   O31   A    
C101  H64   S    
C92   H42   S    
O8    Zn6   S    
C85   H26   S    
C109  H78   S    
C99   H53   S    
C90   H43   S    
C69   O6    A    
C100  H67   S    
C90   H44   S    
C68   H13   S    
C107  H82   S    
C7    H103  S    
C81   O32   A    
C40   C49   D    
O33   Zn12  S    
C32   C34   S    
C82   O33   A    
C76   O28   A    
