data_mof_unit_9304.cif
_audit_creation_date              2012-10-26T21:13:36-0400
_audit_creation_method            fapswitch 2.2
_symmetry_space_group_name_H-M    P1
_symmetry_Int_Tables_number       1
_space_group_crystal_system       triclinic
_cell_length_a                    9.075597
_cell_length_b                    10.823501
_cell_length_c                    9.550038
_cell_angle_alpha                 90.084203
_cell_angle_beta                  89.99542
_cell_angle_gamma                 90.190564
_cell_volume                      938.091480512

loop_
_atom_site_label
_atom_site_type_symbol
_atom_type_description
_atom_site_fract_x
_atom_site_fract_y
_atom_site_fract_z
_atom_type_partial_charge
C1    C     C_R   0.503011 0.262375 0.499970 0.538935
C2    C     C_R   0.625315 0.527950 0.926409 0.152098
C3    C     C_3   0.712511 0.644670 0.919956 -0.276939
C4    C     C_R   0.220685 0.499891 0.499984 0.555963
C5    C     C_3   0.710721 0.646314 0.079136 -0.274404
C6    C     C_R   0.501896 0.737740 0.500018 0.550862
C7    C     C_R   0.779305 0.499994 0.500022 0.550768
C8    C     C_1   0.065538 0.499894 0.500003 -0.072090
C9    C     C_1   0.934428 0.499932 0.500021 -0.073337
C10   C     C_R   0.529867 0.064141 0.625136 -0.008611
C11   C     C_R   0.517961 0.129413 0.499567 -0.021121
C12   C     C_R   0.525238 0.935744 0.372307 -0.157074
C13   C     C_R   0.525580 0.064365 0.372358 -0.159819
C14   C     C_3   0.652438 0.146026 0.872590 0.023118
C15   C     C_3   0.708541 0.185809 0.016645 -0.259281
C16   C     C_3   0.864923 0.237645 0.008722 -0.485536
C17   C     C_R   0.515361 0.871009 0.499506 0.002294
C18   C     C_R   0.526007 0.936795 0.624995 -0.036081
C19   C     C_3   0.431839 0.930699 0.753350 -0.214641
C20   C     C_3   0.436580 0.071144 0.755895 0.151384
C21   C     C_R   0.625008 0.528702 0.073544 0.153848
C22   C     C_R   0.381667 0.458166 0.074249 -0.008986
C23   C     C_R   0.381652 0.458191 0.925554 0.006621
Cu1   Cu    Cu3+1 0.499990 0.499980 0.640670 0.933019
Cu2   Cu    Cu3+1 0.500010 0.500020 0.359330 0.931692
H1    H     H_    0.523552 0.112201 0.272979 0.147225
H2    H     H_    0.284993 0.425709 0.870435 0.122794
H3    H     H_    0.824253 0.629512 0.875590 0.128170
H4    H     H_    0.668970 0.223650 0.798179 0.176690
H5    H     H_    0.717239 0.064243 0.838151 0.127665
H6    H     H_    0.634537 0.257566 0.060736 0.191488
H7    H     H_    0.707489 0.104799 0.087969 0.156001
H8    H     H_    0.941433 0.166918 0.966418 0.146284
H9    H     H_    0.902354 0.264596 0.115207 0.155321
H10   H     H_    0.868035 0.320740 0.940594 0.146515
H11   H     H_    0.650485 0.721869 0.871954 0.144814
H12   H     H_    0.821619 0.633232 0.126116 0.131237
H13   H     H_    0.646171 0.724145 0.123528 0.143086
H14   H     H_    0.524555 0.887840 0.272711 0.134635
H15   H     H_    0.320146 0.892622 0.731762 0.103798
H16   H     H_    0.489786 0.887453 0.843038 0.150240
H17   H     H_    0.326969 0.113438 0.736393 0.127605
H18   H     H_    0.285021 0.425642 0.129259 0.122834
N1    N     N_R   0.500920 0.500930 0.147930 -0.236676
N2    N     N_R   0.500930 0.500890 0.852020 -0.231772
O1    O     O_R   0.500000 0.319640 0.618810 -0.501220
O2    O     O_R   0.500020 0.319680 0.381230 -0.505229
O3    O     O_R   0.288380 0.499980 0.618770 -0.506180
O4    O     O_R   0.288400 0.500020 0.381190 -0.501954
O5    O     O_R   0.499980 0.680320 0.618770 -0.500523
O6    O     O_R   0.500000 0.680360 0.381190 -0.505383
O7    O     O_R   0.711600 0.499980 0.618810 -0.503064
O8    O     O_R   0.711620 0.500020 0.381230 -0.496188
O9    O     O_3   0.500908 0.116227 0.882715 -0.570892

loop_
_geom_bond_atom_site_label_1
_geom_bond_atom_site_label_2
_ccdc_geom_bond_type
C12   C17   A    
Cu1   O7    S    
C20   H17   S    
Cu2   O6    S    
C15   H6    S    
C13   H1    S    
C23   N2    A    
C5    H12   S    
C16   H8    S    
C21   N1    A    
Cu2   O2    S    
C19   C20   S    
C1    C11   S    
C4    O4    A    
C4    C8    S    
Cu1   O1    S    
C2    C21   A    
C17   C18   A    
C15   H7    S    
C2    N2    A    
C5    H13   S    
C6    O5    A    
C12   C13   A    
C11   C13   A    
C3    H11   S    
C14   H5    S    
Cu1   N2    S    
Cu2   N1    S    
C3    H3    S    
C14   O9    S    
Cu2   O8    S    
C7    O7    A    
C2    C3    S    
C23   H2    S    
C19   H15   S    
C16   H10   S    
Cu1   O5    S    
C10   C18   A    
Cu2   O4    S    
C1    O1    A    
C10   C11   A    
C7    O8    A    
C14   H4    S    
C15   C16   S    
Cu1   O3    S    
C19   H16   S    
C5    C21   S    
Cu1   Cu2   S    
C20   O9    S    
C18   C19   S    
C4    O3    A    
C6    O6    A    
C7    C9    S    
C6    C17   S    
C14   C15   S    
C1    O2    A    
C16   H9    S    
C22   C23   A    
C12   H14   S    
C22   N1    A    
C22   H18   S    
C10   C20   S    
C8    C9    T    
C3    C5    S    
