data_mof_unit_51685.cif
_audit_creation_date              2013-03-05T15:45:00-0500
_audit_creation_method            fapswitch 2.2
_symmetry_space_group_name_H-M    P1
_symmetry_Int_Tables_number       1
_space_group_crystal_system       triclinic
_cell_length_a                    17.472444
_cell_length_b                    24.596059
_cell_length_c                    15.146288
_cell_angle_alpha                 90.016599
_cell_angle_beta                  126.096336
_cell_angle_gamma                 89.882463
_cell_volume                      5259.57162133

loop_
_atom_site_label
_atom_site_type_symbol
_atom_site_description
_atom_site_fract_x
_atom_site_fract_y
_atom_site_fract_z
_atom_type_partial_charge
C1    C     C_R   0.316974 0.368616 0.909918 -0.128747
C2    C     C_R   0.657247 0.351787 0.092300 -0.147698
C3    C     C_R   0.813729 0.872281 0.908408 -0.123716
C4    C     C_R   0.150064 0.849292 0.091053 -0.169718
H1    H     H_    0.265218 0.354520 0.827808 0.097688
H2    H     H_    0.702070 0.338771 0.176739 0.113385
H3    H     H_    0.759310 0.861515 0.824492 0.101847
H4    H     H_    0.191472 0.835221 0.174809 0.114407
N1    N     N_R   0.395440 0.396300 0.944370 -0.040596
N2    N     N_R   0.604560 0.396300 0.055630 -0.041875
N3    N     N_R   0.895440 0.896300 0.944370 -0.041593
N4    N     N_R   0.104560 0.896300 0.055630 -0.041508
C5    C     C_R   0.401189 0.624092 0.088893 -0.138417
C6    C     C_R   0.566721 0.648103 0.910900 -0.114039
C7    C     C_R   0.900359 0.122700 0.088994 -0.142905
C8    C     C_R   0.062896 0.149510 0.910921 -0.114599
H5    H     H_    0.426011 0.630025 0.172325 0.168302
H6    H     H_    0.524081 0.664655 0.829553 0.206712
H7    H     H_    0.926571 0.130048 0.172526 0.168479
H8    H     H_    0.020922 0.165241 0.828916 0.203569
N5    N     N_R   0.449890 0.602500 0.055780 -0.050607
N6    N     N_R   0.550110 0.602500 0.944220 -0.077707
N7    N     N_R   0.949890 0.102500 0.055780 -0.050136
N8    N     N_R   0.050110 0.102500 0.944220 -0.077740
C9    C     C_R   0.542115 0.453360 0.298571 -0.208698
C10   C     C_R   0.510626 0.453126 0.742797 -0.186110
C11   C     C_R   0.038780 0.953115 0.296634 -0.203661
C12   C     C_R   0.012045 0.953148 0.744389 -0.191080
H9    H     H_    0.554379 0.411550 0.325809 0.131489
H10   H     H_    0.513034 0.411197 0.723302 0.139178
H11   H     H_    0.051327 0.911348 0.324157 0.133576
H12   H     H_    0.014700 0.911201 0.725136 0.139581
N9    N     N_R   0.525090 0.470990 0.205640 -0.057461
N10   N     N_R   0.474910 0.470990 0.794360 -0.060521
N11   N     N_R   0.025090 0.970990 0.205640 -0.058583
N12   N     N_R   0.974910 0.970990 0.794360 -0.060519
C13   C     C_R   0.231117 0.544028 0.718603 -0.103822
C14   C     C_R   0.752508 0.543663 0.305175 -0.070910
C15   C     C_R   0.740432 0.044037 0.700316 -0.085017
C16   C     C_R   0.267691 0.044013 0.244800 -0.103225
H13   H     H_    0.207023 0.584896 0.691401 0.175129
H14   H     H_    0.761495 0.584121 0.337337 0.192240
H15   H     H_    0.726386 0.084544 0.667134 0.185768
H16   H     H_    0.290611 0.085285 0.251962 0.148936
N13   N     N_R   0.320240 0.527820 0.794510 -0.052830
N14   N     N_R   0.679760 0.527820 0.205490 -0.061167
N15   N     N_R   0.820240 0.027820 0.794510 -0.062522
N16   N     N_R   0.179760 0.027820 0.205490 -0.043017
C17   C     C_R   0.543670 0.544097 0.300105 0.279535
C18   C     C_R   0.507209 0.544505 0.738649 0.331956
C19   C     C_R   0.039851 0.043917 0.298356 0.287168
C20   C     C_R   0.008721 0.044547 0.740292 0.329622
N17   N     N_R   0.524580 0.527810 0.205160 -0.087816
N18   N     N_R   0.475420 0.527810 0.794840 -0.083581
N19   N     N_R   0.024580 0.027810 0.205160 -0.087950
N20   N     N_R   0.975420 0.027810 0.794840 -0.085431
C21   C     C_R   0.233384 0.453101 0.720996 -0.119010
C22   C     C_R   0.752156 0.453128 0.301984 -0.105156
C23   C     C_R   0.741852 0.953416 0.702103 -0.126448
C24   C     C_R   0.266483 0.953048 0.246031 -0.105566
H17   H     H_    0.213356 0.411448 0.695703 0.101333
H18   H     H_    0.760198 0.411349 0.328254 0.094048
H19   H     H_    0.729189 0.911691 0.674611 0.098981
H20   H     H_    0.286841 0.910913 0.255052 0.096636
N21   N     N_R   0.320750 0.470990 0.794990 -0.050925
N22   N     N_R   0.679250 0.470990 0.205010 -0.053428
N23   N     N_R   0.820750 0.970990 0.794990 -0.052131
N24   N     N_R   0.179250 0.970990 0.205010 -0.051521
C25   C     C_R   0.315935 0.631540 0.906752 0.316724
C26   C     C_R   0.662054 0.645864 0.093017 0.341353
C27   C     C_R   0.812573 0.127817 0.906535 0.337567
C28   C     C_R   0.153072 0.149313 0.092868 0.281427
N25   N     N_R   0.393580 0.602500 0.942610 -0.087078
N26   N     N_R   0.606420 0.602500 0.057390 -0.102071
N27   N     N_R   0.893580 0.102500 0.942610 -0.089521
N28   N     N_R   0.106420 0.102500 0.057390 -0.103090
C29   C     C_R   0.406619 0.372869 0.092920 -0.142059
C30   C     C_R   0.564409 0.350635 0.909009 -0.120861
C31   C     C_R   0.904200 0.874864 0.091716 -0.140936
C32   C     C_R   0.060468 0.849326 0.908694 -0.114113
H21   H     H_    0.435060 0.365256 0.177227 0.116402
H22   H     H_    0.524500 0.336547 0.825473 0.103106
H23   H     H_    0.932277 0.866325 0.175592 0.118176
H24   H     H_    0.021102 0.836032 0.824707 0.099624
N29   N     N_R   0.451750 0.396300 0.057540 -0.041992
N30   N     N_R   0.548250 0.396300 0.942460 -0.040623
N31   N     N_R   0.951750 0.896300 0.057540 -0.041847
N32   N     N_R   0.048250 0.896300 0.942460 -0.040166
C33   C     C_R   0.321454 0.355716 0.001634 0.061259
C34   C     C_R   0.632020 0.322704 0.001783 0.063812
C35   C     C_R   0.817766 0.859133 0.999785 0.057074
C36   C     C_R   0.123412 0.819681 0.000901 0.067324
C37   C     C_R   0.316824 0.642436 0.997158 -0.146704
C38   C     C_R   0.637113 0.674873 0.002523 -0.134907
C39   C     C_R   0.814172 0.139264 0.997296 -0.147045
C40   C     C_R   0.127348 0.178375 0.002514 -0.103890
C41   C     C_R   0.553180 0.498309 0.357745 -0.089621
C42   C     C_R   0.532186 0.498512 0.708189 -0.116146
C43   C     C_R   0.046536 0.997974 0.354088 -0.094353
C44   C     C_R   0.034293 0.998543 0.710492 -0.113041
C45   C     C_R   0.175626 0.498065 0.676960 0.098675
C46   C     C_R   0.797294 0.497917 0.367103 0.087929
C47   C     C_R   0.690203 0.998500 0.641895 0.095744
C48   C     C_R   0.322796 0.998100 0.269188 0.098664
Ni1   Ni    Ni4+2 0.435420 0.434250 0.870220 0.211424
Ni2   Ni    Ni4+2 0.564580 0.434250 0.129780 0.196465
Ni3   Ni    Ni4+2 0.935420 0.934250 0.870220 0.203999
Ni4   Ni    Ni4+2 0.064580 0.934250 0.129780 0.204012
Ni5   Ni    Ni4+2 0.563400 0.564580 0.128670 0.301069
Ni6   Ni    Ni4+2 0.436600 0.564580 0.871330 0.304963
Ni7   Ni    Ni4+2 0.063400 0.064580 0.128670 0.318071
Ni8   Ni    Ni4+2 0.936600 0.064580 0.871330 0.292964
C49   C     C_2   0.923271 0.453150 0.531253 -0.119972
C50   C     C_2   0.025493 0.456834 0.610257 -0.113168
C51   C     C_2   0.477082 0.954074 0.364586 -0.101829
C52   C     C_2   0.575062 0.957298 0.463006 -0.114261
C53   C     C_2   0.872491 0.498148 0.483050 -0.171741
C54   C     C_2   0.073819 0.497394 0.604763 -0.167014
C55   C     C_2   0.423872 0.998833 0.318690 -0.181696
C56   C     C_2   0.603865 0.999721 0.531378 -0.166025
H25   H     H_    0.895306 0.413088 0.497959 0.131189
H26   H     H_    0.061936 0.422514 0.664193 0.120737
H27   H     H_    0.445258 0.914001 0.343546 0.126375
H28   H     H_    0.618313 0.920911 0.487347 0.132926
H29   H     H_    0.899448 0.537608 0.521546 0.154571
H30   H     H_    0.038994 0.531298 0.548587 0.152618
H31   H     H_    0.456556 0.038520 0.334143 0.143460
H32   H     H_    0.560654 0.035879 0.509951 0.152169
C57   C     C_R   0.314215 0.731176 0.059728 -0.130417
C58   C     C_R   0.776578 0.724442 0.062789 -0.087841
C59   C     C_R   0.816023 0.231114 0.050764 -0.125357
C60   C     C_R   0.270296 0.225942 0.070603 -0.097032
H33   H     H_    0.389630 0.735012 0.098922 0.159999
H34   H     H_    0.818803 0.688673 0.106089 0.148816
H35   H     H_    0.890296 0.234117 0.083644 0.170311
H36   H     H_    0.310375 0.190307 0.117698 0.131971
C61   C     C_R   0.770639 0.275817 0.052332 -0.211723
C62   C     C_R   0.317490 0.269576 0.069931 -0.222964
C63   C     C_R   0.265791 0.774277 0.060813 -0.213471
C64   C     C_R   0.820144 0.769871 0.061717 -0.225705
H37   H     H_    0.809862 0.313425 0.086454 0.148918
H38   H     H_    0.393966 0.267089 0.116274 0.142692
H39   H     H_    0.304065 0.811509 0.100803 0.142003
H40   H     H_    0.896298 0.768608 0.104237 0.145057
C65   C     C_R   0.674341 0.272879 0.005652 0.085681
C66   C     C_R   0.266585 0.314781 0.005973 0.088584
C67   C     C_R   0.168056 0.770597 0.005757 0.091852
C68   C     C_R   0.766144 0.815648 0.003026 0.090867
C69   C     C_R   0.622182 0.224248 0.961236 0.191530
C70   C     C_R   0.166931 0.317521 0.943920 0.206265
C71   C     C_R   0.117412 0.722420 0.953669 0.194346
C72   C     C_R   0.666800 0.816525 0.944416 0.200496
C73   C     C_R   0.167867 0.678803 0.952926 -0.154539
C74   C     C_R   0.623148 0.769374 0.944784 -0.199414
C75   C     C_R   0.669567 0.178957 0.960297 -0.150218
C76   C     C_R   0.119498 0.271983 0.943169 -0.199180
H41   H     H_    0.132364 0.641158 0.911961 0.123493
H42   H     H_    0.546823 0.767628 0.900215 0.146002
H43   H     H_    0.632759 0.140791 0.925491 0.129565
H44   H     H_    0.042824 0.271410 0.894871 0.144901
C77   C     C_R   0.264860 0.684319 0.003917 0.170176
C78   C     C_R   0.678852 0.724285 0.004165 0.158377
C79   C     C_R   0.765135 0.183335 0.003465 0.160017
C80   C     C_R   0.172001 0.226961 0.006149 0.154526
C81   C     C_R   0.462525 0.515639 0.519015 -0.082785
C82   C     C_R   0.468792 0.516529 0.433303 -0.123856
C83   C     C_R   0.960301 0.014101 0.519943 -0.086218
C84   C     C_R   0.964085 0.014665 0.432417 -0.122462
H45   H     H_    0.398449 0.530210 0.507137 0.140993
H46   H     H_    0.409790 0.531905 0.354657 0.115773
H47   H     H_    0.896421 0.027797 0.509552 0.138739
H48   H     H_    0.903479 0.029015 0.353819 0.116429
C85   C     C_R   0.550946 0.497241 0.449080 0.198123
C86   C     C_R   0.539443 0.496659 0.620146 0.177426
C87   C     C_R   0.046110 0.996600 0.446562 0.194570
C88   C     C_R   0.039471 0.996618 0.621007 0.179067
C89   C     C_R   0.626429 0.475638 0.548383 -0.144337
C90   C     C_R   0.620716 0.475553 0.635567 -0.153980
C91   C     C_R   0.123922 0.976471 0.545913 -0.137924
C92   C     C_R   0.120662 0.976674 0.634823 -0.152302
H49   H     H_    0.689004 0.459947 0.558126 0.128787
H50   H     H_    0.679011 0.459984 0.714322 0.132188
H51   H     H_    0.186450 0.961779 0.554377 0.130079
H52   H     H_    0.180703 0.962228 0.713587 0.132009
C93   C     C_3   0.518463 0.219593 0.915639 -0.349043
C94   C     C_3   0.503897 0.223264 0.005537 -0.885837
H53   H     H_    0.546874 0.191755 0.068866 0.262231
H54   H     H_    0.523833 0.263981 0.044381 0.259927
H55   H     H_    0.428036 0.216420 0.969756 0.260226
H56   H     H_    0.476204 0.251521 0.853388 0.196055
H57   H     H_    0.489382 0.179981 0.873289 0.204385
C95   C     C_3   0.111088 0.367580 0.880122 -0.394737
C96   C     C_3   0.125633 0.413731 0.955989 -0.836137
H58   H     H_    0.081738 0.449233 0.906463 0.248753
H59   H     H_    0.103839 0.400578 0.008317 0.264516
H60   H     H_    0.200922 0.426593 0.008745 0.255432
H61   H     H_    0.132354 0.381137 0.827944 0.180890
H62   H     H_    0.034082 0.358389 0.824627 0.199505
C97   C     C_3   0.012248 0.716554 0.899960 -0.356250
C98   C     C_3   0.990531 0.717038 0.984043 -0.878929
H63   H     H_    0.031127 0.684464 0.045648 0.262637
H64   H     H_    0.008503 0.756895 0.026123 0.257685
H65   H     H_    0.913747 0.709733 0.942294 0.262066
H66   H     H_    0.971988 0.749371 0.839221 0.195084
H67   H     H_    0.985583 0.677594 0.854214 0.203952
C99   C     C_3   0.607367 0.866196 0.883057 -0.383802
C100  C     C_3   0.622127 0.911021 0.961448 -0.843610
H68   H     H_    0.604506 0.895775 0.016514 0.264658
H69   H     H_    0.696496 0.925534 0.011395 0.255593
H70   H     H_    0.575038 0.945968 0.914014 0.249995
H71   H     H_    0.624431 0.881745 0.827796 0.190859
H72   H     H_    0.530840 0.855609 0.830397 0.201626
N33   N     N_R   0.580095 0.596765 0.347130 0.217631
O1    O     O_R   0.597215 0.609649 0.440518 -0.360643
O2    O     O_R   0.603956 0.630535 0.301327 -0.386683
N34   N     N_R   0.487324 0.596806 0.688308 0.206942
O3    O     O_R   0.543025 0.617473 0.666610 -0.379504
O4    O     O_R   0.407589 0.620932 0.652417 -0.387278
N35   N     N_R   0.076381 0.096175 0.347187 0.222798
O5    O     O_R   0.082416 0.110605 0.433724 -0.356694
O6    O     O_R   0.111983 0.127642 0.311216 -0.347775
N36   N     N_R   0.988883 0.096760 0.689616 0.208136
O7    O     O_R   0.044806 0.117300 0.668137 -0.374750
O8    O     O_R   0.908583 0.120593 0.652203 -0.402880
N37   N     N_R   0.268447 0.663554 0.808844 0.219276
O9    O     O_R   0.307745 0.670883 0.758773 -0.379933
O10   O     O_R   0.187540 0.686727 0.770661 -0.408370
N38   N     N_R   0.708266 0.668457 0.199658 0.236204
O11   O     O_R   0.665029 0.705998 0.215482 -0.338921
O12   O     O_R   0.799858 0.664326 0.268088 -0.425183
N39   N     N_R   0.757300 0.156267 0.804571 0.218885
O13   O     O_R   0.797047 0.173150 0.759126 -0.392335
O14   O     O_R   0.669736 0.169392 0.761318 -0.407805
N40   N     N_R   0.178632 0.175166 0.191289 0.257954
O15   O     O_R   0.116985 0.206930 0.187216 -0.345358
O16   O     O_R   0.267658 0.180949 0.271536 -0.396307

loop_
_geom_bond_atom_site_label_1
_geom_bond_atom_site_label_2
_geom_bond_distance
_ccdc_geom_bond_type
C22   H18   1.080640 S    
C84   C87   1.390314 A    
C13   C45   1.378213 A    
C16   C48   1.383985 A    
C7    H7    1.077305 S    
C20   N36   1.429614 S    
C81   C82   1.365785 A    
N5    N25   1.385287 A    
C6    H6    1.075339 S    
C47   C56   1.450201 S    
N8    Ni8   1.857214 S    
C32   H24   1.080723 S    
C58   C64   1.358774 A    
C64   C68   1.398612 A    
N26   Ni5   1.886838 S    
N38   O12   1.300247 A    
C40   C80   1.411743 S    
C93   H56   1.108437 S    
C27   N27   1.332270 A    
C2    H2    1.081902 S    
N33   O1    1.300853 A    
C30   C34   1.372352 A    
C69   C93   1.516695 S    
C11   C43   1.361658 A    
N27   Ni8   1.885004 S    
C18   N18   1.326502 A    
C13   H13   1.073080 S    
C1    H1    1.077285 S    
C45   C54   1.438189 S    
C72   C99   1.514250 S    
C8    H8    1.075208 S    
C26   C38   1.368638 A    
C26   N38   1.426288 S    
C58   C78   1.384778 A    
N14   N22   1.397830 A    
N34   O4    1.301156 A    
C25   C37   1.386309 A    
N28   Ni7   1.886837 S    
C7    C39   1.376999 A    
C42   C86   1.412662 S    
C17   N17   1.332211 A    
C27   C39   1.387231 A    
C60   C62   1.358449 A    
N15   Ni8   1.877330 S    
C17   N33   1.434991 S    
C97   H67   1.111972 S    
N18   Ni6   1.882287 S    
C3    C35   1.382112 A    
N21   Ni1   1.852672 S    
C4    H4    1.081824 S    
C2    C34   1.369047 A    
N38   O11   1.300421 A    
N11   Ni4   1.882513 S    
N1    N29   1.385287 A    
C66   C70   1.411024 A    
N13   N21   1.397798 A    
C63   H39   1.085165 S    
C99   H71   1.109246 S    
C10   N10   1.328681 A    
C88   C92   1.394371 A    
N31   Ni4   1.849400 S    
C21   H17   1.077999 S    
N3    N31   1.385287 A    
C98   H63   1.110838 S    
C96   H59   1.110907 S    
C26   N26   1.326483 A    
C100  H70   1.110368 S    
C25   N25   1.331815 A    
C22   C46   1.376519 A    
C18   N34   1.429519 S    
C4    N4    1.323166 A    
C86   C90   1.395283 A    
C31   C35   1.376087 A    
C28   N28   1.329042 A    
C48   C55   1.456487 S    
C23   N23   1.335441 A    
C12   C44   1.377912 A    
C7    N7    1.326639 A    
C94   H53   1.110808 S    
C29   N29   1.319486 A    
C97   C98   1.528199 S    
C8    N8    1.332443 A    
C70   C76   1.390736 A    
C31   N31   1.320934 A    
C32   N32   1.330146 A    
N12   Ni3   1.884191 S    
C9    H9    1.081123 S    
C58   H34   1.084417 S    
N40   O16   1.300097 A    
N22   Ni2   1.856356 S    
N15   N23   1.397798 A    
C35   C68   1.419877 S    
C70   C95   1.512155 S    
C22   N22   1.329113 A    
C93   H57   1.111973 S    
C91   H51   1.083522 S    
N33   O2    1.299076 A    
N9    N17   1.397552 A    
C33   C66   1.419649 S    
C18   C42   1.384887 A    
C51   H27   1.084201 S    
C41   C85   1.406989 S    
N4    N32   1.385288 A    
C75   H43   1.084174 S    
C100  H68   1.110977 S    
C71   C97   1.516140 S    
C12   H12   1.080386 S    
C12   N12   1.328050 A    
C1    N1    1.332750 A    
N34   O3    1.300981 A    
C62   H38   1.084645 S    
N7    N27   1.385287 A    
N35   O5    1.300814 A    
N4    Ni4   1.881946 S    
N32   Ni3   1.845632 S    
N13   Ni6   1.877330 S    
N8    N28   1.385287 A    
C4    C36   1.365044 A    
C83   H47   1.084210 S    
C11   N11   1.327209 A    
C81   C86   1.393776 A    
C15   H15   1.076774 S    
C95   H62   1.111993 S    
N11   N19   1.397552 A    
C20   C44   1.385270 A    
C52   C56   1.342342 D    
C5    C37   1.375264 A    
C28   C40   1.363925 A    
C32   C36   1.370828 A    
C67   C71   1.410928 A    
C60   C80   1.388387 A    
C44   C88   1.411334 S    
C59   C61   1.362661 A    
C39   C79   1.417138 S    
N35   O6    1.297821 A    
C19   C43   1.373671 A    
N6    Ni6   1.857214 S    
C30   H22   1.080897 S    
C59   H35   1.084639 S    
C57   C63   1.361137 A    
C59   C79   1.392164 A    
C60   H36   1.084742 S    
C96   H60   1.109987 S    
C29   C33   1.371842 A    
C81   H45   1.084101 S    
N37   O9    1.301257 A    
C8    C40   1.363332 A    
C57   C77   1.389629 A    
N39   O14   1.300473 A    
C90   H50   1.083540 S    
C95   H61   1.104748 S    
N16   N24   1.397830 A    
C15   C47   1.376987 A    
C76   C80   1.393950 A    
C50   C54   1.342167 D    
C46   C53   1.446269 S    
C10   C42   1.377532 A    
C49   C53   1.333548 D    
C63   C67   1.393701 A    
N23   Ni3   1.852672 S    
C9    C41   1.363482 A    
C72   C74   1.391159 A    
C37   C77   1.414798 S    
C82   H46   1.084652 S    
C51   C55   1.339517 D    
C11   H11   1.081139 S    
N3    Ni3   1.883689 S    
C97   H66   1.108290 S    
C57   H33   1.084615 S    
N2    Ni2   1.881946 S    
N30   Ni1   1.845632 S    
N40   O15   1.301019 A    
N6    N26   1.385287 A    
C13   N13   1.339336 A    
N29   Ni2   1.849400 S    
C2    N2    1.322271 A    
C83   C84   1.365767 A    
C21   C45   1.374454 A    
C20   N20   1.325981 A    
C15   N15   1.339002 A    
C49   C50   1.453424 S    
C84   H48   1.084648 S    
C61   C65   1.391006 A    
C16   N16   1.340921 A    
C61   H37   1.085070 S    
N2    N30   1.385288 A    
C82   C85   1.391300 A    
C1    C33   1.381515 A    
C52   H28   1.084955 S    
N19   Ni7   1.883947 S    
N36   O8    1.301250 A    
C99   C100  1.526903 S    
N10   Ni1   1.884191 S    
C23   H19   1.080617 S    
C74   C78   1.396719 A    
N9    Ni2   1.882513 S    
C68   C72   1.409158 A    
C21   N21   1.329093 A    
C25   N37   1.433797 S    
N5    Ni5   1.853445 S    
C56   H32   1.083964 S    
C74   H42   1.084191 S    
C76   H44   1.084169 S    
C54   H30   1.085316 S    
C34   C65   1.413260 S    
C49   H25   1.084148 S    
N7    Ni7   1.853444 S    
C87   C91   1.394627 A    
C3    H3    1.080063 S    
C5    H5    1.077338 S    
C24   H20   1.077277 S    
C19   N35   1.432860 S    
C95   C96   1.526387 S    
C6    N6    1.330894 A    
C94   H55   1.110584 S    
C64   H40   1.084604 S    
C69   C75   1.391644 A    
C23   C47   1.379265 A    
C14   C46   1.374890 A    
C5    N5    1.326088 A    
C31   H23   1.078932 S    
N25   Ni6   1.885004 S    
N10   N18   1.397584 A    
C30   N30   1.328480 A    
C93   C94   1.528099 S    
C53   H29   1.087090 S    
C62   C66   1.395379 A    
C98   H65   1.110564 S    
C89   H49   1.083653 S    
N20   Ni8   1.882287 S    
N12   N20   1.397584 A    
N37   O10   1.300499 A    
C28   N40   1.429054 S    
C19   N19   1.333040 A    
C71   C73   1.391407 A    
C73   H41   1.084243 S    
N36   O7    1.300947 A    
C94   H54   1.109088 S    
C14   N14   1.336991 A    
C3    N3    1.330776 A    
C89   C90   1.381665 A    
C17   C41   1.373674 A    
C91   C92   1.380981 A    
C50   H26   1.081969 S    
C14   H14   1.078149 S    
C99   H72   1.111985 S    
C16   H16   1.073808 S    
N16   Ni7   1.873634 S    
C43   C87   1.405465 S    
C24   N24   1.336209 A    
C75   C79   1.393422 A    
C96   H58   1.110471 S    
N14   Ni5   1.873634 S    
C73   C77   1.394849 A    
N39   O13   1.301219 A    
C100  H69   1.109811 S    
C36   C67   1.414214 S    
C27   N39   1.431037 S    
N17   Ni5   1.883947 S    
N24   Ni4   1.856356 S    
C51   C52   1.467215 S    
C85   C89   1.394364 A    
C24   C48   1.384423 A    
N1    Ni1   1.883689 S    
C6    C38   1.365191 A    
C98   H64   1.109469 S    
C65   C69   1.412617 A    
C38   C78   1.411302 S    
C92   H52   1.083545 S    
C9    N9    1.328230 A    
C83   C88   1.394474 A    
C29   H21   1.079192 S    
C10   H10   1.080171 S    
C55   H31   1.085554 S    
