data_mof_unit_63040.cif
_audit_creation_date              2013-03-05T15:44:14-0500
_audit_creation_method            fapswitch 2.2
_symmetry_space_group_name_H-M    P1
_symmetry_Int_Tables_number       1
_space_group_crystal_system       triclinic
_cell_length_a                    10.107546
_cell_length_b                    10.650259
_cell_length_c                    13.618635
_cell_angle_alpha                 89.936606
_cell_angle_beta                  83.132667
_cell_angle_gamma                 87.539572
_cell_volume                      1454.14709917

loop_
_atom_site_label
_atom_site_type_symbol
_atom_site_description
_atom_site_fract_x
_atom_site_fract_y
_atom_site_fract_z
_atom_type_partial_charge
O1    O     O_R   0.386960 0.680940 0.500020 -0.541191
O2    O     O_R   0.613100 0.680900 0.499980 -0.599613
C1    C     C_R   0.497776 0.737218 0.490010 0.863692
O3    O     O_R   0.370650 0.500000 0.640370 -0.573299
O4    O     O_R   0.596800 0.499960 0.640330 -0.596038
C2    C     C_R   0.476181 0.500089 0.685465 0.873716
Zn1   Zn    Zn3+2 0.349000 0.500030 0.500020 1.133167
Zn2   Zn    Zn3+2 0.651000 0.499970 0.499980 1.022330
O5    O     O_R   0.386900 0.319100 0.500020 -0.561423
O6    O     O_R   0.613040 0.319060 0.499980 -0.635208
O7    O     O_R   0.403200 0.500040 0.359670 -0.578223
O8    O     O_R   0.629350 0.500000 0.359630 -0.606721
C3    C     C_R   0.502932 0.262768 0.503146 0.880378
C4    C     C_R   0.523810 0.499936 0.314537 0.900440
C5    C     C_1   0.541693 0.500269 0.210729 -0.083447
C6    C     C_2   0.557338 0.500800 0.018973 -0.141136
C7    C     C_2   0.442555 0.499531 0.981066 -0.132747
C8    C     C_1   0.446519 0.499677 0.877126 0.053206
C9    C     C_1   0.553395 0.500562 0.122906 0.058524
C10   C     C_1   0.458260 0.499866 0.789294 -0.104028
H1    H     H_    0.347116 0.498349 0.027271 0.184145
H2    H     H_    0.652779 0.501966 0.972771 0.181811
C11   C     C_2   0.581782 0.069087 0.430211 -0.163959
C12   C     C_2   0.514999 0.130117 0.508433 -0.138939
H3    H     H_    0.624547 0.120858 0.365999 0.180846
C13   C     C_2   0.593567 0.932234 0.425735 0.211721
C14   C     C_2   0.486266 0.867663 0.460218 -0.017033
C15   C     C_2   0.080198 0.401635 0.479389 0.303904
N1    N     N_2   0.147970 0.498670 0.498970 -0.068334
C16   C     C_2   0.930476 0.400200 0.504931 -0.144443
N2    N     N_2   0.852310 0.498640 0.498940 -0.167592
H4    H     H_    0.886078 0.311626 0.525685 0.198827
C17   C     C_1   0.902591 0.594144 0.436902 0.427127
N3    N     N_1   0.945827 0.672442 0.385186 -0.072600
C18   C     C_1   0.479294 0.073333 0.604266 0.211654
N4    N     N_1   0.451060 0.028357 0.680905 -0.133080
N5    N     N_R   0.714228 0.872459 0.377838 0.216971
O9    O     O_R   0.825957 0.929313 0.375657 -0.307204
O10   O     O_R   0.707105 0.779559 0.316932 -0.391208
N6    N     N_R   0.353687 0.925484 0.461973 0.221089
O11   O     O_R   0.321621 0.989813 0.386343 -0.283975
O12   O     O_R   0.263258 0.908828 0.536659 -0.274091
N7    N     N_R   0.144997 0.296372 0.424976 0.222958
O13   O     O_R   0.098462 0.184952 0.439195 -0.293190
O14   O     O_R   0.231332 0.314905 0.348212 -0.341166
N8    N     N_R   0.088796 0.575557 0.576381 0.253897
O15   O     O_R   0.045573 0.526534 0.661297 -0.369514
O16   O     O_R   0.106822 0.695581 0.572345 -0.281002

loop_
_geom_bond_atom_site_label_1
_geom_bond_atom_site_label_2
_geom_bond_distance
_ccdc_geom_bond_type
O4    Zn2   1.924336 S    
C16   H4    1.084704 S    
C11   C12   1.343442 D    
N2    C17   1.395164 S    
C13   N5    1.436025 S    
N5    O9    1.301346 A    
Zn1   N1    2.034352 S    
C2    C10   1.403937 S    
C14   N6    1.448124 S    
C15   N7    1.434449 S    
C18   N4    1.157415 T    
C4    C5    1.403655 S    
Zn2   O8    1.949680 S    
N1    N8    1.395979 S    
N7    O13   1.300968 A    
C15   C16   1.512440 S    
O2    C1    1.309407 A    
N5    O10   1.301664 A    
O1    Zn1   1.980657 S    
Zn1   O7    1.924336 S    
N7    O14   1.299818 A    
C13   C14   1.345822 D    
O4    C2    1.298009 A    
O3    Zn1   1.949682 S    
N6    O12   1.301007 A    
C15   N1    1.308980 D    
O8    C4    1.292984 A    
C17   N3    1.157051 T    
C8    C10   1.187823 T    
C1    C14   1.450651 S    
C6    C9    1.411215 S    
C16   N2    1.293881 D    
O7    C4    1.297930 A    
N8    O16   1.299103 A    
C12   C18   1.450403 S    
C11   H3    1.088381 S    
C7    C8    1.411299 S    
O3    C2    1.292926 A    
C11   C13   1.458028 S    
Zn1   O5    1.948464 S    
O5    C3    1.299490 A    
N8    O15   1.303169 A    
N6    O11   1.301725 A    
C6    H2    1.087431 S    
C5    C9    1.187717 T    
Zn2   N2    2.032545 S    
Zn2   O6    1.980658 S    
O2    Zn2   1.948465 S    
C3    C12   1.415293 S    
C6    C7    1.325628 D    
O1    C1    1.285833 A    
O6    C3    1.282826 A    
C7    H1    1.087445 S    
