data_mof_unit_37748.cif
_audit_creation_date              2012-12-10T17:22:11-0500
_audit_creation_method            fapswitch 2.2
_symmetry_space_group_name_H-M    P1
_symmetry_Int_Tables_number       1
_space_group_crystal_system       triclinic
_cell_length_a                    15.99361
_cell_length_b                    10.806834
_cell_length_c                    9.685432
_cell_angle_alpha                 88.810337
_cell_angle_beta                  92.861379
_cell_angle_gamma                 92.143376
_cell_volume                      1670.47653806

loop_
_atom_site_label
_atom_site_type_symbol
_atom_type_description
_atom_site_fract_x
_atom_site_fract_y
_atom_site_fract_z
_atom_type_partial_charge
C1    C     C_R   0.504303 0.263203 0.502853 0.837060
C2    C     C_3   0.952064 0.378509 0.585819 0.203460
C3    C     C_3   0.918208 0.495662 0.502063 -0.250526
C4    C     C_3   0.957500 0.621415 0.561647 0.350142
C5    C     C_3   0.056540 0.630021 0.540317 -0.261216
C6    C     C_1   0.825178 0.498022 0.505453 0.211978
C7    C     C_1   0.176690 0.494277 0.487700 0.072330
C8    C     C_1   0.251766 0.495472 0.489556 -0.024010
C9    C     C_R   0.650254 0.118590 0.623921 -0.282469
C10   C     C_R   0.726855 0.059121 0.621779 0.480487
C11   C     C_R   0.730865 0.946314 0.557552 0.602291
C12   C     C_R   0.340812 0.498163 0.496906 0.826364
C13   C     C_R   0.657414 0.882612 0.514143 0.367307
C14   C     C_R   0.579116 0.937889 0.520393 -0.112949
C15   C     C_R   0.577625 0.064097 0.553918 -0.216430
C16   C     C_R   0.504806 0.128891 0.510917 -0.143237
C17   C     C_R   0.431879 0.065048 0.462155 0.635740
C18   C     C_R   0.428585 0.935633 0.458114 -0.186773
C19   C     C_R   0.502514 0.871903 0.491341 -0.146993
C20   C     C_R   0.617033 0.652001 0.145655 0.028175
C21   C     C_R   0.700651 0.643277 0.109763 -0.291409
C22   C     C_R   0.713662 0.589444 0.981986 -0.080156
C23   C     C_R   0.499608 0.737139 0.497915 0.863381
C24   C     C_R   0.645500 0.589192 0.883334 0.055696
C25   C     C_R   0.565517 0.556980 0.932623 -0.082775
C26   C     C_R   0.558471 0.570471 0.077743 0.203791
C27   C     C_R   0.439353 0.437080 0.069010 -0.106737
C28   C     C_R   0.438960 0.440068 0.921020 0.755733
C29   C     C_R   0.659671 0.498947 0.502581 0.878794
C30   C     C_3   0.052953 0.389587 0.602106 -0.249548
C31   C     C_3   0.041803 0.465508 0.340999 -0.315602
C32   C     C_3   0.943955 0.486858 0.347686 1.024342
C33   C     C_1   0.749687 0.498711 0.506733 0.007944
C34   C     C_3   0.084436 0.494731 0.492584 -0.225588
Cu1   Cu    Cu3+1 0.499990 0.499990 0.640660 1.054172
Cu2   Cu    Cu3+1 0.500010 0.500010 0.359340 0.997369
N1    N     N_R   0.500800 0.501210 0.147910 -0.252285
N2    N     N_R   0.500820 0.501290 0.852040 -0.265099
O1    O     O_R   0.499990 0.319640 0.618810 -0.577512
O2    O     O_R   0.500000 0.319660 0.381240 -0.601117
O3    O     O_R   0.379430 0.499990 0.618840 -0.479453
O4    O     O_R   0.379440 0.500020 0.381260 -0.630655
O5    O     O_R   0.500000 0.680340 0.618760 -0.605588
O6    O     O_R   0.500010 0.680360 0.381190 -0.536966
O7    O     O_R   0.620560 0.499980 0.618740 -0.560009
O8    O     O_R   0.620570 0.500010 0.381160 -0.587144
C35   C     C_2   0.911831 0.261677 0.518847 0.727531
H1    H     H_    0.844036 0.252612 0.511374 0.093493
O9    O     O_2   0.950732 0.179157 0.471001 -0.461123
C36   C     C_2   0.083107 0.422300 0.750475 0.503808
H2    H     H_    0.040825 0.425500 0.833822 0.171451
O10   O     O_2   0.157878 0.434971 0.782122 -0.444892
F1    F     F_    0.918867 0.374490 0.715044 -0.615817
F2    F     F_    0.918528 0.717868 0.489373 -0.545639
F3    F     F_    0.362926 0.130190 0.424493 -0.639971
C37   C     C_2   0.644517 0.217714 0.725323 0.523549
H3    H     H_    0.589405 0.222052 0.785498 0.082718
O11   O     O_2   0.702950 0.291255 0.748457 -0.441354
F4    F     F_    0.796461 0.104555 0.692240 -0.538419
F5    F     F_    0.805657 0.892566 0.550250 -0.480910
F6    F     F_    0.663770 0.767452 0.464716 -0.693670
C38   C     C_2   0.349027 0.867819 0.415112 0.586184
H4    H     H_    0.343017 0.767958 0.426489 0.021927
O12   O     O_2   0.289179 0.922498 0.364413 -0.388984
C39   C     C_2   0.370975 0.365055 0.134881 0.504928
H5    H     H_    0.380639 0.320280 0.234191 0.148149
O13   O     O_2   0.301379 0.354403 0.077568 -0.451761
C40   C     C_2   0.094196 0.265015 0.588277 0.565348
H6    H     H_    0.146335 0.255017 0.523031 0.066008
O14   O     O_2   0.074725 0.176368 0.662070 -0.407230
C41   C     C_2   0.590148 0.778501 0.175108 0.438585
H7    H     H_    0.634518 0.847160 0.218583 0.087751
O15   O     O_2   0.518891 0.809807 0.144080 -0.529949
C42   C     C_2   0.769100 0.710206 0.189068 0.502522
H8    H     H_    0.766533 0.718499 0.299850 0.191373
O16   O     O_2   0.827109 0.761479 0.130451 -0.430105
C43   C     C_2   0.795851 0.545033 0.946901 0.634455
H9    H     H_    0.850373 0.556162 0.017196 0.160195
O17   O     O_2   0.802385 0.489468 0.840180 -0.444135
C44   C     C_2   0.652994 0.694714 0.786298 0.490334
H10   H     H_    0.604023 0.761082 0.774849 0.057283
O18   O     O_2   0.717851 0.714051 0.727216 -0.452166
F7    F     F_    0.379564 0.373030 0.847255 -0.577492
C45   C     C_2   0.079125 0.545572 0.225712 0.472825
H11   H     H_    0.141548 0.587644 0.238750 0.095882
O19   O     O_2   0.042874 0.554514 0.111963 -0.463490
C46   C     C_2   0.062990 0.336733 0.293718 0.472773
H12   H     H_    0.127486 0.308934 0.303920 0.062547
O20   O     O_2   0.012787 0.268736 0.230082 -0.357983
F8    F     F_    0.895113 0.395906 0.280116 -0.644425
F9    F     F_    0.923703 0.595742 0.278498 -0.612960
C47   C     C_2   0.105613 0.680407 0.670136 0.471750
H13   H     H_    0.075485 0.734710 0.744788 0.095002
O21   O     O_2   0.181636 0.674332 0.685203 -0.448510
C48   C     C_2   0.076591 0.729306 0.430079 0.528035
H14   H     H_    0.029062 0.763292 0.356751 0.211480
O22   O     O_2   0.148384 0.768466 0.416171 -0.500800
C49   C     C_2   0.934747 0.638563 0.710747 0.529234
H15   H     H_    0.956312 0.577100 0.792613 0.049917
O23   O     O_2   0.894864 0.726959 0.742474 -0.359558

loop_
_geom_bond_atom_site_label_1
_geom_bond_atom_site_label_2
_ccdc_geom_bond_type
C46   H12   S    
C4    C49   S    
Cu2   O4    S    
C48   H14   S    
C3    C6    S    
C7    C8    T    
C35   O9    D    
C43   H9    S    
C12   O3    A    
C42   O16   D    
Cu2   N1    S    
C45   O19   D    
Cu1   O1    S    
C32   F9    S    
C15   C16   A    
C29   C33   S    
C23   O5    A    
C37   H3    S    
C18   C19   A    
C12   O4    A    
C1    O2    A    
C40   H6    S    
C24   C44   S    
C32   F8    S    
C31   C32   S    
C16   C17   A    
C39   O13   D    
C36   O10   D    
C20   C41   S    
Cu2   O8    S    
Cu1   O5    S    
C9    C10   A    
C17   F3    S    
C38   O12   D    
C30   C36   S    
C1    C16   S    
C21   C22   A    
C28   F7    S    
C5    C48   S    
C17   C18   A    
C43   O17   D    
C31   C46   S    
C42   H8    S    
C30   C34   S    
Cu2   O2    S    
Cu1   N2    S    
C45   H11   S    
C44   O18   D    
C41   O15   D    
C18   C38   S    
C25   C26   A    
C21   C42   S    
C23   O6    A    
C29   O7    A    
Cu1   Cu2   S    
C19   C23   S    
C38   H4    S    
C27   C39   S    
C25   N2    A    
C35   H1    S    
C28   N2    A    
C8    C12   S    
C5    C34   S    
C47   O21   D    
C36   H2    S    
C31   C34   S    
C9    C37   S    
C24   C25   A    
C49   H15   S    
C49   O23   D    
C46   O20   D    
C7    C34   S    
C22   C24   A    
Cu2   O6    S    
C11   F5    S    
Cu1   O7    S    
C4    F2    S    
C14   C19   A    
C22   C43   S    
C44   H10   S    
C2    F1    S    
C48   O22   D    
C26   N1    A    
C2    C35   S    
C6    C33   T    
C29   O8    A    
C2    C30   S    
C2    C3    S    
C9    C15   A    
C41   H7    S    
C11   C13   A    
C20   C26   A    
C27   N1    A    
C47   H13   S    
C37   O11   D    
C10   F4    S    
C3    C32   S    
Cu1   O3    S    
C5    C47   S    
C10   C11   A    
C1    O1    A    
C4    C5    S    
C13   F6    S    
C20   C21   A    
C40   O14   D    
C39   H5    S    
C27   C28   A    
C14   C15   A    
C13   C14   A    
C31   C45   S    
C30   C40   S    
C3    C4    S    
