data_mof_unit_21237.cif
_audit_creation_date              2012-12-10T18:09:56-0500
_audit_creation_method            fapswitch 2.2
_symmetry_space_group_name_H-M    P1
_symmetry_Int_Tables_number       1
_space_group_crystal_system       triclinic
_cell_length_a                    10.629782
_cell_length_b                    12.597278
_cell_length_c                    13.123292
_cell_angle_alpha                 82.240005
_cell_angle_beta                  90.536388
_cell_angle_gamma                 102.493031
_cell_volume                      1699.61372728

loop_
_atom_site_label
_atom_site_type_symbol
_atom_type_description
_atom_site_fract_x
_atom_site_fract_y
_atom_site_fract_z
_atom_type_partial_charge
C1    C     C_R   0.480469 0.438732 0.691197 0.852561
C2    C     C_R   0.468071 0.447170 0.973622 0.080964
C3    C     C_R   0.435189 0.466962 0.869718 0.090806
C4    C     C_R   0.741852 0.500321 0.500073 0.843404
C5    C     C_R   0.466459 0.529629 0.036319 0.083282
C6    C     C_R   0.412399 0.621130 0.000246 0.169312
C7    C     C_R   0.362999 0.630679 0.901620 -0.227797
C8    C     C_R   0.374258 0.554606 0.836919 -0.194078
C9    C     C_R   0.519283 0.524291 0.133653 -0.244377
C10   C     C_R   0.449109 0.687425 0.165083 -0.195908
C11   C     C_R   0.466192 0.399335 0.800897 -0.120006
C12   C     C_3   0.121434 0.498759 0.498723 0.140758
C13   C     C_R   0.321961 0.089696 0.344431 0.292510
C14   C     C_R   0.651305 0.799261 0.630705 -0.058737
C15   C     C_R   0.681938 0.903727 0.659588 0.363151
C16   C     C_R   0.512985 0.561127 0.308771 0.855558
C17   C     C_R   0.624384 0.985345 0.609867 -0.262760
C18   C     C_R   0.535616 0.962499 0.530481 -0.016477
C19   C     C_R   0.508219 0.854728 0.504068 0.227869
C20   C     C_R   0.473048 0.041686 0.476694 -0.024922
C21   C     C_R   0.384396 0.011672 0.397829 0.094324
C22   C     C_R   0.360316 0.904729 0.373805 -0.238350
C23   C     C_3   0.095160 0.585920 0.410505 -0.429909
C24   C     C_R   0.421537 0.828144 0.425956 -0.217856
C25   C     C_R   0.495068 0.150313 0.497847 -0.069793
C26   C     C_R   0.348528 0.195365 0.369929 -0.054885
C27   C     C_R   0.258099 0.499348 0.499711 0.825277
C28   C     C_3   0.899743 0.385375 0.480587 -0.364277
C29   C     C_3   0.042233 0.384829 0.479982 -0.383002
C30   C     C_3   0.953155 0.594946 0.416447 0.022686
C31   C     C_3   0.934199 0.521580 0.605583 -0.468471
C32   C     C_3   0.878608 0.500589 0.498562 0.147689
C33   C     C_3   0.892584 0.613533 0.308879 -0.401776
C34   C     C_3   0.079667 0.525085 0.604049 -0.401730
C35   C     C_3   0.862167 0.514767 0.249843 -0.854297
C36   C     C_R   0.406537 0.700653 0.064345 -0.166823
C37   C     C_R   0.502029 0.596904 0.200094 -0.050180
C38   C     C_R   0.501480 0.300452 0.838342 -0.185602
C39   C     C_R   0.514452 0.272329 0.943210 -0.103762
C40   C     C_R   0.501169 0.345777 0.010474 -0.169446
Cl1   Cl    Cl    0.211460 0.059928 0.245696 -0.641557
Cl2   Cl    Cl    0.791646 0.932153 0.758198 -0.613679
H1    H     H_    0.857216 0.359260 0.408325 0.194979
H2    H     H_    0.514092 0.319915 0.090936 0.144298
H3    H     H_    0.540396 0.195450 0.972110 0.163201
H4    H     H_    0.850953 0.321722 0.543485 0.177118
H5    H     H_    0.333379 0.564423 0.761307 0.163853
H6    H     H_    0.302343 0.257114 0.329968 0.168815
H7    H     H_    0.294007 0.878900 0.314311 0.200087
H8    H     H_    0.560710 0.180944 0.555349 0.136931
H9    H     H_    0.695025 0.735050 0.668926 0.171693
H10   H     H_    0.650975 0.064893 0.635172 0.166297
H11   H     H_    0.399090 0.748256 0.403231 0.204862
H12   H     H_    0.133096 0.608059 0.617780 0.192140
H13   H     H_    0.060916 0.319860 0.541044 0.196029
H14   H     H_    0.069929 0.364248 0.404546 0.184629
H15   H     H_    0.119346 0.563302 0.335182 0.175084
H16   H     H_    0.917810 0.600530 0.626084 0.190713
H17   H     H_    0.885331 0.455465 0.666338 0.181937
H18   H     H_    0.102576 0.464686 0.667655 0.169089
H19   H     H_    0.943645 0.472564 0.251060 0.263065
H20   H     H_    0.773131 0.456716 0.281566 0.253715
H21   H     H_    0.843548 0.543188 0.168386 0.255940
H22   H     H_    0.802481 0.643116 0.316964 0.213924
H23   H     H_    0.954686 0.673177 0.447942 0.145689
H24   H     H_    0.959850 0.681158 0.260623 0.228380
H25   H     H_    0.158133 0.667655 0.416815 0.160623
H26   H     H_    0.434608 0.744197 0.216525 0.152190
H27   H     H_    0.317651 0.698003 0.873802 0.157916
H28   H     H_    0.364281 0.770202 0.037997 0.154508
H29   H     H_    0.569868 0.460954 0.161773 0.146364
H30   H     H_    0.523189 0.246637 0.786348 0.160799
N1    N     N_R   0.433240 0.222190 0.444680 -0.129237
N2    N     N_R   0.566070 0.776970 0.554790 -0.155449
O1    O     O_R   0.468120 0.366740 0.627160 -0.607684
O2    O     O_R   0.510770 0.544830 0.662520 -0.611850
O3    O     O_R   0.663880 0.410950 0.482330 -0.627742
O4    O     O_R   0.706530 0.589040 0.517700 -0.627395
O5    O     O_R   0.489230 0.455170 0.337480 -0.612294
O6    O     O_R   0.531880 0.633260 0.372840 -0.632505
O7    O     O_R   0.293470 0.410960 0.482300 -0.617740
O8    O     O_R   0.336120 0.589050 0.517670 -0.645966
Zn1   Zn    Zn3+2 0.471520 0.381090 0.476390 0.937509
Zn2   Zn    Zn3+2 0.528480 0.618910 0.523610 0.925788

loop_
_geom_bond_atom_site_label_1
_geom_bond_atom_site_label_2
_ccdc_geom_bond_type
C30   C32   S    
C12   C29   S    
C1    C11   S    
O6    Zn2   S    
O2    Zn2   S    
C13   Cl1   S    
C7    C8    A    
C4    O4    A    
C12   C23   S    
C28   H4    S    
C10   C37   A    
C14   N2    A    
C31   H16   S    
C28   C29   S    
C5    C6    A    
C20   C25   A    
O3    Zn1   S    
C31   H17   S    
C26   N1    A    
C23   H15   S    
C18   C19   A    
C23   H25   S    
C25   H8    S    
C14   H9    S    
C25   N1    A    
C26   H6    S    
C16   C37   S    
C39   H3    S    
C21   C22   A    
C34   H18   S    
C17   H10   S    
O7    Zn1   S    
C36   H28   S    
C33   H24   S    
C27   O8    A    
C38   H30   S    
C12   C27   S    
C1    O1    A    
C23   C30   S    
C28   C32   S    
C3    C8    A    
C39   C40   A    
C29   H13   S    
C24   H11   S    
C16   O6    A    
C11   C38   A    
C5    C9    A    
O4    Zn2   S    
C31   C32   S    
C27   O7    A    
C9    C37   A    
C17   C18   A    
C31   C34   S    
C13   C21   A    
C35   H19   S    
C4    C32   S    
C22   H7    S    
C34   H12   S    
O8    Zn2   S    
C22   C24   A    
C13   C26   A    
C2    C5    A    
C12   C34   S    
C15   C17   A    
C30   C33   S    
C1    O2    A    
C19   N2    A    
C9    H29   S    
C15   Cl2   S    
N2    Zn2   S    
C7    H27   S    
C10   C36   A    
C6    C7    A    
C29   H14   S    
C10   H26   S    
C28   H1    S    
C16   O5    A    
C2    C3    A    
C8    H5    S    
C4    O3    A    
O5    Zn1   S    
O1    Zn1   S    
C38   C39   A    
C33   H22   S    
C33   C35   S    
C6    C36   A    
C19   C24   A    
C35   H20   S    
C18   C20   A    
C30   H23   S    
C3    C11   A    
C2    C40   A    
C40   H2    S    
C20   C21   A    
C14   C15   A    
C35   H21   S    
N1    Zn1   S    
