data_mof_unit_23556.cif
_audit_creation_date              2012-12-10T17:10:23-0500
_audit_creation_method            fapswitch 2.2
_symmetry_space_group_name_H-M    P1
_symmetry_Int_Tables_number       1
_space_group_crystal_system       triclinic
_cell_length_a                    10.814904
_cell_length_b                    12.985038
_cell_length_c                    11.76942
_cell_angle_alpha                 99.307213
_cell_angle_beta                  92.885157
_cell_angle_gamma                 90.787806
_cell_volume                      1628.57464806

loop_
_atom_site_label
_atom_site_type_symbol
_atom_type_description
_atom_site_fract_x
_atom_site_fract_y
_atom_site_fract_z
_atom_type_partial_charge
C1    C     C_R   0.494421 0.299480 0.479133 0.927513
C2    C     C_R   0.505579 0.700520 0.520867 0.927511
C3    C     C_R   0.509079 0.813856 0.532628 -0.144701
C4    C     C_R   0.490918 0.186143 0.467372 -0.144699
C5    C     C_R   0.465571 0.016562 0.347520 0.702771
C6    C     C_R   0.534425 0.983438 0.652480 0.702766
C7    C     C_R   0.467065 0.124662 0.358819 -0.226190
C8    C     C_R   0.532931 0.875338 0.641181 -0.226199
C9    C     C_R   0.512754 0.139065 0.565013 -0.068296
C10   C     C_R   0.487242 0.860935 0.434987 -0.068281
C11   C     C_R   0.511841 0.030917 0.554885 -0.052019
C12   C     C_R   0.488156 0.969083 0.445115 -0.052019
C13   C     C_R   0.383029 0.401280 0.027385 0.639608
C14   C     C_R   0.616970 0.598721 0.972615 0.639608
C15   C     C_R   0.394799 0.411354 0.147560 -0.072729
C16   C     C_R   0.605200 0.588647 0.852440 -0.072731
C17   C     C_R   0.551128 0.542710 0.155227 0.580645
C18   C     C_R   0.448872 0.457290 0.844773 0.580644
C19   C     C_R   0.542878 0.536070 0.032594 -0.269230
C20   C     C_R   0.457121 0.463931 0.967406 -0.269230
C21   C     C_R   0.263189 0.503301 0.501307 0.900460
C22   C     C_R   0.736811 0.496699 0.498693 0.900459
C23   C     C_R   0.132325 0.312902 0.501430 -0.197487
C24   C     C_R   0.867676 0.687099 0.498568 -0.197486
C25   C     C_R   0.070638 0.218040 0.499506 -0.195918
C26   C     C_R   0.929364 0.781959 0.500485 -0.195913
C27   C     C_R   0.942269 0.213680 0.496524 0.410919
C28   C     C_R   0.057733 0.786318 0.503461 0.410920
C29   C     C_R   0.874939 0.304580 0.495397 0.530478
C30   C     C_R   0.125061 0.695418 0.504591 0.530475
C31   C     C_R   0.935875 0.402890 0.497988 -0.096231
C32   C     C_R   0.064126 0.597110 0.502008 -0.096233
C33   C     C_R   0.066502 0.406598 0.501110 -0.000930
C34   C     C_R   0.933499 0.593403 0.498889 -0.000930
C35   C     C_R   0.870698 0.496918 0.496954 -0.067627
C36   C     C_R   0.129303 0.503082 0.503046 -0.067628
Cu1   Cu    Cu3+1 0.509250 0.507730 0.615930 1.050627
Cu2   Cu    Cu3+1 0.490750 0.492270 0.384070 1.050634
H1    H     H_    0.232266 0.311602 0.503232 0.152809
H2    H     H_    0.767735 0.688399 0.496769 0.152808
H3    H     H_    0.123170 0.147723 0.500043 0.232593
H4    H     H_    0.876832 0.852276 0.499945 0.232594
H5    H     H_    0.468461 0.813368 0.351191 0.238648
H6    H     H_    0.531536 0.186632 0.648809 0.238647
H7    H     H_    0.550523 0.839885 0.717473 0.197598
H8    H     H_    0.449474 0.160115 0.282527 0.197597
H9    H     H_    0.662334 0.636992 0.808428 0.175683
H10   H     H_    0.337665 0.363009 0.191573 0.175682
N1    N     N_R   0.523180 0.519350 0.790130 -0.267286
N2    N     N_R   0.476820 0.480650 0.209870 -0.267286
O1    O     O_R   0.506570 0.354460 0.582000 -0.539536
O2    O     O_R   0.493430 0.645540 0.418000 -0.539530
O3    O     O_R   0.490940 0.341410 0.386200 -0.592832
O4    O     O_R   0.509060 0.658590 0.613800 -0.592838
O5    O     O_R   0.327470 0.506520 0.597900 -0.531626
O6    O     O_R   0.672530 0.493480 0.402100 -0.531620
O7    O     O_R   0.311840 0.493460 0.402100 -0.584144
O8    O     O_R   0.688160 0.506540 0.597900 -0.584149
Cl1   Cl    Cl    0.134810 0.906867 0.506397 -0.503292
Cl2   Cl    Cl    0.865192 0.093129 0.493575 -0.503288
F1    F     F_    0.298721 0.329522 0.972732 -0.573507
F2    F     F_    0.701277 0.670480 0.027268 -0.573506
F3    F     F_    0.750337 0.294635 0.490715 -0.668792
F4    F     F_    0.249664 0.705362 0.509265 -0.668794
F5    F     F_    0.442337 0.958712 0.241472 -0.608767
F6    F     F_    0.557659 0.041288 0.758528 -0.608769
Cl3   Cl    Cl    0.341384 0.369233 0.761184 -0.479212
Cl4   Cl    Cl    0.658617 0.630767 0.238816 -0.479212

loop_
_geom_bond_atom_site_label_1
_geom_bond_atom_site_label_2
_ccdc_geom_bond_type
C17   N2    A    
C22   O8    A    
C23   C33   A    
C22   O6    A    
C11   C12   A    
C29   F3    S    
Cu1   O5    S    
C21   O7    A    
Cu1   Cu2   S    
Cu2   N2    S    
C14   C16   A    
C30   F4    S    
C27   C29   A    
Cu2   O7    S    
Cu1   N1    S    
C18   Cl3   S    
C26   C28   A    
C19   C20   A    
C13   C15   A    
C9    C11   A    
C1    C4    S    
C28   C30   A    
C2    C3    S    
C10   H5    S    
Cu2   O6    S    
C29   C31   A    
C3    C10   A    
C30   C32   A    
C22   C35   S    
C1    O1    A    
Cu2   O3    S    
C2    O2    A    
C15   H10   S    
C4    C7    A    
C23   H1    S    
Cu1   O4    S    
C10   C12   A    
C16   H9    S    
C17   C19   A    
C24   C26   A    
C3    C8    A    
C18   C20   A    
C27   Cl2   S    
C23   C25   A    
Cu1   O1    S    
C31   C35   A    
C15   N2    A    
C25   C27   A    
C31   C33   A    
C14   F2    S    
C7    H8    S    
C32   C36   A    
C6    F6    S    
C33   C36   A    
C13   F1    S    
C16   N1    A    
C26   H4    S    
C5    C12   A    
C5    F5    S    
C34   C35   A    
C2    O4    A    
C28   Cl1   S    
C25   H3    S    
C6    C11   A    
C5    C7    A    
Cu2   O2    S    
C1    O3    A    
C8    H7    S    
C14   C19   A    
C21   O5    A    
C6    C8    A    
C13   C20   A    
C24   H2    S    
C4    C9    A    
C21   C36   S    
C24   C34   A    
C9    H6    S    
Cu1   O8    S    
C18   N1    A    
C17   Cl4   S    
C32   C34   A    
