data_mof_unit_25335.cif
_audit_creation_date              2013-03-05T15:46:23-0500
_audit_creation_method            fapswitch 2.2
_symmetry_space_group_name_H-M    P1
_symmetry_Int_Tables_number       1
_space_group_crystal_system       triclinic
_cell_length_a                    8.412121
_cell_length_b                    15.004589
_cell_length_c                    19.165972
_cell_angle_alpha                 96.989034
_cell_angle_beta                  95.036155
_cell_angle_gamma                 97.564006
_cell_volume                      2366.98495675

loop_
_atom_site_label
_atom_site_type_symbol
_atom_site_description
_atom_site_fract_x
_atom_site_fract_y
_atom_site_fract_z
_atom_type_partial_charge
P1    P     P_3+3 0.990700 0.707490 0.561920 0.429659
O1    O     O_2   0.165020 0.721890 0.541560 -0.387930
O2    O     O_3   0.893030 0.608480 0.539180 -0.403119
O3    O     O_3   0.389120 0.667500 0.413900 -0.376676
O4    O     O_2   0.308098 0.826062 0.463969 -0.377401
O5    O     O_3   0.001830 0.721823 0.655311 -0.611295
O6    O     O_3   0.385832 0.814628 0.335472 -0.543284
C1    C     C_3   0.425018 0.781561 0.213904 -1.030942
H1    H     H_    0.303703 0.797749 0.196908 0.281487
H2    H     H_    0.515012 0.843588 0.217595 0.255837
P2    P     P_3+3 0.340130 0.430100 0.338870 0.462525
P3    P     P_3+3 0.924276 0.614182 0.285330 0.442811
O7    O     O_2   0.172060 0.457600 0.329040 -0.360303
O8    O     O_3   0.964390 0.622060 0.377370 -0.355687
O9    O     O_2   0.018339 0.540741 0.252747 -0.377721
O10   O     O_3   0.307454 0.312119 0.315616 -0.564019
O11   O     O_3   0.020619 0.712962 0.257875 -0.530335
C2    C     C_3   0.917951 0.779860 0.255095 0.660950
H3    H     H_    0.796063 0.758385 0.270276 0.020998
C3    C     C_3   0.898397 0.801269 0.178856 -0.983662
H4    H     H_    0.013635 0.836003 0.164603 0.253195
H5    H     H_    0.862651 0.737744 0.141675 0.236952
C4    C     C_3   0.755860 0.348854 0.317968 0.453590
H6    H     H_    0.649560 0.372480 0.340315 0.092534
H7    H     H_    0.861056 0.403399 0.329472 0.133688
C5    C     C_3   0.718714 0.325722 0.238185 -0.995648
H8    H     H_    0.697331 0.387043 0.214066 0.232390
Ba1   Ba    Ba6+2 0.161760 0.544680 0.467770 1.527046
C6    C     C_3   0.158081 0.749974 0.690596 0.285130
H9    H     H_    0.255676 0.757649 0.656185 0.108689
H10   H     H_    0.184519 0.695969 0.722768 0.115762
C7    C     C_3   0.164979 0.840837 0.738670 -0.474395
H11   H     H_    0.232635 0.895181 0.713859 0.141994
C8    C     C_3   0.246127 0.270547 0.371065 0.449107
H12   H     H_    0.128260 0.292133 0.381006 0.090428
H13   H     H_    0.331747 0.287221 0.419909 0.128503
C9    C     C_3   0.222000 0.168177 0.349697 -0.998426
H14   H     H_    0.133890 0.149155 0.301833 0.266447
H15   H     H_    0.175747 0.132830 0.392860 0.224621
H16   H     H_    0.338600 0.145465 0.338245 0.265146
P4    P     P_3+3 0.819590 0.292500 0.438020 0.450438
O12   O     O_2   0.645270 0.278050 0.458420 -0.356869
O13   O     O_3   0.917270 0.391510 0.460760 -0.451613
O14   O     O_3   0.421180 0.332490 0.586040 -0.392683
O15   O     O_3   0.790260 0.270683 0.345638 -0.571515
P5    P     P_3+3 0.872485 0.381249 0.716539 0.449532
O16   O     O_3   0.383630 0.545490 0.584580 -0.393213
O17   O     O_3   0.845910 0.377930 0.622570 -0.362168
O18   O     O_2   0.756222 0.443203 0.747692 -0.384547
O19   O     O_3   0.795314 0.275144 0.737341 -0.522937
Ba2   Ba    Ba6+2 0.648420 0.455310 0.532170 1.521533
P6    P     P_3+3 0.432476 0.785444 0.419741 0.444053
C10   C     C_3   0.424931 0.747000 0.285188 0.512727
H17   H     H_    0.546175 0.729068 0.299664 0.005571
O20   O     O_3   0.426670 0.454500 0.415370 -0.406624
C11   C     C_3   0.588559 0.735718 0.670094 0.182556
C12   C     C_3   0.629105 0.829535 0.715525 -0.006525
H18   H     H_    0.513522 0.854998 0.724377 0.170558
P7    P     P_3+3 0.463548 0.567244 0.674880 0.432543
O21   O     O_2   0.638230 0.542350 0.670940 -0.336887
O22   O     O_3   0.480444 0.682758 0.705187 -0.637304
H19   H     H_    0.802758 0.844768 0.171830 0.234866
C13   C     C_3   0.912500 0.216959 0.733708 0.386598
H20   H     H_    0.911948 0.186419 0.677797 0.048993
C14   C     C_3   0.872394 0.141205 0.779095 -0.419471
H21   H     H_    0.741978 0.113602 0.770052 0.214103
H22   H     H_    0.938498 0.085061 0.761220 0.124179
P8    P     P_3+3 0.375081 0.213573 0.577781 0.445887
C15   C     C_3   0.348165 0.198140 0.711727 0.700503
H23   H     H_    0.250515 0.237048 0.695719 -0.008787
O23   O     O_2   0.487344 0.175252 0.526017 -0.361174
O24   O     O_3   0.444819 0.177100 0.657008 -0.527607
H24   H     H_    0.178262 0.072790 0.693458 0.238930
C16   C     C_3   0.273322 0.108721 0.734471 -1.118848
H25   H     H_    0.215205 0.120219 0.783640 0.254493
C17   C     C_R   0.164066 0.167964 0.540557 0.148841
C18   C     C_R   0.097126 0.075139 0.534583 -0.001418
C19   C     C_R   0.958686 0.888734 0.525355 -0.033180
C20   C     C_R   0.113957 0.921011 0.559473 -0.111681
C21   C     C_R   0.184072 0.010744 0.561042 -0.197786
C22   C     C_R   0.889227 0.795512 0.520208 0.243472
H26   H     H_    0.185667 0.877731 0.585024 0.152645
H27   H     H_    0.306566 0.029260 0.585316 0.190494
C23   C     C_R   0.733019 0.768726 0.486496 -0.469851
C24   C     C_R   0.918210 0.202821 0.478318 0.289442
C25   C     C_R   0.849514 0.109398 0.471505 -0.046179
C26   C     C_R   0.938327 0.045809 0.501080 0.006569
C27   C     C_R   0.696154 0.076922 0.435403 -0.075194
C28   C     C_R   0.626547 0.986616 0.432769 -0.186200
C29   C     C_R   0.711013 0.922851 0.462199 -0.007643
C30   C     C_R   0.869779 0.952180 0.495675 0.040403
C31   C     C_R   0.642181 0.830561 0.458726 0.162814
C32   C     C_R   0.073283 0.229382 0.512742 -0.535069
H28   H     H_    0.506157 0.967439 0.406159 0.185861
H29   H     H_    0.678994 0.698659 0.483708 0.184885
H30   H     H_    0.128782 0.298657 0.513707 0.156778
C33   C     C_R   0.609197 0.540992 0.302547 -0.490986
C34   C     C_R   0.455571 0.494016 0.278546 0.329599
C35   C     C_R   0.396530 0.489185 0.207192 -0.269032
C36   C     C_R   0.493258 0.527718 0.158790 0.021957
C37   C     C_R   0.651977 0.568947 0.183352 -0.295792
C38   C     C_R   0.709514 0.575791 0.254884 0.212457
C39   C     C_R   0.480493 0.590655 0.042285 -0.178295
C40   C     C_R   0.428847 0.582650 0.969974 -0.171654
C41   C     C_R   0.327836 0.504638 0.935680 0.173133
C42   C     C_R   0.277540 0.435711 0.975971 -0.188406
C43   C     C_R   0.329961 0.443408 0.048032 -0.159167
C44   C     C_R   0.432930 0.520774 0.082280 0.176253
C45   C     C_R   0.123574 0.449235 0.829989 -0.332315
C46   C     C_R   0.083802 0.428267 0.756901 0.204112
C47   C     C_R   0.349778 0.503009 0.737285 0.295344
C48   C     C_R   0.390481 0.522059 0.810710 -0.292789
C49   C     C_R   0.279940 0.492523 0.857859 0.056233
C50   C     C_R   0.202476 0.449746 0.712119 -0.162046
H31   H     H_    0.506771 0.560734 0.830684 0.145675
H32   H     H_    0.467522 0.637861 0.941039 0.117007
H33   H     H_    0.557634 0.651906 0.066856 0.116963
H34   H     H_    0.201523 0.374080 0.951318 0.133754
H35   H     H_    0.033320 0.431661 0.864846 0.152304
H36   H     H_    0.733241 0.592082 0.146530 0.143129
H37   H     H_    0.655800 0.544023 0.357373 0.166136
H38   H     H_    0.333800 0.685173 0.280229 0.153105
H39   H     H_    0.609317 0.274106 0.225269 0.267324
H40   H     H_    0.822103 0.298505 0.215224 0.266156
C51   C     C_3   0.250118 0.840698 0.813139 -0.305873
C52   C     C_3   0.141774 0.792544 0.861082 -0.865833
H41   H     H_    0.043886 0.832483 0.874102 0.262763
H42   H     H_    0.088788 0.723298 0.835637 0.258598
H43   H     H_    0.213973 0.786629 0.911238 0.245298
H44   H     H_    0.359662 0.807320 0.809823 0.213377
H45   H     H_    0.288938 0.912003 0.838080 0.203369
H46   H     H_    0.043265 0.860131 0.742572 0.224714
H47   H     H_    0.456798 0.728835 0.173882 0.231239
H48   H     H_    0.701372 0.706071 0.664140 0.148911
H49   H     H_    0.530439 0.742347 0.616951 0.086329
C53   C     C_3   0.711184 0.818882 0.789130 -0.278480
C54   C     C_3   0.739522 0.906499 0.841380 -0.991990
H50   H     H_    0.759366 0.889883 0.896087 0.260296
H51   H     H_    0.849068 0.950869 0.831553 0.260027
H52   H     H_    0.633722 0.943519 0.837793 0.269147
H53   H     H_    0.633014 0.768177 0.813366 0.209798
H54   H     H_    0.825781 0.791392 0.783474 0.203702
C55   C     C_3   0.730204 0.897963 0.677119 -0.388407
C56   C     C_3   0.623570 0.950410 0.633467 -0.910937
H55   H     H_    0.543390 0.903483 0.591847 0.259867
H56   H     H_    0.548400 0.987908 0.668034 0.262927
H57   H     H_    0.699974 0.000987 0.608617 0.275003
H58   H     H_    0.812217 0.948221 0.714878 0.221646
H59   H     H_    0.808293 0.862745 0.643165 0.191346
H60   H     H_    0.034823 0.252191 0.752990 0.013409
C57   C     C_3   0.925771 0.170014 0.858560 -0.290820
C58   C     C_3   0.817017 0.230286 0.895382 -0.821680
H61   H     H_    0.814129 0.293762 0.871419 0.280337
H62   H     H_    0.693141 0.193055 0.892856 0.253445
H63   H     H_    0.864547 0.249052 0.951907 0.230085
H64   H     H_    0.924554 0.108052 0.884962 0.196821
H65   H     H_    0.051527 0.205412 0.866715 0.190708
C59   C     C_3   0.459143 0.256384 0.773080 -0.198919
C60   C     C_3   0.380866 0.279647 0.840425 -1.116423
H66   H     H_    0.263254 0.301737 0.827765 0.272948
H67   H     H_    0.364864 0.220611 0.870121 0.276651
H68   H     H_    0.460736 0.335331 0.875217 0.296701
H69   H     H_    0.559291 0.219188 0.787222 0.234778
H70   H     H_    0.507779 0.320775 0.754571 0.228360
C61   C     C_3   0.995323 0.864157 0.306802 -0.260084
C62   C     C_3   0.897509 0.943028 0.306539 -1.020875
H71   H     H_    0.904579 0.973166 0.256624 0.280888
H72   H     H_    0.769409 0.919724 0.312772 0.270895
H73   H     H_    0.948083 0.996765 0.350709 0.281201
H74   H     H_    0.006100 0.845040 0.361115 0.200134
H75   H     H_    0.118910 0.887323 0.293771 0.231405
H76   H     H_    0.366935 0.064419 0.743439 0.261136
H77   H     H_    0.626845 0.120596 0.408631 0.173839
H78   H     H_    0.275965 0.454531 0.189675 0.158761
H79   H     H_    0.293174 0.387265 0.076309 0.119554
C63   C     C_3   0.154525 0.432295 0.636244 -0.440189
C64   C     C_3   0.066331 0.509787 0.616920 -0.422757
H80   H     H_    0.977935 0.528811 0.653696 0.218788
H81   H     H_    0.145674 0.573928 0.617687 0.211311
H82   H     H_    0.003088 0.486198 0.564777 0.292426
H83   H     H_    0.248090 0.423917 0.603827 0.248829
H84   H     H_    0.096024 0.361652 0.622977 0.165401

loop_
_geom_bond_atom_site_label_1
_geom_bond_atom_site_label_2
_geom_bond_distance
_ccdc_geom_bond_type
C61   H75   1.111572 S    
C13   C14   1.534176 S    
Ba1   O16   2.783794 S    
C52   H41   1.108625 S    
C4    O15   1.398044 S    
C26   C30   1.434471 A    
C8    C9    1.522664 S    
P4    O12   1.545251 D    
C47   C48   1.403945 A    
C11   H49   1.111916 S    
C33   C34   1.398369 A    
C12   H18   1.109547 S    
Ba2   O20   2.783046 S    
C10   H17   1.109199 S    
C63   H84   1.097952 S    
C54   H51   1.107865 S    
P5    O18   1.544006 D    
C5    H8    1.106834 S    
C61   C62   1.527961 S    
O3    P6    1.747024 S    
P2    C34   1.849675 S    
C57   H65   1.108368 S    
C41   C49   1.493051 S    
O2    Ba1   2.948545 S    
O6    P6    1.749380 S    
C2    H3    1.108158 S    
C6    C7    1.541157 S    
C10   H38   1.111685 S    
C21   H27   1.079089 S    
Ba1   Ba2   4.587167 S    
C25   C27   1.405794 A    
C42   C43   1.398604 A    
P1    C22   1.883095 S    
C55   C56   1.529107 S    
C11   C12   1.542494 S    
C8    H12   1.107697 S    
H24   C16   1.104979 S    
C4    C5    1.521421 S    
C28   H28   1.079550 S    
C48   C49   1.419223 A    
C33   H37   1.082253 S    
O10   C8    1.399114 S    
C40   H32   1.082672 S    
C24   C32   1.394226 A    
C51   H44   1.108183 S    
Ba1   O20   2.943061 S    
O17   Ba2   2.757158 S    
C60   H66   1.100609 S    
C1    H1    1.110276 S    
C14   H22   1.105802 S    
P3    O11   1.754686 S    
P1    Ba1   3.406333 S    
P7    C47   1.874589 S    
C57   C58   1.526026 S    
C60   H67   1.109712 S    
O7    Ba1   2.830061 S    
C39   C44   1.409303 A    
C6    H9    1.100417 S    
C46   C50   1.403631 A    
C16   H76   1.110592 S    
C33   C38   1.398093 A    
C59   H70   1.109737 S    
O12   Ba2   2.851787 S    
C53   H53   1.111267 S    
C50   C63   1.456894 S    
P7    O21   1.568949 D    
C42   H34   1.082726 S    
C62   H72   1.109645 S    
O19   C13   1.400954 S    
P4    O13   1.590704 S    
C39   H33   1.082368 S    
C5    H40   1.110765 S    
C56   H57   1.108662 S    
C40   C41   1.406081 A    
O3    Ba1   2.828767 S    
C2    C61   1.539649 S    
C15   C59   1.536355 S    
C63   H83   1.055559 S    
C9    H15   1.107256 S    
C54   H52   1.110890 S    
P5    O17   1.789040 S    
P7    O22   1.742803 S    
C36   C44   1.495638 S    
C16   H25   1.104714 S    
C12   C55   1.543773 S    
P1    O5    1.769303 S    
C37   C38   1.400195 A    
C17   C18   1.418986 A    
C56   H56   1.109885 S    
O2    Ba2   2.857517 S    
C19   C20   1.405212 A    
C53   C54   1.530750 S    
O16   Ba2   2.942272 S    
C52   H43   1.110523 S    
C64   H81   1.094381 S    
C24   C25   1.430000 A    
C27   H77   1.078210 S    
C20   C21   1.392682 A    
P1    O2    1.590672 S    
C23   H29   1.082103 S    
C7    C51   1.540029 S    
C14   C57   1.541646 S    
C15   O24   1.413261 S    
C13   H60   1.103338 S    
P3    C38   1.842626 S    
C9    H14   1.110663 S    
C17   C32   1.396426 A    
P2    O10   1.751110 S    
C51   H45   1.111744 S    
C29   C31   1.420215 A    
C35   C36   1.412847 A    
C58   H63   1.110355 S    
P8    O24   1.754918 S    
C64   H82   1.085377 S    
C3    H4    1.110894 S    
O11   C2    1.410484 S    
C60   H68   1.110018 S    
C15   C16   1.534485 S    
C12   C53   1.550905 S    
C57   H64   1.110592 S    
C58   H61   1.108708 S    
C53   H54   1.106051 S    
C59   H69   1.102358 S    
C64   H80   1.109119 S    
O14   Ba2   2.828139 S    
C63   C64   1.524194 S    
C3    H5    1.108324 S    
C14   H21   1.111162 S    
P3    O9    1.542478 D    
P5    C46   1.884582 S    
C59   C60   1.523643 S    
C51   C52   1.527176 S    
P6    C31   1.859991 S    
P8    C17   1.862056 S    
C5    H39   1.110709 S    
O6    C10   1.404352 S    
C43   C44   1.406670 A    
C9    H16   1.110843 S    
C7    H46   1.106312 S    
C22   C23   1.397998 A    
P2    O20   1.557415 S    
C45   H35   1.082366 S    
C41   C42   1.407654 A    
C18   C21   1.402088 A    
C61   H74   1.112224 S    
C52   H42   1.110250 S    
O4    P6    1.543547 D    
C1    H47   1.108937 S    
C25   C26   1.426461 A    
C37   H36   1.080607 S    
C58   H62   1.109775 S    
C56   H55   1.109436 S    
C1    C10   1.519213 S    
C20   H26   1.074279 S    
C11   H48   1.108735 S    
C45   C49   1.415878 A    
C19   C30   1.426098 A    
C32   H30   1.079248 S    
P4    C24   1.878750 S    
C54   H50   1.110501 S    
P5    O19   1.744384 S    
Ba1   O13   2.856901 S    
C7    H11   1.111138 S    
P3    O8    1.753261 S    
C6    H10   1.109617 S    
C45   C46   1.398540 A    
P2    O7    1.526562 D    
C19   C22   1.431357 A    
O13   Ba2   2.949404 S    
C29   C30   1.419553 A    
C62   H71   1.109691 S    
C35   H78   1.081938 S    
C43   H79   1.082141 S    
P2    Ba1   3.406879 S    
P8    O23   1.541215 D    
P1    O1    1.544945 D    
C36   C37   1.410071 A    
C8    H13   1.111263 S    
C47   C50   1.395466 A    
C2    C3    1.533405 S    
C4    H7    1.110256 S    
C3    H19   1.109950 S    
C15   H23   1.111454 S    
C55   H58   1.100422 S    
O14   P8    1.759973 S    
C4    H6    1.105659 S    
O16   P7    1.776026 S    
C13   H20   1.112359 S    
C55   H59   1.103173 S    
O5    C6    1.411263 S    
C27   C28   1.396683 A    
C18   C26   1.419969 A    
C62   H73   1.108206 S    
C1    H2    1.110582 S    
C34   C35   1.403325 A    
C39   C40   1.401405 A    
P4    O15   1.750431 S    
C11   O22   1.399351 S    
O1    Ba1   2.851281 S    
Ba2   O21   2.830366 S    
C23   C31   1.401233 A    
O8    Ba1   2.756550 S    
C28   C29   1.406544 A    
P4    Ba2   3.406855 S    
C48   H31   1.082128 S    
