data_mof_unit_26864.cif
_audit_creation_date              2012-12-11T15:46:44-0500
_audit_creation_method            fapswitch 2.2
_symmetry_space_group_name_H-M    P1
_symmetry_Int_Tables_number       1
_space_group_crystal_system       triclinic
_cell_length_a                    11.507427
_cell_length_b                    11.519382
_cell_length_c                    19.535812
_cell_angle_alpha                 90.663019
_cell_angle_beta                  90.172172
_cell_angle_gamma                 60.144219
_cell_volume                      2245.78171349

loop_
_atom_site_label
_atom_site_type_symbol
_atom_type_description
_atom_site_fract_x
_atom_site_fract_y
_atom_site_fract_z
_atom_type_partial_charge
C1    C     C_R   0.640660 0.117490 0.599185 0.548177
C2    C     C_1   0.653195 0.149865 0.668590 0.003959
C3    C     C_R   0.642187 0.701086 0.185151 0.016233
C4    C     C_R   0.612677 0.745735 0.598607 0.555708
C5    C     C_R   0.520678 0.733770 0.217496 0.034067
C6    C     C_R   0.499639 0.772114 0.285113 0.023679
C7    C     C_R   0.708261 0.774183 0.287329 -0.158100
C8    C     C_R   0.731026 0.733053 0.218506 -0.168127
C9    C     C_3   0.454092 0.650843 0.225210 -0.267790
C10   C     C_3   0.434405 0.690189 0.299718 -0.268515
C11   C     C_R   0.597258 0.782754 0.322367 0.011661
C12   C     C_1   0.641544 0.703789 0.667980 0.002865
C13   C     C_R   0.157268 0.191835 0.188392 0.016038
C14   C     C_R   0.179962 0.281645 0.226473 0.025703
C15   C     C_R   0.203240 0.264501 0.295232 0.041310
C16   C     C_R   0.240727 0.145396 0.598138 0.549020
C17   C     C_R   0.200174 0.057481 0.290460 -0.167660
C18   C     C_R   0.180056 0.072528 0.219552 -0.163569
C19   C     C_3   0.098691 0.430899 0.234540 -0.268586
C20   C     C_3   0.125950 0.411161 0.310565 -0.272607
C21   C     C_R   0.203904 0.158374 0.329569 0.013762
C22   C     C_R   0.670217 0.178239 0.191301 0.017743
C23   C     C_1   0.126940 0.198486 0.859328 0.004117
C24   C     C_R   0.761963 0.058708 0.223395 0.033204
C25   C     C_R   0.754730 0.042698 0.292160 0.022034
C26   C     C_R   0.550929 0.255312 0.299030 -0.154912
C27   C     C_R   0.558035 0.272582 0.228573 -0.168906
C28   C     C_R   0.643691 0.111937 0.402024 0.536596
C29   C     C_3   0.912343 0.986766 0.225838 -0.264220
C30   C     C_3   0.902719 0.969748 0.301755 -0.283185
C31   C     C_R   0.656044 0.143535 0.332046 0.017698
C32   C     C_R   0.082074 0.230977 0.928644 0.547022
C33   C     C_R   0.683857 0.604660 0.929539 0.546212
C34   C     C_1   0.171354 0.170306 0.727682 -0.030646
C35   C     C_R   0.708220 0.206488 0.930215 0.546651
C36   C     C_R   0.085305 0.235124 0.124422 0.544244
C37   C     C_R   0.680608 0.615687 0.124529 0.542463
C38   C     C_R   0.707870 0.210303 0.126460 0.544173
C39   C     C_R   0.580752 0.803917 0.395774 0.566880
C40   C     C_R   0.246092 0.139624 0.400530 0.536643
C41   C     C_1   0.670359 0.646629 0.860177 0.004572
C42   C     C_1   0.655020 0.683666 0.728440 -0.031203
C43   C     C_1   0.663534 0.666763 0.799725 -0.030689
C44   C     C_1   0.150240 0.182066 0.798936 -0.030642
C45   C     C_1   0.195019 0.161082 0.667328 0.003823
C46   C     C_1   0.678415 0.190988 0.860846 0.004340
C47   C     C_1   0.658627 0.167323 0.729032 -0.030727
C48   C     C_1   0.665561 0.180760 0.800361 -0.030615
Cr1   Cr    Cr6+3 0.404720 0.198220 0.499960 1.020573
Cr2   Cr    Cr6+3 0.698290 0.897110 0.500380 1.022944
Cr3   Cr    Cr6+3 0.396970 0.904720 0.499610 1.019538
Cr4   Cr    Cr6+3 0.926290 0.152010 0.028150 1.021287
Cr5   Cr    Cr6+3 0.921440 0.451830 0.027490 1.024160
Cr6   Cr    Cr6+3 0.626370 0.446880 0.028730 1.023308
H1    H     H_    0.783048 0.787211 0.314411 0.141939
H2    H     H_    0.327416 0.749981 0.314467 0.126360
H3    H     H_    0.495437 0.603867 0.333635 0.158502
H4    H     H_    0.207973 0.970537 0.314903 0.124885
H5    H     H_    0.171390 0.996605 0.190518 0.124557
H6    H     H_    0.991070 0.471616 0.222032 0.158213
H7    H     H_    0.465463 0.330450 0.327615 0.133526
H8    H     H_    0.481371 0.362704 0.204669 0.120748
H9    H     H_    0.952742 0.053958 0.214520 0.163040
H10   H     H_    0.823359 0.713957 0.194096 0.123420
H11   H     H_    0.147165 0.482492 0.209812 0.131745
H12   H     H_    0.191297 0.450158 0.329576 0.137673
H13   H     H_    0.034495 0.440472 0.341724 0.143832
H14   H     H_    0.958649 0.890608 0.196618 0.131112
H15   H     H_    0.942694 0.863744 0.316513 0.133011
H16   H     H_    0.937814 0.026710 0.333766 0.140715
H17   H     H_    0.523927 0.542036 0.217565 0.157344
H18   H     H_    0.358563 0.692385 0.196242 0.132105
O1    O     O_R   0.267750 0.231960 0.575440 -0.502544
O2    O     O_R   0.596230 0.579400 0.952760 -0.504704
O3    O     O_R   0.639160 0.321170 0.958690 -0.493033
O4    O     O_R   0.527290 0.186640 0.570530 -0.491387
O5    O     O_R   0.821370 0.124220 0.104400 -0.521928
O6    O     O_R   0.037020 0.167050 0.097880 -0.511201
O7    O     O_R   0.056310 0.349620 0.102920 -0.517853
O8    O     O_R   0.797790 0.564880 0.097980 -0.508509
O9    O     O_R   0.596000 0.584270 0.104310 -0.521397
O10   O     O_R   0.638950 0.325690 0.099180 -0.507243
O11   O     O_3   0.824700 0.350240 0.028120 -0.250776
O12   O     O_R   0.685950 0.784660 0.430010 -0.506866
O13   O     O_R   0.728110 0.003450 0.576380 -0.503566
O14   O     O_R   0.682980 0.789190 0.570500 -0.488398
O15   O     O_R   0.499300 0.771880 0.575540 -0.500929
O16   O     O_R   0.285350 0.030870 0.569740 -0.492714
O17   O     O_R   0.270960 0.227070 0.423890 -0.515405
O18   O     O_R   0.530270 0.182120 0.430040 -0.509106
O19   O     O_R   0.731320 0.998570 0.424830 -0.524885
O20   O     O_R   0.502510 0.767000 0.423980 -0.519323
O21   O     O_R   0.288320 0.026340 0.429250 -0.520942
O22   O     O_3   0.499990 0.000020 0.499980 -0.275582
O23   O     O_R   0.821590 0.119350 0.952850 -0.504325
O24   O     O_R   0.037230 0.162540 0.957390 -0.493540
O25   O     O_R   0.056530 0.344750 0.951370 -0.504507
O26   O     O_R   0.798000 0.560370 0.957490 -0.493775

loop_
_geom_bond_atom_site_label_1
_geom_bond_atom_site_label_2
_ccdc_geom_bond_type
C25   C31   A    
C29   H9    S    
C20   H13   S    
C19   C20   S    
C9    H18   S    
C7    H1    S    
C40   O21   A    
Cr2   O12   S    
C7    C8    A    
C4    O15   A    
C7    C11   A    
C35   O3    A    
C26   C27   A    
C13   C18   A    
C20   H12   S    
Cr5   O7    S    
C26   H7    S    
C39   O12   A    
C33   O26   A    
C5    C6    A    
Cr5   O26   S    
C4    O14   A    
C22   C38   S    
C32   O25   A    
Cr4   O23   S    
C1    C2    S    
C24   C29   S    
C12   C42   T    
Cr2   O13   S    
Cr6   O2    S    
C19   H11   S    
Cr1   O22   S    
C4    C12   S    
C10   H2    S    
C9    C10   S    
Cr1   O18   S    
C17   H4    S    
C26   C31   A    
C13   C14   A    
C38   O10   A    
C41   C43   T    
C37   O9    A    
Cr4   O6    S    
Cr6   O11   S    
C30   H16   S    
C1    O13   A    
C15   C20   S    
C37   O8    A    
C46   C48   T    
C16   O1    A    
Cr5   O8    S    
C34   C44   S    
C24   C25   A    
C13   C36   S    
C3    C8    A    
Cr3   O15   S    
C6    C11   A    
Cr2   O22   S    
Cr5   O25   S    
C17   C21   A    
C23   C44   T    
C16   C45   S    
Cr4   O11   S    
C5    C9    S    
C29   C30   S    
C27   H8    S    
Cr3   O20   S    
C29   H14   S    
Cr2   O19   S    
C47   C48   S    
C10   H3    S    
C17   C18   A    
Cr1   O4    S    
C34   C45   T    
C11   C39   S    
C18   H5    S    
Cr3   O21   S    
C32   O24   A    
C8    H10   S    
C22   C27   A    
C40   O17   A    
Cr1   O1    S    
C42   C43   S    
Cr4   O5    S    
C39   O20   A    
Cr6   O10   S    
C30   H15   S    
C25   C30   S    
C1    O4    A    
C14   C19   S    
C28   C31   S    
C9    H17   S    
Cr1   O17   S    
C3    C5    A    
C36   O7    A    
Cr3   O16   S    
C6    C10   S    
C38   O5    A    
C35   O23   A    
C2    C47   T    
Cr5   O11   S    
C33   C41   S    
C23   C32   S    
C36   O6    A    
C21   C40   S    
Cr4   O24   S    
C28   O19   A    
C22   C24   A    
Cr2   O14   S    
Cr3   O22   S    
Cr6   O3    S    
C33   O2    A    
C15   C21   A    
C3    C37   S    
C16   O16   A    
C14   C15   A    
C19   H6    S    
C28   O18   A    
C35   C46   S    
Cr6   O9    S    
