data_mof_unit_35720.cif
_audit_creation_date              2012-12-10T20:31:57-0500
_audit_creation_method            fapswitch 2.2
_symmetry_space_group_name_H-M    P1
_symmetry_Int_Tables_number       1
_space_group_crystal_system       triclinic
_cell_length_a                    9.878252
_cell_length_b                    10.689708
_cell_length_c                    15.414557
_cell_angle_alpha                 90.115095
_cell_angle_beta                  67.528435
_cell_angle_gamma                 89.708472
_cell_volume                      1504.08352655

loop_
_atom_site_label
_atom_site_type_symbol
_atom_type_description
_atom_site_fract_x
_atom_site_fract_y
_atom_site_fract_z
_atom_type_partial_charge
C1    C     C_R   0.501310 0.739955 0.497258 0.876565
C2    C     C_R   0.403763 0.442096 0.916957 0.096556
C3    C     C_R   0.256866 0.474074 0.973750 0.175330
C4    C     C_R   0.505601 0.416165 0.958861 0.057963
C5    C     C_R   0.466697 0.447366 0.054304 0.071396
C6    C     C_R   0.317502 0.466356 0.110914 -0.217173
C7    C     C_R   0.213425 0.478938 0.071066 -0.248839
C8    C     C_R   0.644034 0.360069 0.909347 -0.227755
C9    C     C_R   0.742557 0.340600 0.952732 -0.217000
C10   C     C_R   0.710866 0.386076 0.043277 0.132387
C11   C     C_R   0.577179 0.450717 0.091375 0.081183
C12   C     C_R   0.408240 0.497214 0.676368 0.892960
C13   C     C_R   0.810528 0.367684 0.086759 -0.227151
C14   C     C_R   0.776032 0.410246 0.178104 -0.243495
C15   C     C_R   0.562357 0.519282 0.173048 0.092895
C16   C     C_R   0.384699 0.937076 0.486854 0.080781
C17   C     C_R   0.508605 0.871325 0.483395 -0.077097
C18   C     C_R   0.641242 0.934493 0.463695 -0.216380
C19   C     C_R   0.641224 0.063932 0.464548 -0.215507
C20   C     C_R   0.508411 0.128496 0.485799 -0.077417
C21   C     C_R   0.383930 0.064338 0.489929 0.066766
C22   C     C_3   0.227633 0.070936 0.557813 0.006382
C23   C     C_R   0.501607 0.260095 0.497828 0.914664
C24   C     C_3   0.228567 0.928924 0.553614 -0.507894
C25   C     C_R   0.880119 0.515974 0.581676 0.224530
C26   C     C_R   0.975373 0.472725 0.420718 -0.150930
C27   C     C_R   0.119046 0.472426 0.420780 -0.138480
C28   C     C_R   0.022432 0.515491 0.581793 0.232504
C29   C     C_3   0.989011 0.625891 0.645904 -0.520563
C30   C     C_3   0.835704 0.626765 0.645350 -0.493760
C31   C     C_R   0.591900 0.499844 0.323771 0.848089
C32   C     C_R   0.350502 0.483853 0.778385 -0.047695
C33   C     C_R   0.649933 0.483310 0.222200 -0.100063
C34   C     C_R   0.156672 0.502953 0.932111 -0.207077
C35   C     C_R   0.203397 0.507729 0.834593 -0.171172
C36   C     C_R   0.447768 0.447479 0.819684 -0.254665
H1    H     H_    0.100206 0.497055 0.116120 0.150566
H2    H     H_    0.910719 0.314652 0.052210 0.160010
H3    H     H_    0.742129 0.884912 0.453556 0.168003
H4    H     H_    0.742221 0.112339 0.454375 0.168291
H5    H     H_    0.155038 0.114266 0.525980 0.145914
H6    H     H_    0.216719 0.882467 0.620584 0.223401
H7    H     H_    0.157100 0.891551 0.518886 0.181910
H8    H     H_    0.959779 0.452637 0.356374 0.141513
H9    H     H_    0.210693 0.451314 0.356438 0.147472
H10   H     H_    0.990437 0.602083 0.715575 0.200043
H11   H     H_    0.054155 0.709056 0.612074 0.214102
H12   H     H_    0.749764 0.603634 0.714740 0.204858
H13   H     H_    0.811890 0.710504 0.610736 0.217443
H14   H     H_    0.845615 0.383657 0.214972 0.158815
H15   H     H_    0.845162 0.292510 0.914549 0.172596
H16   H     H_    0.043969 0.526579 0.974817 0.151979
H17   H     H_    0.126144 0.533882 0.803515 0.149324
H18   H     H_    0.560619 0.430753 0.774794 0.152702
H19   H     H_    0.279528 0.466410 0.186448 0.135792
H20   H     H_    0.675176 0.323637 0.838969 0.157671
N1    N     N_R   0.856900 0.500860 0.500610 -0.104399
N2    N     N_R   0.142540 0.500820 0.500610 -0.101773
O1    O     O_R   0.385310 0.683210 0.499990 -0.615619
O2    O     O_R   0.614650 0.683240 0.500000 -0.619629
O3    O     O_R   0.319830 0.499970 0.632240 -0.599561
O4    O     O_R   0.549170 0.500000 0.632250 -0.617543
O5    O     O_R   0.385350 0.316760 0.500000 -0.601233
O6    O     O_R   0.614690 0.316790 0.500010 -0.621381
O7    O     O_R   0.450830 0.500000 0.367750 -0.625355
O8    O     O_R   0.680170 0.500030 0.367760 -0.618886
Zn1   Zn    Zn3+2 0.346870 0.499980 0.499990 0.950541
Zn2   Zn    Zn3+2 0.653130 0.500020 0.500010 0.940092
I1    I     I_    0.196832 0.140999 0.695178 -0.409046
C37   C     C_3   0.477474 0.643290 0.199379 -0.390217
C38   C     C_3   0.521898 0.734153 0.116794 -0.842783
H21   H     H_    0.642693 0.746302 0.086785 0.260698
H22   H     H_    0.485755 0.700298 0.061101 0.267667
H23   H     H_    0.469544 0.826695 0.141428 0.248470
H24   H     H_    0.357499 0.630849 0.228786 0.203366
H25   H     H_    0.501869 0.691780 0.255553 0.203352

loop_
_geom_bond_atom_site_label_1
_geom_bond_atom_site_label_2
_ccdc_geom_bond_type
C8    C9    A    
C31   O8    A    
O8    Zn2   S    
C16   C21   A    
C35   H17   S    
C24   H6    S    
C19   C20   A    
C9    H15   S    
C6    H19   S    
C4    C8    A    
C8    H20   S    
C14   C33   A    
C26   H8    S    
C25   C28   A    
C26   C27   A    
C29   H11   S    
C32   C36   A    
C30   H12   S    
C28   C29   S    
C5    C11   A    
C3    C7    A    
C1    O1    A    
C5    C6    A    
C22   H5    S    
C34   C35   A    
O1    Zn1   S    
C11   C15   A    
C16   C17   A    
O7    Zn1   S    
C31   C33   S    
C37   C38   S    
C9    C10   A    
C22   I1    S    
C27   H9    S    
C23   O5    A    
C16   C24   S    
C21   C22   S    
C12   C32   S    
C25   N1    A    
O5    Zn1   S    
C32   C35   A    
C19   H4    S    
C1    O2    A    
C38   H22   S    
C18   C19   A    
C3    C34   A    
C27   N2    A    
C2    C4    A    
C18   H3    S    
C29   C30   S    
C12   O4    A    
O3    Zn1   S    
C20   C23   S    
C17   C18   A    
C7    H1    S    
C13   H2    S    
C23   O6    A    
C30   H13   S    
C37   H25   S    
C22   C24   S    
N1    Zn2   S    
O6    Zn2   S    
C2    C36   A    
C25   C30   S    
C31   O7    A    
C15   C37   S    
C34   H16   S    
C4    C5    A    
C10   C13   A    
C38   H23   S    
C6    C7    A    
C28   N2    A    
C1    C17   S    
O4    Zn2   S    
C29   H10   S    
C2    C3    A    
C38   H21   S    
C12   O3    A    
C14   H14   S    
C26   N1    A    
C36   H18   S    
C10   C11   A    
N2    Zn1   S    
C20   C21   A    
O2    Zn2   S    
C37   H24   S    
C24   H7    S    
C13   C14   A    
C15   C33   A    
