data_mof_unit_27595.cif
_audit_creation_date              2012-12-11T15:39:24-0500
_audit_creation_method            fapswitch 2.2
_symmetry_space_group_name_H-M    P1
_symmetry_Int_Tables_number       1
_space_group_crystal_system       triclinic
_cell_length_a                    14.349294
_cell_length_b                    14.793797
_cell_length_c                    33.196033
_cell_angle_alpha                 97.672544
_cell_angle_beta                  90.328695
_cell_angle_gamma                 118.907099
_cell_volume                      6093.54641044

loop_
_atom_site_label
_atom_site_type_symbol
_atom_type_description
_atom_site_fract_x
_atom_site_fract_y
_atom_site_fract_z
_atom_type_partial_charge
C1    C     C_R   0.616817 0.910392 0.436953 0.549198
C2    C     C_R   0.712345 0.437916 0.949177 0.534099
C3    C     C_R   0.769567 0.810515 0.762284 -0.110324
C4    C     C_R   0.761120 0.830354 0.723047 -0.112689
C5    C     C_R   0.681943 0.753432 0.693942 0.033666
C6    C     C_R   0.613246 0.654643 0.704609 -0.109412
C7    C     C_R   0.622224 0.634358 0.744068 -0.111296
C8    C     C_R   0.699844 0.712690 0.773471 0.034971
C9    C     C_R   0.562723 0.752502 0.638744 -0.128573
C10   C     C_R   0.547850 0.790894 0.604615 -0.148890
C11   C     C_R   0.739506 0.883621 0.599186 0.084949
C12   C     C_R   0.743011 0.716538 0.945876 0.565363
C13   C     C_R   0.824602 0.430452 0.163597 -0.089653
C14   C     C_R   0.826974 0.452290 0.123982 -0.120032
C15   C     C_R   0.749632 0.314517 0.241418 0.099803
C16   C     C_R   0.744567 0.306678 0.282817 -0.087877
C17   C     C_R   0.720674 0.372846 0.309832 0.006805
C18   C     C_R   0.705194 0.449588 0.295330 -0.123581
C19   C     C_R   0.710811 0.458299 0.254124 -0.139186
C20   C     C_R   0.731439 0.390174 0.226896 0.033036
C21   C     C_R   0.730599 0.398573 0.183516 0.053440
C22   C     C_R   0.604858 0.341292 0.367484 -0.113965
C23   C     C_R   0.594134 0.205631 0.456691 0.542628
C24   C     C_R   0.573322 0.299961 0.403470 -0.124016
C25   C     C_R   0.736728 0.290689 0.410511 -0.123817
C26   C     C_R   0.767935 0.331589 0.374496 -0.120374
C27   C     C_R   0.700128 0.352966 0.351910 0.032831
C28   C     C_R   0.636856 0.269968 0.424259 0.022207
C29   C     C_R   0.245301 0.878212 0.393304 0.021092
C30   C     C_R   0.232596 0.959244 0.380821 -0.123968
C31   C     C_R   0.209101 0.957197 0.339706 -0.112784
C32   C     C_R   0.753610 0.844582 0.633557 -0.094480
C33   C     C_R   0.197394 0.873999 0.310675 0.039877
C34   C     C_R   0.203045 0.789890 0.323079 -0.112211
C35   C     C_R   0.295717 0.892812 0.434369 0.544321
C36   C     C_R   0.226615 0.791739 0.364165 -0.126695
C37   C     C_R   0.196833 0.808671 0.163026 -0.108096
C38   C     C_R   0.168464 0.786999 0.121182 -0.123120
C39   C     C_R   0.090251 0.900871 0.129692 -0.127867
C40   C     C_R   0.118212 0.921971 0.171657 -0.113640
C41   C     C_R   0.168043 0.872840 0.188492 0.040291
C42   C     C_1   0.179244 0.878255 0.231886 -0.026281
C43   C     C_R   0.665816 0.780955 0.654170 0.008140
C44   C     C_1   0.186793 0.877650 0.267968 -0.026600
C45   C     C_R   0.110696 0.829231 0.104361 0.019891
C46   C     C_R   0.636796 0.879559 0.395195 0.021384
C47   C     C_R   0.614333 0.904457 0.551334 0.562725
C48   C     C_R   0.551540 0.802062 0.368022 -0.129194
C49   C     C_R   0.563181 0.791200 0.326226 -0.116028
C50   C     C_R   0.660134 0.856970 0.311316 0.038468
C51   C     C_R   0.747566 0.928983 0.338314 -0.112114
C52   C     C_R   0.736153 0.940144 0.380087 -0.122168
C53   C     C_R   0.776307 0.923524 0.174115 -0.089697
C54   C     C_R   0.635584 0.859007 0.585009 0.028670
C55   C     C_R   0.792091 0.909142 0.132799 -0.115712
C56   C     C_R   0.617877 0.753438 0.121296 -0.123212
C57   C     C_R   0.602198 0.768202 0.162519 -0.112617
C58   C     C_R   0.682956 0.850959 0.189156 0.046788
C59   C     C_R   0.589751 0.199557 0.570851 0.539245
C60   C     C_1   0.674440 0.854725 0.232210 -0.018445
C61   C     C_1   0.667955 0.855466 0.268292 -0.023784
C62   C     C_R   0.714878 0.821244 0.106390 0.020925
C63   C     C_R   0.623637 0.251284 0.613611 0.017855
C64   C     C_R   0.559027 0.283349 0.636092 -0.126976
C65   C     C_R   0.052159 0.781364 0.063783 0.543551
C66   C     C_R   0.576319 0.308806 0.678477 -0.113925
C67   C     C_R   0.658378 0.302812 0.698740 0.039995
C68   C     C_R   0.727800 0.278413 0.676483 -0.112605
C69   C     C_R   0.710908 0.253197 0.634081 -0.126579
C70   C     C_R   0.763679 0.347485 0.844786 -0.115381
C71   C     C_R   0.288919 0.886783 0.548475 0.544116
C72   C     C_R   0.772812 0.372572 0.887181 -0.128401
C73   C     C_R   0.593864 0.350444 0.884794 -0.124753
C74   C     C_R   0.584960 0.325295 0.842407 -0.112495
C75   C     C_R   0.671298 0.327623 0.822339 0.041726
C76   C     C_R   0.743656 0.486019 0.065940 0.547060
C77   C     C_1   0.668331 0.318516 0.778794 -0.029261
C78   C     C_1   0.665186 0.312496 0.742308 -0.029638
C79   C     C_R   0.689844 0.379137 0.907460 0.021670
C80   C     C_R   0.066537 0.752368 0.908027 0.019239
C81   C     C_R   0.105015 0.851356 0.896442 -0.142373
C82   C     C_R   0.121894 0.863692 0.855774 -0.127821
C83   C     C_R   0.735568 0.443740 0.104134 0.020544
C84   C     C_R   0.100869 0.777253 0.826355 0.028626
C85   C     C_R   0.069666 0.680035 0.838567 -0.119102
C86   C     C_R   0.053212 0.667809 0.879137 -0.121108
C87   C     C_R   0.742880 0.789355 0.066367 0.553124
C88   C     C_R   0.150345 0.735929 0.757445 -0.112042
C89   C     C_R   0.153866 0.742625 0.716117 -0.111466
C90   C     C_R   0.113165 0.799886 0.699285 0.031851
C91   C     C_R   0.067572 0.849395 0.724411 -0.109137
C92   C     C_R   0.064318 0.842908 0.765925 -0.112047
C93   C     C_R   0.106195 0.786468 0.782755 0.032537
C94   C     C_R   0.175645 0.918957 0.647429 -0.110736
C95   C     C_R   0.640088 0.406633 0.123555 -0.123525
C96   C     C_R   0.220011 0.940632 0.610374 -0.113819
C97   C     C_R   0.165349 0.757203 0.590009 -0.125008
C98   C     C_R   0.021955 0.732261 0.947487 0.530909
C99   C     C_R   0.120274 0.735470 0.626878 -0.119519
C100  C     C_R   0.130727 0.817115 0.656750 0.030805
C101  C     C_R   0.220441 0.860738 0.582453 0.024097
C102  C     C_R   0.726049 0.701420 0.901160 0.017998
C103  C     C_R   0.625023 0.644655 0.879530 -0.122374
C104  C     C_R   0.615604 0.643222 0.837238 -0.116034
C105  C     C_R   0.707335 0.696394 0.816276 0.032960
C106  C     C_R   0.807968 0.744510 0.837826 -0.114726
C107  C     C_R   0.637791 0.384449 0.163071 -0.110439
C108  C     C_R   0.816779 0.748903 0.879691 -0.126161
Cr1   Cr    Cr6+3 0.424820 0.846020 0.489780 1.015173
Cr2   Cr    Cr6+3 0.657880 0.078580 0.505700 1.041029
Cr3   Cr    Cr6+3 0.417280 0.075360 0.504550 1.021342
Cr4   Cr    Cr6+3 0.903360 0.812540 0.006510 1.010334
Cr5   Cr    Cr6+3 0.914630 0.587050 0.006280 1.008686
Cr6   Cr    Cr6+3 0.673560 0.582680 0.008540 1.012148
H1    H     H_    0.568483 0.399144 0.108950 0.130331
H2    H     H_    0.095519 0.971720 0.191169 0.109845
H3    H     H_    0.044946 0.933821 0.117727 0.126021
H4    H     H_    0.901852 0.481289 0.109833 0.132322
H5    H     H_    0.204456 0.022466 0.330393 0.109402
H6    H     H_    0.867752 0.962388 0.122258 0.128541
H7    H     H_    0.839170 0.987927 0.194635 0.130556
H8    H     H_    0.823118 0.979702 0.326953 0.112839
H9    H     H_    0.803285 0.000374 0.400239 0.133795
H10   H     H_    0.473895 0.754618 0.378652 0.127043
H11   H     H_    0.529563 0.711886 0.173968 0.106676
H12   H     H_    0.496289 0.285435 0.413516 0.128537
H13   H     H_    0.556850 0.685280 0.101646 0.124103
H14   H     H_    0.495251 0.734864 0.305438 0.107555
H15   H     H_    0.847864 0.394428 0.903658 0.125159
H16   H     H_    0.842442 0.341500 0.363168 0.108834
H17   H     H_    0.830759 0.349052 0.829425 0.105139
H18   H     H_    0.791783 0.273990 0.692001 0.112637
H19   H     H_    0.762089 0.228859 0.617691 0.141161
H20   H     H_    0.491390 0.282930 0.621243 0.128709
H21   H     H_    0.512947 0.309560 0.825175 0.105527
H22   H     H_    0.528640 0.355009 0.899388 0.128323
H23   H     H_    0.897093 0.442769 0.179348 0.132078
H24   H     H_    0.522565 0.328224 0.695552 0.103765
H25   H     H_    0.115974 0.917591 0.918353 0.119817
H26   H     H_    0.022464 0.590379 0.887223 0.125146
H27   H     H_    0.083725 0.655943 0.633186 0.108859
H28   H     H_    0.753986 0.245311 0.293535 0.134035
H29   H     H_    0.192294 0.706266 0.697612 0.103170
H30   H     H_    0.184423 0.693181 0.769797 0.102714
H31   H     H_    0.148088 0.939875 0.847100 0.107001
H32   H     H_    0.035743 0.893951 0.712023 0.103077
H33   H     H_    0.028855 0.881743 0.784777 0.089218
H34   H     H_    0.788098 0.269651 0.426224 0.128885
H35   H     H_    0.184828 0.983273 0.670037 0.106913
H36   H     H_    0.261256 0.021066 0.605074 0.132855
H37   H     H_    0.052167 0.611994 0.816414 0.104179
H38   H     H_    0.553713 0.606213 0.895413 0.123129
H39   H     H_    0.895122 0.792565 0.895640 0.136762
H40   H     H_    0.833690 0.865227 0.644566 0.129278
H41   H     H_    0.813574 0.907867 0.716089 0.103244
H42   H     H_    0.828561 0.873729 0.784342 0.098087
H43   H     H_    0.536723 0.605164 0.821433 0.101497
H44   H     H_    0.551881 0.593649 0.682579 0.102696
H45   H     H_    0.185248 0.731585 0.102447 0.126835
H46   H     H_    0.568244 0.557939 0.751628 0.098104
H47   H     H_    0.493648 0.704699 0.654250 0.110878
H48   H     H_    0.467125 0.770380 0.594553 0.136172
H49   H     H_    0.880287 0.782913 0.822588 0.110054
H50   H     H_    0.564724 0.359895 0.178309 0.114122
H51   H     H_    0.686704 0.501246 0.315743 0.115782
H52   H     H_    0.697326 0.517238 0.243246 0.115466
H53   H     H_    0.551131 0.356903 0.350353 0.107900
H54   H     H_    0.162610 0.693920 0.568503 0.128759
H55   H     H_    0.235644 0.770476 0.175793 0.111701
H56   H     H_    0.193710 0.724918 0.300777 0.109761
H57   H     H_    0.236258 0.728396 0.372679 0.125685
H58   H     H_    0.246669 0.027078 0.402437 0.128452
I1    I     I_    0.774292 0.203306 0.202363 -0.443725
I2    I     I_    0.879191 0.975311 0.570356 -0.394659
O1    O     O_R   0.318160 0.824460 0.443680 -0.520586
O2    O     O_R   0.668160 0.499860 0.053480 -0.516402
O3    O     O_R   0.689170 0.693840 0.050110 -0.495564
O4    O     O_R   0.525040 0.857250 0.449830 -0.503415
O5    O     O_R   0.803860 0.812940 0.962540 -0.505811
O6    O     O_R   0.982950 0.787950 0.964120 -0.527497
O7    O     O_R   0.007050 0.649970 0.960540 -0.515586
O8    O     O_R   0.807910 0.482370 0.965590 -0.503825
O9    O     O_R   0.643310 0.460980 0.963840 -0.524779
O10   O     O_R   0.666140 0.657800 0.967020 -0.499262
O11   O     O_3   0.830520 0.660760 0.007110 -0.262943
O12   O     O_R   0.645130 0.163230 0.552140 -0.500565
O13   O     O_R   0.684760 0.998800 0.456360 -0.507990
O14   O     O_R   0.647540 0.166310 0.470260 -0.503192
O15   O     O_R   0.500960 0.181750 0.467450 -0.518368
O16   O     O_R   0.331100 0.981120 0.457080 -0.498677
O17   O     O_R   0.315560 0.821140 0.532010 -0.521925
O18   O     O_R   0.522630 0.854180 0.531710 -0.507473
O19   O     O_R   0.682160 0.995480 0.544690 -0.474259
O20   O     O_R   0.498360 0.178430 0.555780 -0.518389
O21   O     O_R   0.328690 0.978040 0.538950 -0.497821
O22   O     O_3   0.499990 0.999990 0.500010 -0.242936
O23   O     O_R   0.828710 0.851830 0.052170 -0.512481
O24   O     O_R   0.005980 0.823990 0.047210 -0.500388
O25   O     O_R   0.031900 0.688850 0.050170 -0.514906
O26   O     O_R   0.830940 0.518420 0.048680 -0.498038

loop_
_geom_bond_atom_site_label_1
_geom_bond_atom_site_label_2
_ccdc_geom_bond_type
C41   C42   S    
C73   C74   A    
C19   C20   A    
C104  H43   S    
C8    C105  S    
C81   C82   A    
C57   C58   A    
C72   H15   S    
C12   O10   A    
C77   C78   T    
C25   C28   A    
C29   C36   A    
Cr2   O14   S    
C26   C27   A    
C37   C38   A    
Cr6   O11   S    
C59   O12   A    
C92   C93   A    
Cr4   O11   S    
C38   H45   S    
C72   C79   A    
C57   H11   S    
C5    C6    A    
C52   H9    S    
C1    C46   S    
Cr1   O18   S    
C58   C60   S    
C15   C16   A    
C55   C62   A    
C46   C52   A    
C56   C57   A    
Cr1   O22   S    
C17   C18   A    
C18   C19   A    
C2    O8    A    
C56   H13   S    
Cr4   O24   S    
C47   O18   A    
C68   H18   S    
C70   H17   S    
C38   C45   A    
C80   C86   A    
C2    C79   S    
C103  C104  A    
C97   C99   A    
C65   O25   A    
Cr1   O4    S    
Cr5   O26   S    
Cr5   O7    S    
C108  H39   S    
C63   C69   A    
C95   H1    S    
C16   C17   A    
C14   H4    S    
C31   C33   A    
C102  C108  A    
C19   H52   S    
C25   H34   S    
C9    C10   A    
C34   H56   S    
C86   H26   S    
Cr3   O22   S    
Cr4   O6    S    
C56   C62   A    
C1    O13   A    
Cr6   O2    S    
C66   C67   A    
C71   C101  S    
C96   H36   S    
C10   H48   S    
C13   C14   A    
C9    H47   S    
C92   H33   S    
C24   H12   S    
C67   C78   S    
C42   C44   T    
C14   C83   A    
C76   C83   S    
C90   C100  S    
C104  C105  A    
C6    H44   S    
C18   H51   S    
C99   H27   S    
C50   C51   A    
C46   C48   A    
C55   H6    S    
C53   C55   A    
C59   O20   A    
Cr5   O25   S    
C15   C20   A    
C64   H20   S    
Cr2   O13   S    
C9    C43   A    
C74   C75   A    
C15   I1    S    
C67   C68   A    
C17   C27   S    
C76   O2    A    
C96   C101  A    
C84   C85   A    
C3    C8    A    
C76   O26   A    
C65   O24   A    
C91   C92   A    
C68   C69   A    
C7    H46   S    
C25   C26   A    
C39   H3    S    
C51   C52   A    
C60   C61   T    
C94   H35   S    
C13   H23   S    
C16   H28   S    
C85   H37   S    
C12   C102  S    
C29   C30   A    
C87   O3    A    
C1    O4    A    
C71   O21   A    
Cr5   O8    S    
C66   H24   S    
C73   H22   S    
C94   C100  A    
C30   C31   A    
Cr6   O3    S    
C83   C95   A    
C74   H21   S    
C12   O5    A    
Cr2   O19   S    
C33   C34   A    
C73   C79   A    
C13   C21   A    
C107  H50   S    
C21   C107  A    
C23   C28   S    
C20   C21   S    
C94   C96   A    
C75   C77   S    
C30   H58   S    
C85   C86   A    
Cr5   O11   S    
C11   C54   A    
C95   C107  A    
C103  H38   S    
C47   C54   S    
C32   H40   S    
C23   O14   A    
C40   C41   A    
C106  H49   S    
C11   C32   A    
Cr3   O15   S    
C35   O16   A    
C82   C84   A    
C22   C27   A    
Cr4   O5    S    
C45   C65   S    
C22   C24   A    
C22   H53   S    
C98   O6    A    
C3    C4    A    
Cr4   O23   S    
C23   O15   A    
C82   H31   S    
C105  C106  A    
Cr2   O12   S    
C81   H25   S    
C49   H14   S    
C88   C93   A    
C48   C49   A    
C11   I2    S    
C69   H19   S    
C80   C98   S    
C33   C44   S    
C50   C61   S    
C47   O19   A    
C24   C28   A    
C80   C81   A    
C26   H16   S    
C48   H10   S    
C70   C72   A    
C53   C58   A    
Cr1   O1    S    
C6    C7    A    
C97   H54   S    
C62   C87   S    
C29   C35   S    
C59   C63   S    
C84   C93   S    
C99   C100  A    
C39   C45   A    
C35   O1    A    
C98   O7    A    
C89   H29   S    
C37   H55   S    
C36   H57   S    
C90   C91   A    
C40   H2    S    
C106  C108  A    
Cr1   O17   S    
Cr6   O10   S    
C3    H42   S    
C32   C43   A    
Cr2   O22   S    
C34   C36   A    
C2    O9    A    
C37   C41   A    
C102  C103  A    
C10   C54   A    
C7    C8    A    
Cr3   O20   S    
C63   C64   A    
C39   C40   A    
C4    C5    A    
C4    H41   S    
C88   C89   A    
Cr3   O16   S    
C49   C50   A    
Cr3   O21   S    
C70   C75   A    
C51   H8    S    
C87   O23   A    
C5    C43   S    
C53   H7    S    
C71   O17   A    
C89   C90   A    
C31   H5    S    
C88   H30   S    
C91   H32   S    
C97   C101  A    
Cr6   O9    S    
C64   C66   A    
