data_mof_unit_28947.cif
_audit_creation_date              2012-12-10T17:21:41-0500
_audit_creation_method            fapswitch 2.2
_symmetry_space_group_name_H-M    P1
_symmetry_Int_Tables_number       1
_space_group_crystal_system       triclinic
_cell_length_a                    10.747699
_cell_length_b                    10.899229
_cell_length_c                    9.59182
_cell_angle_alpha                 90.378255
_cell_angle_beta                  89.416301
_cell_angle_gamma                 93.304758
_cell_volume                      1121.65437596

loop_
_atom_site_label
_atom_site_type_symbol
_atom_type_description
_atom_site_fract_x
_atom_site_fract_y
_atom_site_fract_z
_atom_type_partial_charge
C1    C     C_R   0.490787 0.262396 0.498678 0.825971
C2    C     C_3   0.878544 0.496290 0.500598 0.133699
C3    C     C_3   0.936391 0.623591 0.457293 -0.440903
C4    C     C_3   0.924038 0.397771 0.397790 -0.387875
C5    C     C_R   0.319203 0.121062 0.684009 -0.197476
C6    C     C_R   0.248845 0.056313 0.784229 -0.232646
C7    C     C_R   0.251868 0.928834 0.793576 0.339797
C8    C     C_R   0.326309 0.866460 0.697580 -0.179760
C9    C     C_R   0.403752 0.931325 0.598540 -0.024707
C10   C     C_R   0.401155 0.061269 0.593703 0.062938
C11   C     C_R   0.474910 0.127789 0.493226 -0.215530
C12   C     C_R   0.260058 0.496476 0.500503 0.759304
C13   C     C_R   0.538516 0.064077 0.388626 0.176196
C14   C     C_R   0.555103 0.939671 0.405157 0.247528
C15   C     C_R   0.483969 0.871121 0.504140 -0.184415
C16   C     C_R   0.675635 0.654639 0.141837 -0.135648
C17   C     C_R   0.764731 0.726536 0.068410 -0.224823
C18   C     C_R   0.761681 0.729730 0.925028 -0.227679
C19   C     C_R   0.671478 0.658800 0.854124 -0.141768
C20   C     C_R   0.584877 0.577528 0.924360 0.219154
C21   C     C_R   0.585803 0.576518 0.073825 0.203034
C22   C     C_R   0.418402 0.426822 0.074400 -0.066194
C23   C     C_R   0.492972 0.737068 0.501318 0.844134
C24   C     C_R   0.418557 0.426739 0.926437 -0.064796
C25   C     C_R   0.740126 0.497862 0.499807 0.763721
C26   C     C_3   0.068390 0.461346 0.647163 -0.455685
C27   C     C_3   0.925981 0.466409 0.648558 -0.372385
C28   C     C_3   0.080492 0.625760 0.461243 0.128196
C29   C     C_3   0.067445 0.397965 0.396279 -0.395080
C30   C     C_3   0.122296 0.495775 0.500526 0.123898
Cu1   Cu    Cu3+1 0.499990 0.499990 0.640660 0.912685
Cu2   Cu    Cu3+1 0.500010 0.500010 0.359340 0.934375
H1    H     H_    0.107815 0.524962 0.728038 0.178343
H2    H     H_    0.890929 0.414764 0.290482 0.172952
H3    H     H_    0.903728 0.645864 0.351294 0.172737
H4    H     H_    0.305735 0.218196 0.676696 0.144493
H5    H     H_    0.190193 0.106313 0.854405 0.116610
H6    H     H_    0.322725 0.767873 0.701334 0.169866
H7    H     H_    0.351624 0.366781 0.129995 0.123415
H8    H     H_    0.094129 0.367277 0.675700 0.171316
H9    H     H_    0.834772 0.782934 0.122949 0.149167
H10   H     H_    0.673949 0.671852 0.744590 0.195575
H11   H     H_    0.898927 0.537956 0.724679 0.179553
H12   H     H_    0.113614 0.690214 0.545476 0.119264
H13   H     H_    0.103083 0.415636 0.288673 0.169191
H14   H     H_    0.096811 0.305286 0.425389 0.150008
H15   H     H_    0.885848 0.306060 0.431584 0.155271
N1    N     N_R   0.501200 0.501210 0.147910 -0.200303
N2    N     N_R   0.501250 0.501290 0.852040 -0.201643
O1    O     O_R   0.499990 0.319640 0.618810 -0.577001
O2    O     O_R   0.500000 0.319660 0.381240 -0.579368
O3    O     O_R   0.317680 0.499970 0.618790 -0.613865
O4    O     O_R   0.317700 0.499990 0.381210 -0.562910
O5    O     O_R   0.500000 0.680340 0.618760 -0.617642
O6    O     O_R   0.500010 0.680360 0.381190 -0.554987
O7    O     O_R   0.682300 0.500010 0.618790 -0.602136
O8    O     O_R   0.682320 0.500030 0.381210 -0.612088
N3    N     N_2   0.135049 0.667518 0.328603 -0.404747
H16   H     H_    0.100552 0.622083 0.241305 0.260452
C31   C     C_3   0.152634 0.799077 0.310666 -0.705055
H17   H     H_    0.205776 0.818752 0.212721 0.253418
H18   H     H_    0.206785 0.841175 0.398475 0.230512
H19   H     H_    0.061162 0.840812 0.304277 0.210263
N4    N     N_2   0.581263 0.121279 0.262130 -0.423664
H20   H     H_    0.516297 0.163515 0.203599 0.269177
C32   C     C_3   0.707409 0.174646 0.256245 -0.671478
H21   H     H_    0.706275 0.275575 0.242862 0.245529
H22   H     H_    0.756846 0.135764 0.165521 0.218864
H23   H     H_    0.758720 0.154833 0.352121 0.212138
N5    N     N_2   0.183978 0.867046 0.904258 -0.431668
H24   H     H_    0.127222 0.921030 0.962926 0.239725
C33   C     C_3   0.131379 0.743719 0.880591 -0.753394
H25   H     H_    0.072590 0.714006 0.971564 0.231694
H26   H     H_    0.206557 0.678586 0.870582 0.243393
H27   H     H_    0.071922 0.741069 0.786551 0.216199
N6    N     N_2   0.654948 0.886259 0.333187 -0.416854
H28   H     H_    0.673614 0.919617 0.234497 0.289266
C34   C     C_3   0.765479 0.881854 0.417454 -0.768241
H29   H     H_    0.796442 0.974726 0.455866 0.230953
H30   H     H_    0.842225 0.846182 0.354582 0.212981
H31   H     H_    0.746114 0.821430 0.508661 0.222900
H32   H     H_    0.679581 0.665182 0.251476 0.227434
H33   H     H_    0.828596 0.788876 0.868174 0.151264
H34   H     H_    0.351677 0.366837 0.871600 0.126660
H35   H     H_    0.883018 0.376605 0.684559 0.176747
H36   H     H_    0.904707 0.694340 0.531243 0.132455

loop_
_geom_bond_atom_site_label_1
_geom_bond_atom_site_label_2
_ccdc_geom_bond_type
C32   H22   S    
C16   C21   A    
C22   N1    A    
C19   C20   A    
C1    C11   S    
C25   O7    A    
Cu1   O3    S    
C7    N5    S    
C7    C8    A    
C26   C27   S    
C20   N2    A    
C8    H6    S    
C31   H19   S    
C3    C28   S    
N6    C34   S    
C5    C6    A    
C34   H30   S    
C32   H23   S    
N3    C31   S    
C5    H4    S    
C31   H18   S    
C18   C19   A    
C27   H35   S    
C8    C9    A    
C2    C27   S    
Cu1   O7    S    
C1    O1    A    
Cu2   O6    S    
C4    C29   S    
C19   H10   S    
C21   N1    A    
C15   C23   S    
C32   H21   S    
C13   C14   A    
C3    H36   S    
Cu2   N1    S    
C25   O8    A    
Cu2   O8    S    
Cu1   N2    S    
C33   H27   S    
C12   O3    A    
C18   H33   S    
C4    H2    S    
N6    H28   S    
C33   H26   S    
C34   H29   S    
C16   C17   A    
N3    H16   S    
C28   H12   S    
C29   H13   S    
C31   H17   S    
N4    C32   S    
C2    C4    S    
Cu2   O2    S    
C29   C30   S    
C26   H1    S    
Cu1   Cu2   S    
C3    H3    S    
C16   H32   S    
C17   C18   A    
C6    H5    S    
C1    O2    A    
N5    H24   S    
C26   C30   S    
C22   C24   A    
Cu1   O1    S    
Cu2   O4    S    
C23   O5    A    
C9    C10   A    
C24   N2    A    
C12   C30   S    
C12   O4    A    
C33   H25   S    
C23   O6    A    
C6    C7    A    
C28   N3    S    
C29   H14   S    
N4    H20   S    
C28   C30   S    
C2    C3    S    
C9    C15   A    
C5    C10   A    
C11   C13   A    
C34   H31   S    
C26   H8    S    
C13   N4    S    
C22   H7    S    
C2    C25   S    
Cu1   O5    S    
C24   H34   S    
C17   H9    S    
C10   C11   A    
C27   H11   S    
C20   C21   A    
C14   C15   A    
N5    C33   S    
C14   N6    S    
C4    H15   S    
