data_mof_unit_11345.cif
_audit_creation_date              2012-12-11T17:20:17-0500
_audit_creation_method            fapswitch 2.2
_symmetry_space_group_name_H-M    P1
_symmetry_Int_Tables_number       1
_space_group_crystal_system       triclinic
_cell_length_a                    8.323146
_cell_length_b                    16.532822
_cell_length_c                    22.75841
_cell_angle_alpha                 95.548493
_cell_angle_beta                  88.553948
_cell_angle_gamma                 94.457377
_cell_volume                      3107.07712571

loop_
_atom_site_label
_atom_site_type_symbol
_atom_type_description
_atom_site_fract_x
_atom_site_fract_y
_atom_site_fract_z
_atom_type_partial_charge
Ba1   Ba    Ba6+2 0.848660 0.538140 0.472240 1.730547
Ba2   Ba    Ba6+2 0.341160 0.461930 0.527770 1.711701
C1    C     C_3   0.559496 0.834605 0.322013 0.215530
C2    C     C_R   0.107873 0.562942 0.938728 -0.033562
C3    C     C_R   0.054798 0.559640 0.879688 0.603435
C4    C     C_3   0.062590 0.726074 0.310227 0.268481
C5    C     C_R   0.951696 0.420554 0.883910 0.572768
C6    C     C_R   0.002027 0.422337 0.942906 -0.013395
C7    C     C_R   0.081139 0.493770 0.970355 -0.050687
C8    C     C_R   0.187345 0.633935 0.966982 -0.063250
C9    C     C_R   0.239205 0.636033 0.025188 -0.017211
C10   C     C_R   0.212690 0.567345 0.057316 -0.005053
C11   C     C_R   0.133302 0.496008 0.029751 -0.055483
C12   C     C_3   0.579040 0.751229 0.344797 0.337734
C13   C     C_R   0.976005 0.353538 0.974938 -0.070413
C14   C     C_R   0.027605 0.355650 0.033044 -0.079953
C15   C     C_R   0.106460 0.426736 0.061244 -0.009746
C16   C     C_3   0.011028 0.767403 0.255916 0.434167
C17   C     C_R   0.158690 0.429897 0.120180 0.570714
C18   C     C_R   0.261752 0.568966 0.116582 0.697021
C19   C     C_2   0.791156 0.446330 0.771064 -0.079886
C20   C     C_3   0.768181 0.419890 0.706205 -0.049466
C21   C     C_1   0.005569 0.512527 0.686826 0.007160
C22   C     C_2   0.048547 0.516784 0.743245 -0.099584
C23   C     C_3   0.477495 0.332518 0.347259 0.313231
C24   C     C_2   0.934243 0.484106 0.789672 0.188572
C25   C     C_R   0.424301 0.540713 0.230769 -0.119420
C26   C     C_R   0.459408 0.548674 0.291032 0.003017
C27   C     C_R   0.202799 0.478774 0.313461 -0.052719
C28   C     C_3   0.091473 0.725092 0.621889 0.255510
C29   C     C_R   0.161531 0.475397 0.253439 -0.056478
C30   C     C_R   0.272848 0.505484 0.210859 0.237854
C31   C     C_2   0.876312 0.467857 0.666037 -0.287216
C32   C     C_R   0.372752 0.734786 0.485057 -0.309503
C33   C     C_R   0.518031 0.761369 0.512079 0.016443
C34   C     C_3   0.456536 0.305177 0.280695 0.486565
C35   C     C_R   0.564636 0.845392 0.520015 -0.028524
C36   C     C_R   0.466788 0.902852 0.499298 0.333214
C37   C     C_R   0.320025 0.874089 0.472728 -0.072818
C38   C     C_R   0.272737 0.790500 0.466224 0.004676
C39   C     C_R   0.611016 0.149169 0.492683 -0.112864
C40   C     C_3   0.094338 0.803996 0.663576 0.682632
C41   C     C_R   0.668492 0.230984 0.491371 -0.008023
C42   C     C_R   0.695994 0.095898 0.523502 0.251943
C43   C     C_R   0.813022 0.259760 0.518034 -0.285395
C44   C     C_R   0.900915 0.208551 0.547413 0.003719
C45   C     C_3   0.081420 0.289005 0.688198 0.313634
C46   C     C_R   0.839852 0.127525 0.552412 0.051460
C47   C     C_3   0.939166 0.281535 0.336340 0.423367
C48   C     C_3   0.009403 0.260286 0.274091 -0.085097
C49   C     C_3   0.669980 0.629212 0.645517 0.346696
C50   C     C_3   0.697667 0.647448 0.711425 -0.330019
C51   C     C_3   0.997938 0.155124 0.381373 -0.130505
C52   C     C_3   0.915663 0.206750 0.175610 -0.117752
C53   C     C_3   0.562841 0.342574 0.183819 -0.216290
C54   C     C_3   0.283937 0.804344 0.212607 -0.119352
C55   C     C_3   0.865306 0.090691 0.650714 -0.082394
C56   C     C_3   0.094909 0.266213 0.750864 -0.327840
C57   C     C_3   0.525268 0.246634 0.662173 0.351262
C58   C     C_3   0.482751 0.164059 0.685165 -0.324424
C59   C     C_R   0.348988 0.518080 0.331702 -0.279640
H1    H     H_    0.635333 0.758681 0.388826 0.068555
H2    H     H_    0.708175 0.590327 0.732067 0.058783
H3    H     H_    0.594587 0.677987 0.732832 0.171671
H4    H     H_    0.455613 0.720941 0.349589 -0.164531
H5    H     H_    0.578047 0.829979 0.273440 0.071260
H6    H     H_    0.355884 0.334127 0.367819 0.015072
H7    H     H_    0.539093 0.394800 0.352987 -0.058153
H8    H     H_    0.343954 0.329962 0.267613 -0.069221
H9    H     H_    0.158084 0.346387 0.684047 0.088602
H10   H     H_    0.953411 0.298615 0.680663 -0.054279
H11   H     H_    0.215777 0.245906 0.758368 0.148723
H12   H     H_    0.010538 0.792885 0.701159 -0.019224
H13   H     H_    0.078199 0.320558 0.781997 0.126568
H14   H     H_    0.001855 0.216828 0.759735 0.121122
H15   H     H_    0.658535 0.254122 0.656281 -0.092478
H16   H     H_    0.468417 0.246542 0.618547 0.086640
H17   H     H_    0.514669 0.115061 0.651085 0.089970
H18   H     H_    0.351945 0.154785 0.694696 0.160327
H19   H     H_    0.961587 0.684811 0.324107 0.096663
H20   H     H_    0.550018 0.159305 0.726058 0.118979
H21   H     H_    0.004874 0.301284 0.055911 0.105953
H22   H     H_    0.915671 0.297471 0.955101 0.126857
H23   H     H_    0.834810 0.317601 0.333085 0.066222
H24   H     H_    0.299637 0.692031 0.045101 0.127773
H25   H     H_    0.514334 0.562497 0.199750 0.152067
H26   H     H_    0.210121 0.688273 0.944099 0.132918
H27   H     H_    0.168967 0.541314 0.755584 0.145610
H28   H     H_    0.701139 0.424788 0.802378 0.125958
H29   H     H_    0.042588 0.450692 0.240024 0.113437
H30   H     H_    0.378720 0.523431 0.377983 0.081657
H31   H     H_    0.167486 0.689535 0.299179 -0.005227
H32   H     H_    0.864929 0.449887 0.619099 0.080611
H33   H     H_    0.501232 0.127768 0.469702 0.145427
H34   H     H_    0.031422 0.317124 0.252347 0.069327
H35   H     H_    0.244325 0.916709 0.455909 0.125105
H36   H     H_    0.675172 0.865566 0.542395 0.171750
H37   H     H_    0.336034 0.670301 0.479395 0.079310
H38   H     H_    0.859531 0.322168 0.514645 0.087814
H39   H     H_    0.903208 0.799660 0.270400 0.122183
H40   H     H_    0.148537 0.736678 0.578671 0.023165
H41   H     H_    0.965209 0.701841 0.615776 -0.026527
H42   H     H_    0.423990 0.790792 0.764265 0.360855
H43   H     H_    0.174083 0.996044 0.653089 0.365611
H44   H     H_    0.779217 0.177743 0.346121 0.265731
H45   H     H_    0.125355 0.234563 0.278232 0.184331
H46   H     H_    0.938015 0.111811 0.410876 0.138097
H47   H     H_    0.098423 0.190080 0.405966 0.153589
H48   H     H_    0.045293 0.119314 0.341872 0.165797
H49   H     H_    0.907675 0.142874 0.249828 0.256904
H50   H     H_    0.039249 0.195756 0.158849 0.167377
H51   H     H_    0.883826 0.267538 0.164906 0.124210
H52   H     H_    0.828963 0.160087 0.153160 0.112199
H53   H     H_    0.402795 0.149055 0.173508 0.351168
H54   H     H_    0.699727 0.319935 0.254086 0.210418
H55   H     H_    0.661066 0.382108 0.164978 0.109793
H56   H     H_    0.776799 0.602564 0.623977 -0.072105
H57   H     H_    0.446899 0.368375 0.176672 0.147695
H58   H     H_    0.563244 0.280581 0.160304 0.143806
H59   H     H_    0.551865 0.013652 0.329525 0.373620
H60   H     H_    0.145953 0.879811 0.268643 0.238031
H61   H     H_    0.372261 0.858260 0.212927 0.089725
H62   H     H_    0.269574 0.780900 0.165844 0.211498
H63   H     H_    0.333288 0.757487 0.237202 0.107303
H64   H     H_    0.921144 0.019683 0.573464 0.297311
H65   H     H_    0.753547 0.051281 0.657416 0.149617
H66   H     H_    0.841204 0.154834 0.664318 0.052291
H67   H     H_    0.567131 0.583518 0.639056 0.102785
H68   H     H_    0.960434 0.074818 0.679787 0.155845
H69   H     H_    0.963542 0.778891 0.125507 0.344160
H70   H     H_    0.434312 0.851471 0.331836 0.009164
H71   H     H_    0.809826 0.687350 0.719254 0.097566
N1    N     N_R   0.979506 0.488489 0.852113 -0.425431
N2    N     N_R   0.231530 0.501247 0.148251 -0.416550
N3    N     N_2   0.512977 0.988512 0.501416 -0.164699
N4    N     N_2   0.645366 0.010945 0.524919 -0.182026
N5    N     N_2   0.881288 0.208601 0.364140 -0.442394
N6    N     N_2   0.904777 0.201755 0.238682 -0.398235
N7    N     N_2   0.589427 0.339761 0.246140 -0.462587
N8    N     N_2   0.132400 0.829289 0.238298 -0.441693
N9    N     N_2   0.918820 0.079893 0.589581 -0.393972
O1    O     O_2   0.899090 0.455560 0.360740 -0.484393
O2    O     O_2   0.235757 0.210850 0.539371 -0.466722
O3    O     O_3   0.133829 0.226104 0.648210 -0.597056
O4    O     O_3   0.139470 0.456390 0.431790 -0.446222
O5    O     O_3   0.555510 0.597400 0.529070 -0.498424
O6    O     O_2   0.384010 0.302440 0.472310 -0.445373
O7    O     O_3   0.566718 0.278271 0.374232 -0.611697
O8    O     O_2   0.444556 0.466892 0.709498 -0.497420
O9    O     O_3   0.467852 0.309053 0.701933 -0.593464
O10   O     O_2   0.073979 0.620623 0.853213 -0.571550
O11   O     O_2   0.884330 0.357659 0.860785 -0.614103
O12   O     O_3   0.637903 0.701584 0.622082 -0.562362
O13   O     O_2   0.141127 0.368530 0.146210 -0.635424
O14   O     O_2   0.328537 0.631555 0.140301 -0.579832
O15   O     O_3   0.652060 0.602710 0.395680 -0.501594
O16   O     O_2   0.796836 0.559925 0.293882 -0.442833
O17   O     O_3   0.058384 0.325049 0.372100 -0.637839
O18   O     O_3   0.672679 0.703820 0.304322 -0.597497
O19   O     O_2   0.805680 0.697590 0.527730 -0.452049
O20   O     O_3   0.061950 0.644310 0.424380 -0.506455
O21   O     O_2   0.939795 0.787345 0.455103 -0.384972
O22   O     O_2   0.414724 0.840824 0.647066 -0.277848
O23   O     O_3   0.102495 0.787370 0.355796 -0.634346
O24   O     O_2   0.283176 0.914063 0.731716 -0.286840
O25   O     O_3   0.336704 0.763328 0.739113 -0.499121
O26   O     O_2   0.956591 0.854196 0.568634 -0.329411
O27   O     O_2   0.891700 0.920160 0.665747 -0.333632
O28   O     O_3   0.173397 0.957464 0.617049 -0.487944
O29   O     O_2   0.344073 0.158060 0.315851 -0.306053
O30   O     O_2   0.592316 0.159892 0.257554 -0.310799
O31   O     O_3   0.325686 0.171247 0.203575 -0.535839
O32   O     O_2   0.766251 0.898060 0.409067 -0.263715
O33   O     O_2   0.825301 0.937650 0.309667 -0.303776
O34   O     O_2   0.290610 0.544470 0.639300 -0.432658
O35   O     O_3   0.587115 0.999958 0.368373 -0.493515
O36   O     O_2   0.997342 0.613988 0.200906 -0.296863
O37   O     O_2   0.762704 0.690758 0.191962 -0.275366
O38   O     O_3   0.013540 0.727241 0.129304 -0.506088
O39   O     O_3   0.050220 0.543670 0.568220 -0.501424
O40   O     O_3   0.537630 0.397360 0.604330 -0.492165
O41   O     O_3   0.179517 0.670994 0.648122 -0.592281
O42   O     O_3   0.634180 0.402670 0.470930 -0.467958
O43   O     O_3   0.127750 0.355750 0.575620 -0.491768
P1    P     P_3+3 0.070660 0.431690 0.369620 0.971531
P2    P     P_3+3 0.630590 0.685720 0.544880 1.080694
P3    P     P_3+3 0.090993 0.750893 0.426063 1.023889
P4    P     P_3+3 0.119040 0.568370 0.630390 1.007246
P5    P     P_3+3 0.099002 0.249811 0.576654 0.997689
P6    P     P_3+3 0.646691 0.601572 0.319523 1.020549
P7    P     P_3+3 0.564807 0.301479 0.451103 1.010680
P8    P     P_3+3 0.554483 0.402011 0.681074 0.933761
S1    S     S_3+6 0.288842 0.833570 0.695111 -0.010403
S2    S     S_3+6 0.024016 0.885215 0.627654 -0.096047
S3    S     S_3+6 0.432260 0.195412 0.265525 -0.089083
S4    S     S_3+6 0.692761 0.917587 0.353130 -0.086166
S5    S     S_3+6 0.943474 0.696915 0.194165 -0.059995

loop_
_geom_bond_atom_site_label_1
_geom_bond_atom_site_label_2
_ccdc_geom_bond_type
C42   N4    S    
C19   C24   D    
C58   H18   S    
O33   S4    D    
C18   O14   D    
C47   N5    S    
Ba1   O15   S    
C28   O41   S    
Ba1   O4    S    
C23   H6    S    
O25   S1    S    
O19   P2    D    
O23   P3    S    
C57   H16   S    
C35   H36   S    
Ba1   O42   S    
C5    C6    A    
C38   P3    S    
C19   H28   S    
C43   C44   A    
Ba2   O4    S    
C3    N1    Am   
C58   H17   S    
Ba2   O39   S    
C32   C38   A    
O29   S3    D    
C54   H63   S    
C47   H23   S    
C55   H68   S    
C33   C35   A    
C22   C24   S    
C32   C33   A    
O21   P3    D    
C54   N8    S    
O40   P8    S    
C48   H34   S    
O12   P2    S    
O22   S1    D    
C51   H48   S    
C13   C14   A    
C12   H1    S    
C52   H52   S    
C53   N7    S    
Ba1   Ba2   S    
C40   S2    S    
C7    C11   A    
O16   P6    D    
Ba1   O1    S    
O39   P4    S    
C15   C17   A    
O34   P4    D    
O24   S1    D    
H59   O35   S    
C39   H33   S    
H64   N9    S    
C6    C7    A    
C21   C31   D    
C46   N9    S    
C21   C22   D    
H60   N8    S    
C26   C59   A    
O7    P7    S    
C41   P7    S    
C57   C58   S    
O36   S5    D    
C19   C20   S    
C39   C41   A    
O18   P6    S    
C10   C18   A    
Ba1   O5    S    
C23   H7    S    
C16   H39   S    
C16   S5    S    
C51   N5    S    
C56   H14   S    
C44   C46   A    
C4    C16   S    
C27   C59   A    
C8    H26   S    
C40   H12   S    
C49   C50   S    
C50   H71   S    
C54   H62   S    
N3    N4    D    
O30   S3    D    
C50   H3    S    
O6    P7    D    
C55   H65   S    
C14   C15   A    
C13   H22   S    
O38   S5    S    
Ba2   O6    S    
Ba1   P2    S    
H44   N5    S    
C45   O3    S    
C5    O11   D    
C26   P6    S    
C17   N2    Am   
Ba2   O40   S    
C54   H61   S    
C40   S1    S    
H53   O31   S    
C45   H9    S    
C35   C36   A    
Ba2   O34   S    
C41   C43   A    
C58   H20   S    
C51   H46   S    
C4    H19   S    
C29   C30   A    
H49   N6    S    
C29   H29   S    
C39   C42   A    
C28   H41   S    
O32   S4    D    
C14   H21   S    
O2    P5    D    
C52   H51   S    
Ba2   O43   S    
C36   N3    S    
O35   S4    S    
C16   N8    S    
C22   H27   S    
C45   H10   S    
C1    C12   S    
C21   P4    S    
O37   S5    D    
C4    O23   S    
C52   N6    S    
C6    C13   A    
C8    C9    A    
Ba1   O20   S    
C43   H38   S    
C49   H56   S    
O26   S2    D    
C1    H70   S    
C47   O17   S    
C1    H5    S    
C49   H67   S    
C44   P5    S    
C20   P8    S    
O17   P1    S    
C37   C38   A    
C34   H8    S    
C56   H13   S    
C57   O9    S    
C31   H32   S    
C20   C31   S    
C49   O12   S    
O8    P8    D    
C25   C30   A    
O5    P2    S    
Ba1   O19   S    
C1    S4    S    
H54   N7    S    
C2    C3    A    
C50   H2    S    
O42   P7    S    
C55   H66   S    
C9    C10   A    
C48   N6    S    
C5    N1    Am   
O28   S2    S    
Ba1   P1    S    
Ba2   O5    S    
O3    P5    S    
Ba1   O39   S    
C3    O10   D    
C55   N9    S    
C12   O18   S    
C34   S3    S    
O20   P3    S    
C24   N1    S    
C45   C56   S    
C30   N2    S    
C51   H47   S    
C56   H11   S    
C36   C37   A    
C9    H24   S    
C33   P2    S    
C4    H31   S    
C28   H40   S    
C25   H25   S    
C32   H37   S    
C12   H4    S    
C27   P1    S    
C52   H50   S    
C23   O7    S    
Ba2   O42   S    
C34   N7    S    
Ba2   P4    S    
C37   H35   S    
H69   O38   S    
C23   C34   S    
O9    P8    S    
C11   C15   A    
O1    P1    D    
C42   C46   A    
C53   H58   S    
C10   C11   A    
H42   O25   S    
C27   C29   A    
C47   C48   S    
C53   H55   S    
O4    P1    S    
C25   C26   A    
C48   H45   S    
C17   O13   D    
O43   P5    S    
C28   C40   S    
O31   S3    S    
O27   S2    D    
C18   N2    Am   
C2    C7    A    
O41   P4    S    
C2    C8    A    
C57   H15   S    
C59   H30   S    
H43   O28   S    
C53   H57   S    
O15   P6    S    
