data_mof_unit_63629.cif
_audit_creation_date              2013-03-05T16:08:16-0500
_audit_creation_method            fapswitch 2.2
_symmetry_space_group_name_H-M    P1
_symmetry_Int_Tables_number       1
_space_group_crystal_system       triclinic
_cell_length_a                    21.332933
_cell_length_b                    21.332409
_cell_length_c                    47.184185
_cell_angle_alpha                 90.158258
_cell_angle_beta                  90.061206
_cell_angle_gamma                 89.96915
_cell_volume                      21472.6162342

loop_
_atom_site_label
_atom_site_type_symbol
_atom_site_description
_atom_site_fract_x
_atom_site_fract_y
_atom_site_fract_z
_atom_type_partial_charge
O1    O     O_R   0.092990 0.999980 0.476390 -0.626285
O2    O     O_R   0.000020 0.092990 0.476390 -0.612897
O3    O     O_R   0.907010 0.000020 0.476390 -0.622547
O4    O     O_R   0.999980 0.907010 0.476390 -0.623559
O5    O     O_R   0.592990 0.499980 0.976390 -0.611417
O6    O     O_R   0.500020 0.592990 0.976390 -0.624917
O7    O     O_R   0.407010 0.500020 0.976390 -0.624202
O8    O     O_R   0.499980 0.407010 0.976390 -0.623961
O9    O     O_R   0.092950 0.999960 0.523720 -0.607357
O10   O     O_R   0.000040 0.092950 0.523720 -0.624105
O11   O     O_R   0.907050 0.000040 0.523720 -0.613098
O12   O     O_R   0.999960 0.907050 0.523720 -0.607625
O13   O     O_R   0.592950 0.499960 0.023720 -0.621259
O14   O     O_R   0.500040 0.592950 0.023720 -0.607860
O15   O     O_R   0.407050 0.500040 0.023720 -0.611275
O16   O     O_R   0.499960 0.407050 0.023720 -0.612104
C1    C     C_R   0.121518 0.000022 0.500054 0.909188
C2    C     C_R   0.000349 0.121547 0.500104 0.909279
C3    C     C_R   0.878446 0.000202 0.500017 0.910476
C4    C     C_R   0.999677 0.878455 0.500016 0.910733
C5    C     C_R   0.621546 0.499672 0.000084 0.909711
C6    C     C_R   0.500034 0.621525 0.000065 0.909508
C7    C     C_R   0.378454 0.500316 0.000037 0.909546
C8    C     C_R   0.499779 0.378447 0.999997 0.910076
C9    C     C_R   0.000250 0.499180 0.645834 0.270477
C10   C     C_R   0.498103 0.001005 0.646107 0.249394
C11   C     C_R   0.499894 0.999322 0.146104 0.257814
C12   C     C_R   0.999520 0.500432 0.145831 0.270153
C13   C     C_R   0.491460 0.943197 0.369103 -0.089262
C14   C     C_R   0.056466 0.504661 0.368964 -0.086255
C15   C     C_R   0.508723 0.055563 0.369090 -0.088741
C16   C     C_R   0.943161 0.495780 0.368944 -0.086980
C17   C     C_R   0.005401 0.442804 0.868968 -0.085825
C18   C     C_R   0.555552 0.991286 0.869017 -0.088050
C19   C     C_R   0.995201 0.556012 0.868945 -0.086935
C20   C     C_R   0.443458 0.010334 0.869188 -0.088192
H1    H     H_    0.484455 0.899593 0.357730 0.153967
H2    H     H_    0.100358 0.508333 0.357582 0.153159
H3    H     H_    0.515684 0.099011 0.357705 0.154058
H4    H     H_    0.899223 0.492130 0.357545 0.152759
H5    H     H_    0.009611 0.398852 0.857588 0.153436
H6    H     H_    0.598884 0.983691 0.857573 0.154090
H7    H     H_    0.991046 0.599812 0.857547 0.152988
H8    H     H_    0.399954 0.018119 0.857880 0.154259
Zn1   Zn    Zn3+2 0.000000 0.000000 0.468450 1.013904
Zn2   Zn    Zn3+2 0.500000 0.500000 0.968450 1.014995
Zn3   Zn    Zn3+2 0.000000 0.000000 0.531660 1.040667
Zn4   Zn    Zn3+2 0.500000 0.500000 0.031660 1.040772
C21   C     C_R   0.500096 0.999698 0.413551 -0.035932
C22   C     C_R   0.999906 0.500161 0.413465 -0.025658
C23   C     C_R   0.000191 0.499709 0.913466 -0.026077
C24   C     C_R   0.499812 0.000348 0.913555 -0.033654
C25   C     C_R   0.500053 0.999279 0.354278 0.294227
C26   C     C_R   0.999783 0.500238 0.354128 0.293821
C27   C     C_R   0.000341 0.499309 0.854129 0.293357
C28   C     C_R   0.499388 0.000923 0.854279 0.293365
C29   C     C_3   0.022610 0.229499 0.525222 -0.193120
C30   C     C_3   0.771094 0.048868 0.515670 -0.167938
C31   C     C_3   0.960460 0.771669 0.520557 -0.193023
C32   C     C_3   0.228660 0.943123 0.508144 -0.161348
C33   C     C_3   0.553207 0.728623 0.012464 -0.170771
C34   C     C_3   0.271536 0.539446 0.020697 -0.192573
C35   C     C_3   0.450518 0.271206 0.015171 -0.168383
C36   C     C_3   0.729421 0.477731 0.025182 -0.192679
C37   C     C_3   0.964319 0.270224 0.520442 0.312889
C38   C     C_3   0.730245 0.994203 0.525868 0.333006
C39   C     C_3   0.018949 0.730900 0.525098 0.322057
C40   C     C_3   0.269560 0.987830 0.525732 0.323411
C41   C     C_3   0.502615 0.769645 0.026325 0.331689
C42   C     C_3   0.230820 0.480935 0.025107 0.321759
C43   C     C_3   0.504799 0.230338 0.025862 0.333433
C44   C     C_3   0.770087 0.535980 0.020383 0.313324
H9    H     H_    0.039852 0.211885 0.545932 0.181228
H10   H     H_    0.789467 0.087823 0.528932 0.183152
H11   H     H_    0.929172 0.790386 0.537361 0.178334
H12   H     H_    0.210177 0.897008 0.515083 0.170470
H13   H     H_    0.596033 0.710108 0.022898 0.179598
H14   H     H_    0.290140 0.570702 0.037572 0.176451
H15   H     H_    0.411098 0.289683 0.028075 0.177942
H16   H     H_    0.711752 0.460700 0.045900 0.183065
C45   C     C_3   0.000395 0.311045 0.499675 -0.192773
C46   C     C_3   0.688992 0.000219 0.499677 -0.193058
C47   C     C_3   0.999651 0.688959 0.500386 -0.192635
C48   C     C_3   0.310991 0.000150 0.500021 -0.192144
C49   C     C_3   0.500133 0.810997 0.000037 -0.191384
C50   C     C_3   0.188958 0.500274 0.000432 -0.193044
C51   C     C_3   0.499722 0.188990 0.999620 -0.193634
C52   C     C_3   0.811044 0.499690 0.999638 -0.191193
C53   C     C_3   0.059485 0.270455 0.503803 -0.230644
C54   C     C_3   0.729573 0.054723 0.488743 -0.220394
C55   C     C_3   0.940988 0.729535 0.495148 -0.231217
C56   C     C_3   0.270347 0.956046 0.481782 -0.229826
C57   C     C_3   0.550350 0.770212 0.985491 -0.237731
C58   C     C_3   0.229482 0.558960 0.995326 -0.229882
C59   C     C_3   0.445625 0.229583 0.988193 -0.217766
C60   C     C_3   0.770508 0.440635 0.003786 -0.234981
C61   C     C_3   0.037599 0.228262 0.478819 -0.176848
C62   C     C_3   0.771152 0.006365 0.472818 -0.189007
C63   C     C_3   0.979855 0.770560 0.474487 -0.180392
C64   C     C_3   0.228752 0.012879 0.473536 -0.186965
C65   C     C_3   0.497363 0.728728 0.972927 -0.185819
C66   C     C_3   0.270633 0.520148 0.974584 -0.180793
C67   C     C_3   0.494544 0.271064 0.972710 -0.187783
C68   C     C_3   0.728396 0.462243 0.978786 -0.176753
C69   C     C_3   0.978758 0.269039 0.475387 0.319090
C70   C     C_3   0.730392 0.953003 0.484291 0.308459
C71   C     C_3   0.037657 0.729868 0.480368 0.311136
C72   C     C_3   0.269456 0.055643 0.492122 0.306302
C73   C     C_3   0.448386 0.769585 0.987921 0.306733
C74   C     C_3   0.229996 0.462321 0.980336 0.312226
C75   C     C_3   0.547486 0.230292 0.984665 0.307282
C76   C     C_3   0.769118 0.521058 0.975334 0.319679
C77   C     C_3   0.940721 0.228448 0.496016 -0.273856
C78   C     C_3   0.771436 0.945124 0.510877 -0.269155
C79   C     C_3   0.058884 0.771583 0.505256 -0.265951
C80   C     C_3   0.228429 0.044795 0.518414 -0.289144
C81   C     C_3   0.449194 0.728590 0.014681 -0.284430
C82   C     C_3   0.271639 0.441052 0.005181 -0.268431
C83   C     C_3   0.554409 0.271418 0.011317 -0.270431
C84   C     C_3   0.728385 0.559307 0.995941 -0.273691
C85   C     C_3   0.000304 0.188822 0.500180 -0.096160
C86   C     C_3   0.811159 0.000107 0.499858 -0.116067
C87   C     C_3   0.999732 0.811184 0.499961 -0.098553
C88   C     C_3   0.188732 0.000288 0.500026 -0.097864
C89   C     C_3   0.499859 0.688753 0.000022 -0.099366
C90   C     C_3   0.311183 0.500230 0.000018 -0.096944
C91   C     C_3   0.499839 0.311160 0.999802 -0.114640
C92   C     C_3   0.688820 0.499755 0.000125 -0.097202
H17   H     H_    0.107774 0.288594 0.506936 0.202135
H18   H     H_    0.711276 0.099141 0.479732 0.192609
H19   H     H_    0.893051 0.711372 0.491071 0.201408
H20   H     H_    0.288690 0.920026 0.466921 0.188020
H21   H     H_    0.591407 0.788376 0.973642 0.190174
H22   H     H_    0.211281 0.606906 0.991352 0.202250
H23   H     H_    0.401544 0.211284 0.978781 0.194415
H24   H     H_    0.788693 0.392383 0.006945 0.199520
H25   H     H_    0.067268 0.209503 0.461434 0.184111
H26   H     H_    0.789222 0.010501 0.450846 0.189342
H27   H     H_    0.964579 0.788208 0.453471 0.188405
H28   H     H_    0.210697 0.024170 0.452070 0.186292
H29   H     H_    0.494242 0.710681 0.950879 0.188161
H30   H     H_    0.288338 0.535479 0.953602 0.187567
H31   H     H_    0.491207 0.289064 0.950705 0.188988
H32   H     H_    0.709748 0.432385 0.961412 0.186598
H33   H     H_    0.892487 0.210161 0.492863 0.182282
H34   H     H_    0.789748 0.900661 0.519850 0.192240
H35   H     H_    0.106763 0.789899 0.509361 0.182636
H36   H     H_    0.210293 0.080796 0.533341 0.190758
H37   H     H_    0.408150 0.710521 0.026575 0.186604
H38   H     H_    0.289999 0.393170 0.009186 0.182393
H39   H     H_    0.598545 0.289705 0.020691 0.193107
H40   H     H_    0.710041 0.607502 0.992765 0.181519
C93   C     C_R   0.491686 0.943309 0.398591 -0.176312
C94   C     C_R   0.056600 0.504570 0.398475 -0.156547
C95   C     C_R   0.508545 0.055866 0.398579 -0.184200
C96   C     C_R   0.943149 0.495798 0.398454 -0.152371
C97   C     C_R   0.005261 0.442930 0.898478 -0.156364
C98   C     C_R   0.555862 0.991221 0.898510 -0.176425
C99   C     C_R   0.995196 0.556285 0.898455 -0.151892
C100  C     C_R   0.443568 0.009827 0.898670 -0.178451
H41   H     H_    0.484885 0.899406 0.409636 0.175959
H42   H     H_    0.100993 0.508141 0.409511 0.180016
H43   H     H_    0.515357 0.099922 0.409615 0.176161
H44   H     H_    0.898802 0.492190 0.409474 0.177982
H45   H     H_    0.009342 0.398674 0.909517 0.180181
H46   H     H_    0.599802 0.983615 0.909494 0.175012
H47   H     H_    0.991055 0.600687 0.909476 0.178227
H48   H     H_    0.399771 0.017240 0.909774 0.175946
O17   O     O_R   0.947430 0.499940 0.541950 -0.602401
O18   O     O_R   0.500060 0.947430 0.541950 -0.590916
O19   O     O_R   0.052570 0.500060 0.541950 -0.596707
O20   O     O_R   0.499940 0.052570 0.541950 -0.598400
O21   O     O_R   0.447430 0.999940 0.041950 -0.596480
O22   O     O_R   0.000060 0.447430 0.041950 -0.596942
O23   O     O_R   0.552570 0.000060 0.041950 -0.600463
O24   O     O_R   0.999940 0.552570 0.041950 -0.602703
C101  C     C_R   0.000024 0.499861 0.555390 0.973101
C102  C     C_R   0.499871 0.000084 0.555466 0.940524
C103  C     C_R   0.500030 0.000161 0.055462 0.963182
C104  C     C_R   0.999859 0.500086 0.055388 0.973323
O25   O     O_R   0.947440 0.406930 0.500020 -0.582577
O26   O     O_R   0.593070 0.947440 0.500020 -0.595746
O27   O     O_R   0.052560 0.593070 0.500020 -0.581026
O28   O     O_R   0.406930 0.052560 0.500020 -0.588327
O29   O     O_R   0.447440 0.906930 0.000020 -0.584403
O30   O     O_R   0.093070 0.447440 0.000020 -0.581390
O31   O     O_R   0.552560 0.093070 0.000020 -0.595219
O32   O     O_R   0.906930 0.552560 0.000020 -0.582885
O33   O     O_R   0.052470 0.406940 0.500010 -0.634099
O34   O     O_R   0.593060 0.052470 0.500010 -0.617282
O35   O     O_R   0.947530 0.593060 0.500010 -0.635442
O36   O     O_R   0.406940 0.947530 0.500010 -0.608665
O37   O     O_R   0.552470 0.906940 0.000010 -0.619209
O38   O     O_R   0.093060 0.552470 0.000010 -0.635418
O39   O     O_R   0.447530 0.093060 0.000010 -0.619762
O40   O     O_R   0.906940 0.447530 0.000010 -0.634252
C105  C     C_R   0.000032 0.378417 0.499933 0.973388
C106  C     C_R   0.621601 0.999971 0.499879 0.939279
C107  C     C_R   0.999976 0.621585 0.500098 0.972828
C108  C     C_R   0.378395 0.000094 0.499878 0.947952
C109  C     C_R   0.499973 0.878398 0.999843 0.965565
C110  C     C_R   0.121585 0.499996 0.000117 0.973035
C111  C     C_R   0.500004 0.121599 0.999855 0.936643
C112  C     C_R   0.878416 0.499997 0.999920 0.973535
Zn5   Zn    Zn3+2 0.929820 0.499950 0.500030 1.064481
Zn6   Zn    Zn3+2 0.500050 0.929820 0.500030 1.074237
Zn7   Zn    Zn3+2 0.070180 0.500050 0.500030 1.068910
Zn8   Zn    Zn3+2 0.499950 0.070180 0.500030 1.073039
Zn9   Zn    Zn3+2 0.429820 0.999950 0.000030 1.070260
Zn10  Zn    Zn3+2 0.000050 0.429820 0.000030 1.066705
Zn11  Zn    Zn3+2 0.570180 0.000050 0.000030 1.067561
Zn12  Zn    Zn3+2 0.999950 0.570180 0.000030 1.064058
O41   O     O_R   0.947430 0.499970 0.458100 -0.617601
O42   O     O_R   0.500030 0.947430 0.458100 -0.616776
O43   O     O_R   0.052570 0.500030 0.458100 -0.619990
O44   O     O_R   0.499970 0.052570 0.458100 -0.619001
O45   O     O_R   0.447430 0.999970 0.958100 -0.618153
O46   O     O_R   0.000030 0.447430 0.958100 -0.620288
O47   O     O_R   0.552570 0.000030 0.958100 -0.616800
O48   O     O_R   0.999970 0.552570 0.958100 -0.617421
C113  C     C_R   0.999972 0.500099 0.444584 0.929973
C114  C     C_R   0.500036 0.999915 0.444613 0.878989
C115  C     C_R   0.499961 0.000061 0.944615 0.884096
C116  C     C_R   0.000109 0.499915 0.944585 0.930690
C117  C     C_R   0.546216 0.967692 0.309762 0.518853
C118  C     C_R   0.974207 0.550076 0.309687 0.520591
C119  C     C_R   0.453470 0.030330 0.309813 0.516949
C120  C     C_R   0.025192 0.450470 0.309553 0.522215
C121  C     C_R   0.049827 0.525287 0.809665 0.520533
C122  C     C_R   0.466690 0.955413 0.809743 0.517508
C123  C     C_R   0.951056 0.472810 0.809567 0.522415
C124  C     C_R   0.531137 0.046844 0.809822 0.518547
N1    N     N_R   0.499908 0.999089 0.323949 -0.358252
N2    N     N_R   0.999723 0.500261 0.323787 -0.358235
N3    N     N_R   0.000418 0.499113 0.823785 -0.358188
N4    N     N_R   0.499101 0.001047 0.823948 -0.358295
C125  C     C_R   0.452697 0.031173 0.280123 -0.026389
C126  C     C_R   0.025819 0.449613 0.279840 -0.029161
C127  C     C_R   0.546787 0.966636 0.280071 -0.027934
C128  C     C_R   0.973496 0.550988 0.279975 -0.027937
C129  C     C_R   0.950212 0.472030 0.779854 -0.029317
C130  C     C_R   0.531716 0.047656 0.780129 -0.027868
C131  C     C_R   0.050723 0.525886 0.779954 -0.027751
C132  C     C_R   0.465330 0.954930 0.780055 -0.026789
C133  C     C_R   0.499709 0.998877 0.265103 -0.016705
C134  C     C_R   0.999638 0.500315 0.264902 -0.016329
C135  C     C_R   0.000469 0.498933 0.764898 -0.016314
C136  C     C_R   0.498345 0.001361 0.765097 -0.016586
C137  C     C_R   0.405941 0.063416 0.265323 -0.208575
C138  C     C_R   0.051855 0.399187 0.264928 -0.206629
C139  C     C_R   0.593437 0.934282 0.265215 -0.207672
C140  C     C_R   0.947419 0.601441 0.265197 -0.207616
C141  C     C_R   0.900217 0.445160 0.764959 -0.206331
C142  C     C_R   0.564729 0.093767 0.765335 -0.207553
C143  C     C_R   0.100741 0.552671 0.765159 -0.207403
C144  C     C_R   0.431887 0.909006 0.765193 -0.207911
C145  C     C_R   0.899351 0.444548 0.735342 0.118861
C146  C     C_R   0.565320 0.094495 0.735731 0.118818
C147  C     C_R   0.101592 0.553228 0.735544 0.119036
C148  C     C_R   0.430649 0.908500 0.735591 0.118589
C149  C     C_R   0.405264 0.064300 0.235720 0.119082
C150  C     C_R   0.052394 0.398352 0.235312 0.119243
C151  C     C_R   0.594015 0.933341 0.235611 0.118954
C152  C     C_R   0.946811 0.602337 0.235582 0.118975
C153  C     C_R   0.949665 0.471536 0.719984 -0.016472
C154  C     C_R   0.531891 0.048120 0.720301 -0.016679
C155  C     C_R   0.051235 0.526277 0.720086 -0.017078
C156  C     C_R   0.463883 0.954889 0.720233 -0.016893
C157  C     C_R   0.452354 0.031951 0.220300 -0.015989
C158  C     C_R   0.026191 0.449144 0.219971 -0.016865
C159  C     C_R   0.546943 0.965758 0.220244 -0.016734
C160  C     C_R   0.972982 0.551580 0.220107 -0.016491
C161  C     C_R   0.000461 0.498907 0.734944 -0.095677
C162  C     C_R   0.498024 0.001468 0.735164 -0.095987
C163  C     C_R   0.499661 0.998852 0.235170 -0.096303
C164  C     C_R   0.999603 0.500346 0.234948 -0.095779
C165  C     C_R   0.951213 0.472138 0.690141 0.527534
C166  C     C_R   0.531212 0.046420 0.690476 0.530171
C167  C     C_R   0.049592 0.525771 0.690241 0.529265
C168  C     C_R   0.464283 0.956535 0.690414 0.529426
C169  C     C_R   0.454100 0.031581 0.190479 0.529579
C170  C     C_R   0.025656 0.450792 0.190129 0.529015
C171  C     C_R   0.545253 0.966297 0.190422 0.529785
C172  C     C_R   0.973457 0.549995 0.190259 0.527622
N5    N     N_R   0.000367 0.499001 0.676184 -0.363331
N6    N     N_R   0.497765 0.001402 0.676444 -0.363523
N7    N     N_R   0.499721 0.999023 0.176445 -0.362771
N8    N     N_R   0.999540 0.500408 0.176184 -0.363107
O49   O     O_2   0.591832 0.938063 0.324377 -0.538453
O50   O     O_2   0.950063 0.598753 0.324406 -0.540657
O51   O     O_2   0.407938 0.060044 0.324476 -0.544667
O52   O     O_2   0.049375 0.401763 0.324141 -0.536154
O53   O     O_2   0.098121 0.550214 0.824364 -0.541089
O54   O     O_2   0.436319 0.910368 0.824338 -0.541951
O55   O     O_2   0.902740 0.447966 0.824172 -0.535456
O56   O     O_2   0.561878 0.091727 0.824501 -0.538659
H49   H     H_    0.369453 0.088410 0.276649 0.194188
H50   H     H_    0.072120 0.359847 0.276180 0.194491
H51   H     H_    0.629944 0.909284 0.276500 0.194520
H52   H     H_    0.927181 0.640758 0.276554 0.194186
H53   H     H_    0.861234 0.424304 0.776225 0.194822
H54   H     H_    0.590566 0.129699 0.776670 0.194699
H55   H     H_    0.139737 0.573534 0.776503 0.194111
H56   H     H_    0.406250 0.873021 0.776471 0.194374
O57   O     O_2   0.904430 0.445846 0.674963 -0.504572
O58   O     O_2   0.564014 0.088837 0.675387 -0.501792
O59   O     O_2   0.096328 0.552110 0.675161 -0.502710
O60   O     O_2   0.431315 0.914113 0.675264 -0.498930
O61   O     O_2   0.411108 0.063796 0.175399 -0.506047
O62   O     O_2   0.051316 0.403661 0.174944 -0.504116
O63   O     O_2   0.588257 0.934149 0.175281 -0.500762
O64   O     O_2   0.947776 0.597162 0.175196 -0.505010
C173  C     C_R   0.042565 0.461468 0.630962 -0.134638
C174  C     C_R   0.468806 0.049248 0.631228 -0.114567
C175  C     C_R   0.957834 0.537094 0.631180 -0.134427
C176  C     C_R   0.527685 0.952295 0.631565 -0.105221
C177  C     C_R   0.548365 0.029046 0.131542 -0.103339
C178  C     C_R   0.037599 0.542523 0.131134 -0.135137
C179  C     C_R   0.451642 0.969870 0.131200 -0.139200
C180  C     C_R   0.961473 0.458316 0.130991 -0.134043
H57   H     H_    0.075027 0.431868 0.642471 0.149114
H58   H     H_    0.445528 0.086317 0.642915 0.147749
H59   H     H_    0.925435 0.566517 0.642860 0.150741
H60   H     H_    0.550429 0.915418 0.643518 0.148985
H61   H     H_    0.585257 0.051963 0.143481 0.149100
H62   H     H_    0.067280 0.574770 0.142782 0.150344
H63   H     H_    0.414492 0.946443 0.142680 0.152158
H64   H     H_    0.931738 0.426115 0.142527 0.149885
C181  C     C_R   0.042841 0.461377 0.601341 0.047253
C182  C     C_R   0.468788 0.049497 0.601583 0.076877
C183  C     C_R   0.957380 0.537624 0.601561 0.056808
C184  C     C_R   0.528550 0.951241 0.601931 0.070505
C185  C     C_R   0.549178 0.029721 0.101887 0.056936
C186  C     C_R   0.037975 0.542826 0.101515 0.057186
C187  C     C_R   0.451194 0.969994 0.101623 0.077234
C188  C     C_R   0.961257 0.457874 0.101371 0.046346
C189  C     C_R   0.000088 0.499633 0.586470 0.008652
C190  C     C_R   0.499105 0.000292 0.586693 -0.028785
C191  C     C_R   0.500093 0.000060 0.086677 -0.014866
C192  C     C_R   0.999693 0.500277 0.086465 0.008425
N9    N     N_3   0.846887 0.416417 0.721198 -0.363104
H65   H     H_    0.806194 0.439627 0.727753 0.196353
H66   H     H_    0.843659 0.369720 0.727722 0.198813
N10   N     N_3   0.599970 0.142835 0.721675 -0.362490
H67   H     H_    0.646730 0.139961 0.728226 0.200121
H68   H     H_    0.582297 0.186215 0.728277 0.195232
N11   N     N_3   0.154071 0.581291 0.721506 -0.362722
H69   H     H_    0.157345 0.627996 0.728134 0.199953
H70   H     H_    0.194748 0.558056 0.728043 0.195117
N12   N     N_3   0.395603 0.860327 0.721464 -0.361316
H71   H     H_    0.413323 0.816865 0.727836 0.195632
H72   H     H_    0.348989 0.863251 0.728182 0.200398
N13   N     N_3   0.356218 0.098090 0.221658 -0.363492
H73   H     H_    0.358061 0.144827 0.228350 0.200016
H74   H     H_    0.313226 0.079447 0.228107 0.194251
N14   N     N_3   0.079642 0.345428 0.221151 -0.363502
H75   H     H_    0.055780 0.305137 0.227628 0.195339
H76   H     H_    0.126287 0.341381 0.227734 0.199290
N15   N     N_3   0.642972 0.899461 0.221491 -0.362195
H77   H     H_    0.686010 0.918049 0.227997 0.195241
H78   H     H_    0.641078 0.852736 0.228079 0.200226
N16   N     N_3   0.919527 0.655287 0.221562 -0.363379
H79   H     H_    0.872896 0.659318 0.228135 0.199048
H80   H     H_    0.943402 0.695567 0.228168 0.195267
N17   N     N_3   0.085369 0.421144 0.586406 -0.424391
H81   H     H_    0.076693 0.374984 0.592680 0.212705
H82   H     H_    0.130980 0.432687 0.592643 0.207992
N18   N     N_3   0.436984 0.098809 0.586596 -0.400094
H83   H     H_    0.421196 0.133327 0.600662 0.194851
H84   H     H_    0.397069 0.079340 0.577204 0.227866
N19   N     N_3   0.914702 0.578019 0.586863 -0.415289
H85   H     H_    0.923332 0.624092 0.593401 0.220972
H86   H     H_    0.869146 0.566301 0.593042 0.205869
N20   N     N_3   0.559957 0.901022 0.587312 -0.396476
H87   H     H_    0.576452 0.867533 0.601647 0.202912
H88   H     H_    0.599367 0.919992 0.577421 0.245202
N21   N     N_3   0.599175 0.061073 0.087229 -0.399567
H89   H     H_    0.632614 0.077953 0.101558 0.203492
H90   H     H_    0.579968 0.100232 0.077207 0.244088
N22   N     N_3   0.078519 0.585166 0.086768 -0.416013
H91   H     H_    0.124577 0.576281 0.093218 0.220151
H92   H     H_    0.067072 0.630830 0.092995 0.204980
N23   N     N_3   0.401830 0.938043 0.086875 -0.395480
H93   H     H_    0.401896 0.891172 0.093304 0.228246
H94   H     H_    0.359184 0.957930 0.093096 0.200793
N24   N     N_3   0.920738 0.415524 0.086472 -0.424882
H95   H     H_    0.932057 0.369873 0.092665 0.207687
H96   H     H_    0.874654 0.424537 0.092823 0.213691
N25   N     N_R   0.925426 0.294826 0.543251 0.224603
O65   O     O_R   0.865983 0.281564 0.544203 -0.351526
O66   O     O_R   0.950148 0.330066 0.562818 -0.398336
N26   N     N_R   0.706521 0.988657 0.554663 0.197899
O67   O     O_R   0.722999 0.941398 0.570349 -0.390955
O68   O     O_R   0.670792 0.032302 0.565171 -0.393461
N27   N     N_R   0.039848 0.710101 0.552948 0.215775
O69   O     O_R   0.054686 0.751359 0.572143 -0.342816
O70   O     O_R   0.043383 0.650745 0.558913 -0.404850
N28   N     N_R   0.290862 0.973421 0.554337 0.212203
O71   O     O_R   0.249995 0.965582 0.574439 -0.342322
O72   O     O_R   0.350142 0.966015 0.559779 -0.419756
N29   N     N_R   0.506207 0.791143 0.055613 0.215758
O73   O     O_R   0.506397 0.750457 0.076078 -0.350491
O74   O     O_R   0.511630 0.850452 0.061473 -0.415945
N30   N     N_R   0.209935 0.459960 0.052908 0.214769
O75   O     O_R   0.251132 0.445144 0.072082 -0.350602
O76   O     O_R   0.150560 0.456282 0.058843 -0.405384
N31   N     N_R   0.509326 0.206725 0.054705 0.197811
O77   O     O_R   0.555888 0.223417 0.070847 -0.391907
O78   O     O_R   0.465432 0.170902 0.064793 -0.398310
N32   N     N_R   0.794532 0.575125 0.043178 0.225093
O79   O     O_R   0.781173 0.634572 0.044106 -0.350434
O80   O     O_R   0.829721 0.550623 0.062761 -0.397373
N33   N     N_R   0.955307 0.289716 0.447933 0.220036
O81   O     O_R   0.937997 0.248375 0.429203 -0.353101
O82   O     O_R   0.952590 0.348999 0.441733 -0.402384
N34   N     N_R   0.706721 0.901748 0.466879 0.228115
O83   O     O_R   0.720056 0.844005 0.473274 -0.366459
O84   O     O_R   0.672562 0.913658 0.444691 -0.372318
N35   N     N_R   0.078740 0.705406 0.458326 0.223259
O85   O     O_R   0.138209 0.718730 0.458560 -0.363288
O86   O     O_R   0.055972 0.670207 0.438265 -0.392696
N36   N     N_R   0.292275 0.116589 0.482887 0.228796
O87   O     O_R   0.279314 0.166720 0.497490 -0.377700
O88   O     O_R   0.324033 0.121309 0.459479 -0.365119
N37   N     N_R   0.391941 0.792893 0.974115 0.228339
O89   O     O_R   0.336998 0.779784 0.984420 -0.372483
O90   O     O_R   0.396307 0.825929 0.951080 -0.370722
N38   N     N_R   0.205676 0.421279 0.958203 0.223044
O91   O     O_R   0.219080 0.361812 0.958308 -0.364340
O92   O     O_R   0.170521 0.444080 0.938192 -0.393280
N39   N     N_R   0.599361 0.206542 0.967711 0.228508
O93   O     O_R   0.656860 0.219841 0.974633 -0.366954
O94   O     O_R   0.588258 0.172404 0.945389 -0.371248
N40   N     N_R   0.789888 0.544230 0.947875 0.220158
O95   O     O_R   0.748612 0.561307 0.929126 -0.352333
O96   O     O_R   0.849198 0.546958 0.941696 -0.402813

loop_
_geom_bond_atom_site_label_1
_geom_bond_atom_site_label_2
_geom_bond_distance
_ccdc_geom_bond_type
C168  O60   1.349312 S    
C3    C86   1.435450 S    
C18   C28   1.400039 A    
C21   C114  1.465660 S    
N37   O89   1.300291 A    
C140  H52   1.083809 S    
C141  H53   1.083868 S    
C74   C82   1.539345 S    
C179  C187  1.395637 A    
C154  C166  1.407685 A    
C10   C174  1.394634 A    
O34   C106  1.274448 A    
C11   C179  1.394819 A    
O18   C102  1.290132 A    
C12   C180  1.397261 A    
C21   C93   1.404526 A    
C123  C129  1.402180 A    
C71   N35   1.456221 S    
O39   Zn9   2.022075 S    
O17   Zn5   2.012927 S    
O37   Zn11  2.022069 S    
C55   H19   1.110194 S    
O21   C103  1.289998 A    
C53   H17   1.110205 S    
O30   C110  1.275827 A    
C147  N11   1.433541 S    
O17   C101  1.288225 A    
C118  O50   1.349848 S    
C4    C87   1.435054 S    
O42   C114  1.289374 A    
N29   O74   1.299522 A    
C138  H50   1.083810 S    
C18   H6    1.082951 S    
C8    C91   1.435391 S    
C122  N4    1.367886 A    
O40   C112  1.273694 A    
C166  N6    1.365996 A    
C50   C110  1.437340 S    
C61   C69   1.535485 S    
Zn6   O42   2.014801 S    
C32   C56   1.555173 S    
N33   O82   1.300082 A    
C157  C169  1.407612 A    
O12   Zn3   2.016914 S    
C139  H51   1.083819 S    
O43   C113  1.290044 A    
N18   H84   1.045235 S    
N18   H83   1.045757 S    
N13   H74   1.045730 S    
N13   H73   1.045729 S    
O30   Zn10  2.019874 S    
C24   C98   1.404404 A    
C119  N1    1.367788 A    
C69   N33   1.457517 S    
C30   C86   1.537923 S    
C79   C87   1.538770 S    
N30   O76   1.299986 A    
C35   C59   1.553431 S    
C145  C153  1.418892 A    
N26   O68   1.300441 A    
C57   C65   1.552097 S    
C76   C84   1.537178 S    
O3    Zn1   2.019210 S    
Zn12  O48   2.012763 S    
C19   C27   1.399745 A    
C32   H12   1.110368 S    
O24   Zn12  2.014338 S    
C67   H31   1.110210 S    
C64   C88   1.538739 S    
N24   H96   1.045650 S    
C120  C126  1.402163 A    
C38   C46   1.522050 S    
C167  O59   1.349201 S    
C68   C92   1.537392 S    
O12   C4    1.272502 A    
O13   C5    1.271761 A    
C31   C55   1.552835 S    
C40   N28   1.457252 S    
C40   C80   1.538291 S    
C148  N12   1.433641 S    
C62   H26   1.110242 S    
C60   C68   1.552816 S    
N25   O65   1.300265 A    
C117  C127  1.401163 A    
O29   Zn9   2.019428 S    
C20   H8    1.082969 S    
N23   H93   1.045698 S    
C16   H4    1.082902 S    
C63   C71   1.533130 S    
C12   C178  1.397273 A    
O33   C105  1.273711 A    
C155  C161  1.417815 A    
C11   C177  1.395716 A    
C50   C74   1.522441 S    
C129  C135  1.407602 A    
C37   C77   1.539326 S    
C21   C95   1.404443 A    
C43   N31   1.455578 S    
C152  N16   1.433478 S    
C46   C106  1.437702 S    
C47   C55   1.541353 S    
O5    Zn2   2.018422 S    
C62   C70   1.533112 S    
C43   C83   1.537826 S    
Zn9   O45   2.014179 S    
N34   O83   1.300310 A    
C177  C185  1.399468 A    
C17   H5    1.082913 S    
N17   H81   1.045665 S    
O32   Zn12  2.019873 S    
O10   C2    1.271845 A    
C99   H47   1.082907 S    
C23   C97   1.405069 A    
C100  H48   1.082992 S    
C143  H55   1.083868 S    
N12   H71   1.045851 S    
C144  H56   1.083941 S    
C122  C132  1.401078 A    
O38   Zn12  2.021719 S    
O4    C4    1.271862 A    
C103  C191  1.472885 S    
C14   C94   1.392426 A    
O39   C111  1.274595 A    
C176  H60   1.083413 S    
C132  C144  1.398707 A    
C156  C162  1.417747 A    
O10   Zn3   2.018946 S    
C81   H37   1.110311 S    
C52   C112  1.437304 S    
C24   C100  1.404460 A    
C139  C151  1.397025 A    
N22   H91   1.045666 S    
O38   C110  1.273829 A    
C160  C172  1.408684 A    
C39   C47   1.524200 S    
C79   H35   1.110406 S    
O27   Zn7   2.019431 S    
N35   O85   1.300270 A    
O25   C105  1.275930 A    
N29   O73   1.300151 A    
C131  C143  1.398857 A    
N39   O94   1.300450 A    
C174  C182  1.398804 A    
C14   C26   1.399679 A    
C34   C42   1.535797 S    
C9    C173  1.397135 A    
C119  O51   1.349933 S    
C69   C77   1.537129 S    
C56   H20   1.110169 S    
C154  C162  1.417730 A    
C57   H21   1.110169 S    
C182  N18   1.438491 S    
N11   H70   1.045783 S    
N16   H79   1.045728 S    
C185  C191  1.417211 A    
O29   C109  1.275039 A    
C124  N4    1.367847 A    
C178  H62   1.083435 S    
C75   C83   1.538372 S    
C29   H9    1.110182 S    
N20   H87   1.045745 S    
C138  C150  1.397573 A    
C61   C85   1.537476 S    
C31   C39   1.535718 S    
C16   C96   1.392428 A    
C49   C57   1.540454 S    
C174  H58   1.083399 S    
C33   H13   1.110306 S    
O28   C108  1.274334 A    
C51   C59   1.540334 S    
C65   C89   1.539551 S    
C146  N10   1.433637 S    
O23   Zn11  2.013714 S    
C148  C156  1.418763 A    
C186  N22   1.433021 S    
C149  C157  1.418720 A    
C142  H54   1.083935 S    
O36   C108  1.275744 A    
C126  C138  1.398804 A    
C63   H27   1.110177 S    
O15   Zn4   2.017586 S    
C70   N34   1.456104 S    
C61   H25   1.110265 S    
C59   C67   1.553067 S    
O4    Zn1   2.019786 S    
N9    H66   1.045781 S    
O2    Zn1   2.017751 S    
C145  N9    1.433536 S    
C45   C69   1.524135 S    
C64   C72   1.533009 S    
O7    Zn2   2.019210 S    
C44   N32   1.456173 S    
N30   O75   1.300156 A    
C36   C60   1.552553 S    
C120  O52   1.349855 S    
C97   H45   1.082912 S    
C68   C76   1.535587 S    
C183  C189  1.411145 A    
C6    C89   1.434156 S    
O14   Zn4   2.018946 S    
C95   H43   1.082953 S    
C165  N5    1.365964 A    
O32   C112  1.275944 A    
C130  C136  1.407489 A    
O26   Zn6   2.019874 S    
C54   H18   1.110160 S    
C41   N29   1.456781 S    
C1    C88   1.433890 S    
C159  C171  1.407629 A    
N39   O93   1.300292 A    
C29   C37   1.533379 S    
C44   C84   1.539356 S    
N14   H76   1.045728 S    
O5    C5    1.272648 A    
C17   C27   1.399719 A    
C158  C170  1.408640 A    
C5    C92   1.435144 S    
O3    C3    1.271058 A    
C32   C40   1.534438 S    
N32   O79   1.300262 A    
C7    C90   1.435102 S    
C153  C161  1.417813 A    
C179  H63   1.083552 S    
C117  O49   1.349926 S    
N36   O87   1.300334 A    
N28   O72   1.299794 A    
C129  C141  1.398857 A    
C26   N2    1.431644 S    
O19   Zn7   2.013714 S    
C146  C154  1.418795 A    
C175  C183  1.397601 A    
N15   H77   1.045728 S    
C41   C49   1.524901 S    
N38   O91   1.300268 A    
C30   H10   1.110284 S    
O20   C102  1.290062 A    
C62   C86   1.540298 S    
C187  N23   1.433297 S    
C34   H14   1.110274 S    
O21   Zn9   2.012927 S    
C66   C90   1.539207 S    
Zn11  O47   2.013388 S    
O1    C1    1.271097 A    
C118  N2    1.367731 A    
O14   C6    1.273234 A    
O40   Zn10  2.021718 S    
C173  H57   1.083436 S    
O1    Zn1   2.018422 S    
C42   C82   1.537095 S    
O7    C7    1.271809 A    
C144  C148  1.396956 A    
O8    C8    1.271129 A    
N31   O78   1.300423 A    
C9    N5    1.432008 S    
C168  N6    1.365981 A    
N21   H90   1.044368 S    
C140  C152  1.397599 A    
C11   N7    1.431656 S    
C186  C192  1.411071 A    
O24   C104  1.288212 A    
C77   C85   1.538839 S    
N10   H67   1.045842 S    
C15   H3    1.082929 S    
O19   C101  1.288505 A    
C123  N3    1.367776 A    
C66   H30   1.110190 S    
C55   C63   1.552724 S    
C81   C89   1.538229 S    
C83   C91   1.539243 S    
C52   C60   1.541463 S    
O45   C115  1.289282 A    
N33   O81   1.300184 A    
O22   C104  1.288381 A    
N37   O90   1.300446 A    
N22   H92   1.045554 S    
O11   Zn3   2.017586 S    
C165  O57   1.349200 S    
N40   O95   1.300175 A    
C73   C81   1.538001 S    
C60   H24   1.110190 S    
O11   C3    1.273475 A    
C29   C53   1.552671 S    
C124  C130  1.401244 A    
C167  N5    1.365966 A    
C63   C87   1.539173 S    
N35   O86   1.300470 A    
C169  O61   1.349209 S    
O18   Zn6   2.012299 S    
C49   C73   1.524091 S    
C45   C105  1.437235 S    
C33   C57   1.554572 S    
C51   C75   1.522631 S    
C65   C73   1.532643 S    
N19   H85   1.045683 S    
O6    C6    1.270687 A    
O31   C111  1.275445 A    
C67   C75   1.533143 S    
O35   Zn5   2.022075 S    
C77   H33   1.110370 S    
C82   H38   1.110386 S    
O41   C113  1.290202 A    
C17   C97   1.392430 A    
C49   C109  1.437887 S    
C45   C53   1.541426 S    
Zn5   O41   2.014179 S    
C152  C160  1.418875 A    
C151  N15   1.433512 S    
C128  C134  1.407585 A    
C36   H16   1.110196 S    
C16   C26   1.399668 A    
C94   H42   1.082899 S    
C31   C87   1.537494 S    
C118  C128  1.402186 A    
C171  N7    1.366090 A    
C40   C48   1.525204 S    
C172  N8    1.366012 A    
C188  N24   1.433019 S    
C184  N20   1.438214 S    
C101  C189  1.466500 S    
N11   H69   1.045784 S    
C80   H36   1.110329 S    
C125  C133  1.407420 A    
C176  C184  1.398526 A    
C37   N25   1.456176 S    
C132  C136  1.407431 A    
C150  N14   1.433481 S    
C121  N3    1.367776 A    
C181  C189  1.411092 A    
C136  C162  1.412367 A    
C20   C28   1.399803 A    
C150  C158  1.418876 A    
C37   C45   1.522441 S    
C23   C116  1.468284 S    
C160  C164  1.417790 A    
C126  C134  1.407591 A    
Zn7   O43   2.013388 S    
O9    C1    1.272699 A    
N12   H72   1.045837 S    
C30   C54   1.553302 S    
C35   C43   1.534767 S    
C171  O63   1.349204 S    
C43   C51   1.522060 S    
C149  N13   1.433513 S    
O9    Zn3   2.018369 S    
C131  C135  1.407594 A    
C34   C58   1.552826 S    
C66   C74   1.533099 S    
C183  N19   1.433025 S    
C25   N1    1.431006 S    
C98   H46   1.082982 S    
C34   C90   1.537441 S    
C38   C78   1.537835 S    
O36   Zn6   2.021718 S    
C178  C186  1.397641 A    
C27   N3    1.431740 S    
N26   O67   1.300364 A    
C67   C91   1.540212 S    
C15   C95   1.391402 A    
N27   O69   1.300164 A    
C84   C92   1.538882 S    
O46   C116  1.290039 A    
C39   N27   1.457443 S    
C156  C168  1.407565 A    
C181  N17   1.433022 S    
C51   C111  1.437680 S    
C127  C133  1.407442 A    
C117  N1    1.367782 A    
C72   C80   1.537119 S    
N24   H95   1.045562 S    
C153  C165  1.408648 A    
O37   C109  1.275012 A    
N16   H80   1.045731 S    
O33   Zn7   2.022069 S    
C155  C167  1.408641 A    
C48   C72   1.525134 S    
C73   N37   1.456355 S    
N20   H88   1.044362 S    
C19   C99   1.392406 A    
C147  C155  1.418887 A    
C2    C85   1.435136 S    
O47   C115  1.289533 A    
C52   C76   1.524185 S    
C102  C190  1.473523 S    
C24   C115  1.465580 S    
C93   H41   1.082953 S    
N25   O66   1.300475 A    
N34   O84   1.300466 A    
C169  N7    1.366078 A    
C137  H49   1.083819 S    
C22   C113  1.468342 S    
C170  N8    1.366032 A    
O2    C2    1.272566 A    
O26   C106  1.275557 A    
C188  C192  1.410955 A    
O16   Zn4   2.016914 S    
C172  O64   1.349139 S    
C35   H15   1.110264 S    
N9    H65   1.045784 S    
C48   C108  1.437944 S    
C159  C163  1.417657 A    
C70   C78   1.538551 S    
C38   N26   1.455517 S    
O35   C107  1.273890 A    
C10   N6    1.431468 S    
N17   H82   1.045581 S    
C23   C99   1.405022 A    
C121  C131  1.402157 A    
C142  C146  1.397064 A    
C119  C125  1.401110 A    
C76   N40   1.457499 S    
C41   C81   1.537766 S    
C32   C88   1.536265 S    
C72   N36   1.456523 S    
C39   C79   1.537054 S    
C64   H28   1.110249 S    
C175  H59   1.083439 S    
C65   H29   1.110212 S    
C30   C38   1.534878 S    
C80   C88   1.538230 S    
C46   C70   1.522483 S    
C22   C96   1.405080 A    
C36   C92   1.539212 S    
N31   O77   1.300320 A    
C68   H32   1.110270 S    
C50   C58   1.541417 S    
N32   O80   1.300473 A    
C166  O58   1.349294 S    
O15   C7    1.272581 A    
O16   C8    1.273380 A    
C42   N30   1.457431 S    
N36   O88   1.300478 A    
C180  C188  1.397604 A    
C125  C137  1.398618 A    
C182  C190  1.417684 A    
C170  O62   1.349149 S    
C44   C52   1.522404 S    
N38   O92   1.300471 A    
O8    Zn2   2.019786 S    
C83   H39   1.110362 S    
C143  C147  1.397566 A    
O28   Zn8   2.019873 S    
C84   H40   1.110377 S    
C157  C163  1.417666 A    
C127  C139  1.398623 A    
C158  C164  1.417767 A    
O20   Zn8   2.014338 S    
C78   H34   1.110391 S    
C184  C190  1.417376 A    
C104  C192  1.466308 S    
O23   C103  1.290054 A    
C9    C175  1.397155 A    
N19   H86   1.045575 S    
C10   C176  1.394648 A    
O27   C107  1.275788 A    
C53   C61   1.552830 S    
C74   N38   1.456223 S    
O25   Zn5   2.019428 S    
N23   H94   1.045598 S    
C123  O55   1.349911 S    
C141  C145  1.397581 A    
C124  O56   1.350031 S    
C12   N8    1.432187 S    
C59   H23   1.110165 S    
N15   H78   1.045723 S    
C46   C54   1.540402 S    
C15   C25   1.399858 A    
C121  O53   1.349912 S    
C71   C79   1.539323 S    
N21   H89   1.045704 S    
C18   C98   1.391626 A    
C177  H61   1.083374 S    
N10   H68   1.045847 S    
C173  C181  1.397643 A    
C13   H1    1.082926 S    
C75   N39   1.456131 S    
C135  C161  1.413330 A    
C47   C107  1.437307 S    
C42   C50   1.524234 S    
C31   H11   1.110273 S    
O48   C116  1.290135 A    
C19   H7    1.082916 S    
C56   C64   1.552194 S    
C13   C93   1.391366 A    
C33   C41   1.534817 S    
O6    Zn2   2.017751 S    
O22   Zn10  2.012299 S    
C120  N2    1.367721 A    
C28   N4    1.431202 S    
O31   Zn11  2.019431 S    
O13   Zn4   2.018369 S    
N40   O96   1.300068 A    
C128  C140  1.398820 A    
C48   C56   1.540276 S    
Zn10  O46   2.014801 S    
C133  C163  1.412362 A    
C137  C149  1.396999 A    
C134  C164  1.413347 A    
C122  O54   1.350066 S    
C187  C191  1.414772 A    
N27   O70   1.299997 A    
C13   C25   1.399779 A    
C22   C94   1.405070 A    
C151  C159  1.418736 A    
N14   H75   1.045728 S    
C58   H22   1.110190 S    
C47   C71   1.522515 S    
C36   C44   1.533315 S    
O44   C114  1.289451 A    
C130  C142  1.398724 A    
C185  N21   1.438117 S    
C20   C100  1.391170 A    
C29   C85   1.539182 S    
C78   C86   1.539337 S    
C96   H44   1.082893 S    
Zn8   O44   2.012763 S    
N28   O71   1.300179 A    
C180  H64   1.083435 S    
C33   C89   1.536270 S    
C82   C90   1.538811 S    
C14   H2    1.082903 S    
O34   Zn8   2.021719 S    
C54   C62   1.552977 S    
C35   C91   1.537977 S    
C58   C66   1.552604 S    
