data_mof_unit_53630.cif
_audit_creation_date              2013-03-05T15:42:57-0500
_audit_creation_method            fapswitch 2.2
_symmetry_space_group_name_H-M    P1
_symmetry_Int_Tables_number       1
_space_group_crystal_system       triclinic
_cell_length_a                    8.320864
_cell_length_b                    15.207353
_cell_length_c                    22.96328
_cell_angle_alpha                 97.345488
_cell_angle_beta                  88.945323
_cell_angle_gamma                 100.060817
_cell_volume                      2837.55004449

loop_
_atom_site_label
_atom_site_type_symbol
_atom_site_description
_atom_site_fract_x
_atom_site_fract_y
_atom_site_fract_z
_atom_type_partial_charge
P1    P     P_3+3 0.054670 0.423610 0.368990 0.450863
O1    O     O_2   0.888680 0.450300 0.360330 -0.352805
O2    O     O_3   0.129270 0.451230 0.431380 -0.412433
O3    O     O_3   0.676100 0.614850 0.396630 -0.393828
O4    O     O_2   0.794733 0.552083 0.293830 -0.375050
O5    O     O_3   0.982019 0.306944 0.359411 -0.569883
O6    O     O_3   0.733220 0.714654 0.299629 -0.500114
H1    H     H_    0.759916 0.782117 0.384085 0.145047
C1    C     C_3   0.718758 0.870684 0.322404 -0.992958
H2    H     H_    0.850378 0.889926 0.312430 0.286271
H3    H     H_    0.645793 0.869495 0.282204 0.256632
P2    P     P_3+3 0.674060 0.707690 0.546600 0.465091
P3    P     P_3+3 0.147103 0.777316 0.426128 0.458489
O7    O     O_2   0.851930 0.720960 0.529560 -0.367615
O8    O     O_3   0.095720 0.661380 0.425720 -0.353863
O9    O     O_2   0.026581 0.821233 0.467448 -0.384169
O10   O     O_3   0.675640 0.737638 0.622862 -0.559817
O11   O     O_3   0.101676 0.801818 0.356604 -0.492385
C2    C     C_3   0.232957 0.788646 0.319239 0.355693
H4    H     H_    0.260782 0.719468 0.318554 0.087191
H5    H     H_    0.342306 0.839755 0.333183 0.050626
C3    C     C_3   0.188695 0.801044 0.257284 -0.818536
H6    H     H_    0.085877 0.747503 0.240333 0.283768
H7    H     H_    0.152392 0.867904 0.257049 0.236367
C4    C     C_3   0.236290 0.732081 0.596736 0.436955
H8    H     H_    0.348849 0.707068 0.581952 0.092482
H9    H     H_    0.143920 0.715970 0.560976 0.131389
C5    C     C_3   0.274813 0.833853 0.612533 -0.960735
H10   H     H_    0.372865 0.851999 0.646321 0.269177
H11   H     H_    0.315979 0.866832 0.573300 0.228043
H12   H     H_    0.163901 0.859346 0.629962 0.269153
Ba1   Ba    Ba6+2 0.857590 0.542650 0.472590 1.543408
C6    C     C_3   0.109927 0.258076 0.354025 0.316409
H13   H     H_    0.070562 0.195399 0.374374 0.099238
H14   H     H_    0.218102 0.294504 0.378509 0.137657
C7    C     C_3   0.146465 0.231655 0.289500 -0.925582
H15   H     H_    0.033841 0.194457 0.266520 0.266603
H16   H     H_    0.240168 0.187494 0.285793 0.243658
H17   H     H_    0.192711 0.292227 0.267899 0.251353
C8    C     C_3   0.717254 0.668171 0.650403 0.403506
H18   H     H_    0.842882 0.659077 0.637666 0.091755
H19   H     H_    0.627731 0.605202 0.638984 0.130695
C9    C     C_3   0.713186 0.693678 0.716582 -0.907188
H20   H     H_    0.802373 0.756178 0.729712 0.264078
H21   H     H_    0.745093 0.638754 0.739220 0.230020
H22   H     H_    0.588919 0.704848 0.730388 0.267509
P4    P     P_3+3 0.135040 0.576460 0.631020 0.469172
O12   O     O_2   0.301020 0.549730 0.639710 -0.351354
O13   O     O_3   0.060450 0.548840 0.568630 -0.427480
O14   O     O_3   0.513610 0.385220 0.603380 -0.388569
O15   O     O_3   0.177282 0.693913 0.646791 -0.553802
P5    P     P_3+3 0.056870 0.218078 0.564623 0.438600
O16   O     O_3   0.611400 0.391150 0.470030 -0.424305
O17   O     O_3   0.093990 0.338690 0.574280 -0.409280
O18   O     O_2   0.218504 0.184643 0.546980 -0.370169
O19   O     O_3   0.017154 0.181764 0.633720 -0.547606
Ba2   Ba    Ba6+2 0.332250 0.457420 0.527420 1.513067
P6    P     P_3+3 0.664861 0.607258 0.319763 0.460663
C10   C     C_3   0.686818 0.778486 0.343537 0.542390
H23   H     H_    0.554877 0.761665 0.353733 -0.030855
H24   H     H_    0.683560 0.921691 0.357031 0.224331
O20   O     O_3   0.578310 0.608920 0.529980 -0.404450
C11   C     C_3   0.533178 0.342225 0.342069 0.415482
H25   H     H_    0.420849 0.367619 0.334182 0.013371
H26   H     H_    0.613125 0.396621 0.369123 0.163386
C12   C     C_3   0.612314 0.322418 0.282676 -0.883920
H27   H     H_    0.528332 0.270853 0.253896 0.243464
H28   H     H_    0.639535 0.384553 0.261091 0.230059
H29   H     H_    0.727420 0.296936 0.288214 0.282429
P7    P     P_3+3 0.516566 0.279197 0.444246 0.419404
O21   O     O_2   0.337770 0.279070 0.470480 -0.370915
O22   O     O_3   0.493275 0.261850 0.367447 -0.580758
H30   H     H_    0.295996 0.797370 0.228236 0.244808
C13   C     C_3   0.045199 0.256517 0.677193 0.440793
H31   H     H_    0.165306 0.299308 0.671566 0.182626
H32   H     H_    0.947952 0.297339 0.675679 0.017311
C14   C     C_3   0.043406 0.224400 0.737195 -0.860033
H33   H     H_    0.088166 0.282473 0.770584 0.256942
H34   H     H_    0.917483 0.193445 0.748338 0.256014
H35   H     H_    0.125001 0.174087 0.737681 0.262838
P8    P     P_3+3 0.538489 0.393205 0.679763 0.430972
C15   C     C_3   0.525751 0.222993 0.671977 0.410083
H36   H     H_    0.650622 0.231683 0.690734 0.050118
O23   O     O_2   0.437021 0.462859 0.709036 -0.382581
O24   O     O_3   0.442204 0.289783 0.699692 -0.519080
H37   H     H_    0.533776 0.224740 0.623662 0.095082
H38   H     H_    0.503547 0.077939 0.662069 0.224683
C16   C     C_3   0.434716 0.130492 0.682064 -0.921047
H39   H     H_    0.312008 0.117978 0.661316 0.283867
H40   H     H_    0.421470 0.126041 0.729860 0.258130
H41   H     H_    0.007612 0.273603 0.044630 0.170755
H42   H     H_    0.930904 0.267615 0.942594 0.171677
C17   C     C_R   0.342486 0.523873 0.331415 -0.475429
C18   C     C_R   0.103582 0.571697 0.942293 -0.058512
C19   C     C_R   0.058280 0.566958 0.882360 0.533856
O25   O     O_2   0.078180 0.635783 0.858938 -0.584682
N1    N     N_R   0.989139 0.485537 0.850546 -0.163908
C20   C     C_R   0.963865 0.407896 0.878228 0.508756
O26   O     O_2   0.903220 0.335854 0.850932 -0.613856
C21   C     C_R   0.008270 0.410539 0.937853 -0.039720
C22   C     C_R   0.078207 0.492918 0.970067 -0.016955
C23   C     C_R   0.172844 0.653654 0.975363 -0.114461
C24   C     C_R   0.215645 0.657256 0.034495 -0.116981
C25   C     C_R   0.191280 0.578987 0.062768 -0.049396
C26   C     C_R   0.122475 0.496503 0.030343 -0.017300
C27   C     C_R   0.984174 0.332219 0.966059 -0.117436
C28   C     C_R   0.028411 0.335638 0.024950 -0.120029
C29   C     C_R   0.097780 0.417562 0.057949 -0.050118
C30   C     C_R   0.143554 0.422058 0.117711 0.518266
N2    N     N_R   0.210088 0.503653 0.149876 -0.164905
C31   C     C_R   0.233686 0.581590 0.122674 0.527304
C32   C     C_2   0.791019 0.438087 0.769119 -0.167165
C33   C     C_3   0.757909 0.418943 0.703677 0.113946
C34   C     C_1   0.007411 0.523948 0.688567 0.291591
C35   C     C_2   0.057196 0.523139 0.743708 -0.197935
C36   C     C_2   0.941355 0.481346 0.788595 0.119011
C37   C     C_R   0.415778 0.548628 0.231542 -0.211585
C38   C     C_R   0.458372 0.556222 0.291271 0.180871
C39   C     C_R   0.188567 0.477540 0.312999 0.282832
C40   C     C_R   0.144066 0.470660 0.253276 -0.209153
C41   C     C_R   0.256440 0.507710 0.211712 0.155839
O27   O     O_2   0.126023 0.352922 0.140772 -0.597418
O28   O     O_2   0.290475 0.653719 0.150709 -0.610446
C42   C     C_2   0.857585 0.488453 0.671251 -0.432728
H43   H     H_    0.268252 0.721899 0.058065 0.168498
H44   H     H_    0.506086 0.574484 0.200630 0.166073
H45   H     H_    0.194061 0.715627 0.955618 0.170699
H46   H     H_    0.180908 0.554028 0.756818 0.181050
H47   H     H_    0.701575 0.408237 0.799120 0.172207
H48   H     H_    0.022870 0.436953 0.239341 0.172636
H49   H     H_    0.376092 0.530110 0.377254 0.172030
H50   H     H_    0.805107 0.507624 0.633368 0.119192
C43   C     C_R   0.801238 0.220193 0.484733 -0.243190
C44   C     C_R   0.882022 0.164736 0.513618 0.246288
C45   C     C_R   0.810408 0.074196 0.513266 -0.285417
C46   C     C_R   0.651783 0.040396 0.489146 0.093230
C47   C     C_R   0.563332 0.103652 0.469425 -0.274584
C48   C     C_R   0.635205 0.193603 0.468035 0.246162
C49   C     C_R   0.426786 0.907139 0.456634 -0.299513
C50   C     C_R   0.357072 0.816396 0.453183 0.199094
C51   C     C_R   0.586074 0.786372 0.506101 0.326616
C52   C     C_R   0.653859 0.878610 0.511688 -0.266115
C53   C     C_R   0.577515 0.941197 0.485842 0.088419
C54   C     C_R   0.440402 0.755636 0.475128 -0.498935
H51   H     H_    0.358810 0.949106 0.436347 0.142223
H52   H     H_    0.878862 0.032790 0.533958 0.158244
H53   H     H_    0.763952 0.899541 0.537387 0.154634
H54   H     H_    0.437447 0.085990 0.456002 0.147651
H55   H     H_    0.385400 0.685261 0.472088 0.168813
C55   C     C_3   0.874128 0.316373 0.488957 -0.225911
C56   C     C_3   0.807979 0.360031 0.546521 -0.512434
H56   H     H_    0.681757 0.329236 0.547325 0.218746
H57   H     H_    0.838105 0.340011 0.588757 0.147893
H58   H     H_    0.822123 0.432970 0.548409 0.252427
H59   H     H_    0.007348 0.326118 0.483386 0.231818
H60   H     H_    0.843020 0.344482 0.450127 0.230825

loop_
_geom_bond_atom_site_label_1
_geom_bond_atom_site_label_2
_geom_bond_distance
_ccdc_geom_bond_type
P4    C34   1.853010 S    
C12   H28   1.109373 S    
H38   C16   1.110829 S    
C11   H26   1.097400 S    
P5    C44   1.885188 S    
C47   H54   1.075531 S    
C2    H4    1.114140 S    
C34   C35   1.341698 D    
O12   Ba2   2.804331 S    
P4    O13   1.549833 S    
C14   H33   1.108578 S    
C29   C30   1.420970 A    
C4    C5    1.522197 S    
C13   H32   1.106098 S    
O4    P6    1.546545 D    
C40   H48   1.082339 S    
C5    H10   1.110716 S    
C2    H5    1.111077 S    
O11   C2    1.402710 S    
C46   C53   1.519906 S    
H1    C10   1.111734 S    
C30   O27   1.221899 D    
C12   H29   1.109250 S    
C27   C28   1.400232 A    
C35   C36   1.520650 S    
P6    C38   1.851532 S    
C6    C7    1.524192 S    
O13   Ba2   2.937101 S    
P2    C51   1.856960 S    
C42   H50   1.075065 S    
O1    Ba1   2.803794 S    
P1    O1    1.529236 D    
P1    C39   1.861368 S    
C56   H58   1.090122 S    
C37   C41   1.419120 A    
N2    C31   1.391751 Am   
C25   C26   1.407670 A    
C23   C24   1.401990 A    
C49   C53   1.416440 A    
C8    C9    1.520873 S    
C19   O25   1.221603 D    
C18   C22   1.410185 A    
C13   C14   1.518545 S    
P2    O10   1.751913 S    
C28   C29   1.408174 A    
P7    O21   1.594545 D    
C32   H47   1.085190 S    
C37   H44   1.082425 S    
O6    P6    1.750285 S    
P5    O18   1.548460 D    
C34   C42   1.316032 D    
C8    H19   1.111030 S    
C12   H27   1.110427 S    
C11   C12   1.521714 S    
C10   H23   1.110534 S    
C55   H60   1.090611 S    
P2    Ba1   3.416514 S    
C18   C19   1.423229 A    
C51   C52   1.407958 A    
Ba1   Ba2   4.610131 S    
O16   P7    1.778152 S    
O6    C10   1.405112 S    
C32   C33   1.514692 S    
P5    O17   1.791484 S    
N1    C20   1.393784 Am   
C14   H34   1.110642 S    
C22   C26   1.430727 A    
C26   C29   1.410277 A    
C11   O22   1.406080 S    
O19   C13   1.403214 S    
C13   H31   1.108365 S    
C31   O28   1.220849 D    
P1    O5    1.758389 S    
P3    C50   1.836953 S    
H41   C28   1.083174 S    
C45   C46   1.424840 A    
C2    C3    1.519007 S    
C23   H45   1.083123 S    
C30   N2    1.390123 Am   
C51   C54   1.393678 A    
O16   Ba2   2.917744 S    
P4    O15   1.750703 S    
Ba2   O20   2.797348 S    
C4    H8    1.103121 S    
C15   H37   1.113668 S    
C7    H17   1.108425 S    
P1    Ba1   3.379097 S    
C35   H46   1.085006 S    
P1    O2    1.549861 S    
O10   C8    1.393761 S    
C9    H20   1.110645 S    
C4    O15   1.396216 S    
C54   H55   1.081963 S    
P4    Ba2   3.379711 S    
P2    O20   1.575760 S    
P4    O12   1.529548 D    
C49   C50   1.393234 A    
C45   H52   1.076332 S    
C6    H13   1.110547 S    
Ba2   O21   2.863991 S    
N1    C36   1.474697 S    
C9    H21   1.109917 S    
O3    Ba1   2.773925 S    
P3    O11   1.747570 S    
H42   C27   1.083194 S    
C8    H18   1.107382 S    
C16   H40   1.110542 S    
P7    C48   1.902065 S    
C20   C21   1.418512 A    
C55   H59   1.099704 S    
C1    H3    1.110674 S    
C43   C44   1.400208 A    
C1    H24   1.110321 S    
C17   C38   1.392514 A    
P8    C33   1.876284 S    
C7    H16   1.109976 S    
O2    Ba2   2.784552 S    
Ba1   O16   2.797985 S    
C32   C36   1.362141 D    
P8    O23   1.547985 D    
C40   C41   1.422438 A    
C1    H2    1.110611 S    
C14   H35   1.109259 S    
C49   H51   1.075217 S    
C55   C56   1.538677 S    
O14   Ba2   2.773250 S    
C52   H53   1.076457 S    
C5    H12   1.110818 S    
C43   C55   1.473956 S    
C50   C54   1.394368 A    
O7    Ba1   2.863882 S    
C46   C47   1.429395 A    
O8    Ba1   2.740993 S    
C25   C31   1.420389 A    
C39   C40   1.413271 A    
C19   N1    1.390362 Am   
C44   C45   1.400571 A    
C4    H9    1.109540 S    
C15   O24   1.408936 S    
C47   C48   1.398039 A    
C21   C27   1.409720 A    
O5    C6    1.395822 S    
P3    O8    1.738938 S    
P2    O7    1.509586 D    
Ba1   O20   2.918662 S    
N2    C41   1.469115 S    
C37   C38   1.408273 A    
C3    H6    1.110974 S    
C33   C42   1.493969 S    
C15   C16   1.520131 S    
C5    H11   1.106638 S    
C21   C22   1.406931 A    
C6    H14   1.094516 S    
C3    H7    1.110787 S    
C56   H57   1.098786 S    
O2    Ba1   2.936256 S    
C24   H43   1.083179 S    
C9    H22   1.110887 S    
Ba1   O13   2.783937 S    
C11   H25   1.098083 S    
C43   C48   1.415574 A    
C16   H39   1.110207 S    
C18   C23   1.409033 A    
C7    H15   1.110558 S    
C20   O26   1.220934 D    
P3    O9    1.545646 D    
O3    P6    1.757250 S    
C24   C25   1.409892 A    
C52   C53   1.425226 A    
P7    O22   1.758718 S    
C17   C39   1.394288 A    
C3    H30   1.109601 S    
C15   H36   1.111992 S    
C17   H49   1.082245 S    
C1    C10   1.520211 S    
C56   H56   1.073490 S    
P8    O24   1.747918 S    
P5    O19   1.752935 S    
O14   P8    1.756198 S    
O17   Ba2   2.741537 S    
