data_mof_unit_32480.cif
_audit_creation_date              2012-12-10T19:11:28-0500
_audit_creation_method            fapswitch 2.2
_symmetry_space_group_name_H-M    P1
_symmetry_Int_Tables_number       1
_space_group_crystal_system       triclinic
_cell_length_a                    10.651975
_cell_length_b                    9.859567
_cell_length_c                    10.510921
_cell_angle_alpha                 90.531104
_cell_angle_beta                  89.370901
_cell_angle_gamma                 89.597072
_cell_volume                      1103.7554499

loop_
_atom_site_label
_atom_site_type_symbol
_atom_type_description
_atom_site_fract_x
_atom_site_fract_y
_atom_site_fract_z
_atom_type_partial_charge
C1    C     C_R   0.258366 0.500199 0.510452 0.803965
C2    C     C_3   0.510368 0.499255 0.122847 -0.052941
C3    C     C_3   0.065951 0.623377 0.596608 -0.171010
C4    C     C_3   0.069553 0.362797 0.575136 -0.165555
C5    C     C_3   0.921706 0.613183 0.600681 -0.388400
C6    C     C_3   0.925615 0.360127 0.560623 -0.358391
C7    C     C_3   0.074449 0.509989 0.379033 -0.405780
C8    C     C_3   0.120706 0.499262 0.518474 -0.034705
C9    C     C_3   0.877640 0.498511 0.509935 0.107027
C10   C     C_3   0.931347 0.521442 0.375389 -0.416176
C11   C     C_3   0.389761 0.081868 0.426676 0.146618
C12   C     C_3   0.384501 0.920260 0.436094 0.141095
C13   C     C_3   0.614915 0.079119 0.435534 -0.308123
C14   C     C_3   0.610875 0.918326 0.428384 -0.333046
C15   C     C_3   0.497887 0.082697 0.629466 -0.156585
C16   C     C_3   0.506533 0.921340 0.629708 -0.150998
C17   C     C_R   0.502268 0.499571 0.257710 0.891476
C18   C     C_R   0.741708 0.499518 0.503511 0.828686
C19   C     C_R   0.511032 0.500349 0.741332 0.851398
C20   C     C_3   0.435897 0.599254 0.040821 -0.145834
C21   C     C_3   0.474614 0.377525 0.038945 -0.207288
C22   C     C_3   0.400163 0.477290 0.954926 -0.245106
C23   C     C_3   0.520178 0.500720 0.876247 -0.112224
C24   C     C_3   0.556606 0.618695 0.962420 0.262912
C25   C     C_3   0.593661 0.404355 0.960445 0.229504
C26   C     C_3   0.632521 0.522912 0.046931 -0.226510
H1    H     H_    0.305418 0.457579 0.916713 0.152445
H2    H     H_    0.903534 0.623722 0.340915 0.176482
H3    H     H_    0.893833 0.445049 0.307191 0.162380
H4    H     H_    0.303340 0.122218 0.472775 0.173155
H5    H     H_    0.302622 0.899383 0.498107 0.181887
H6    H     H_    0.629564 0.121862 0.339225 0.163957
H7    H     H_    0.612909 0.884021 0.327612 0.155377
H8    H     H_    0.583761 0.119416 0.677357 0.093145
H9    H     H_    0.599802 0.893256 0.669178 0.098260
H10   H     H_    0.699491 0.110370 0.489353 0.163583
H11   H     H_    0.698767 0.877026 0.469502 0.170431
H12   H     H_    0.372220 0.681399 0.074327 0.151359
H13   H     H_    0.445470 0.275412 0.069368 0.160957
H14   H     H_    0.726205 0.542599 0.088268 0.135527
H15   H     H_    0.091002 0.717964 0.545420 0.172378
H16   H     H_    0.108028 0.276290 0.517733 0.155503
H17   H     H_    0.885725 0.591610 0.698375 0.188374
H18   H     H_    0.875407 0.336201 0.650847 0.217417
H19   H     H_    0.882066 0.713333 0.573050 0.175150
H20   H     H_    0.901559 0.277680 0.492053 0.158087
H21   H     H_    0.115486 0.599321 0.331614 0.182813
H22   H     H_    0.104557 0.419040 0.323198 0.175811
N1    N     N_3   0.499750 0.138610 0.497240 -0.077929
N2    N     N_3   0.499750 0.861390 0.497240 -0.073140
O1    O     O_R   0.314910 0.616040 0.499970 -0.560910
O2    O     O_R   0.314910 0.383960 0.499970 -0.627456
O3    O     O_R   0.500080 0.616020 0.313900 -0.610359
O4    O     O_R   0.500080 0.383980 0.313900 -0.600105
O5    O     O_R   0.685320 0.616040 0.499930 -0.643787
O6    O     O_R   0.685320 0.383960 0.499930 -0.637543
O7    O     O_R   0.500150 0.616060 0.686000 -0.599436
O8    O     O_R   0.500150 0.383940 0.686000 -0.658659
Zn1   Zn    Zn3+2 0.500150 0.654960 0.499940 0.958194
Zn2   Zn    Zn3+2 0.500150 0.345040 0.499940 0.926141
N3    N     N_2   0.388701 0.129144 0.295416 -0.271789
H23   H     H_    0.452241 0.089849 0.230062 0.202570
C27   C     C_3   0.274725 0.189662 0.246030 -0.779191
H24   H     H_    0.263195 0.160075 0.144667 0.227331
H25   H     H_    0.281243 0.301490 0.251548 0.260043
H26   H     H_    0.189840 0.156678 0.299386 0.218821
N4    N     N_2   0.359699 0.852369 0.315145 -0.256333
H27   H     H_    0.425373 0.862203 0.243630 0.219248
C28   C     C_3   0.231160 0.846422 0.271531 -0.803109
H28   H     H_    0.219165 0.754216 0.212274 0.234352
H29   H     H_    0.209341 0.934087 0.210846 0.254073
H30   H     H_    0.162913 0.842619 0.351943 0.226706
C29   C     C_2   0.389942 0.138182 0.711716 0.365969
H31   H     H_    0.409904 0.196123 0.797204 0.077783
O9    O     O_2   0.281149 0.107499 0.691518 -0.606552
C30   C     C_2   0.414466 0.863313 0.725478 0.548895
H32   H     H_    0.427356 0.884317 0.825757 0.063615
O10   O     O_2   0.322085 0.800935 0.693615 -0.567600
N5    N     N_2   0.606872 0.744679 0.915270 -0.315979
H33   H     H_    0.684948 0.730467 0.857687 0.231409
C31   C     C_3   0.622766 0.850203 0.009799 -0.869015
H34   H     H_    0.663388 0.941089 0.963917 0.243965
H35   H     H_    0.686840 0.815581 0.085832 0.252301
H36   H     H_    0.530439 0.879647 0.051488 0.233763
N6    N     N_2   0.679314 0.300370 0.913875 -0.297284
H37   H     H_    0.637411 0.233646 0.852244 0.209319
C32   C     C_3   0.750012 0.232234 0.011312 -0.748927
H38   H     H_    0.814359 0.156329 0.966290 0.261605
H39   H     H_    0.685534 0.179304 0.077952 0.211111
H40   H     H_    0.807685 0.306107 0.065025 0.250428
C33   C     C_2   0.116574 0.638967 0.729857 0.542494
H41   H     H_    0.200757 0.585545 0.757892 0.035506
O11   O     O_2   0.068523 0.719667 0.804981 -0.555063
C34   C     C_2   0.111976 0.338987 0.710717 0.458679
H42   H     H_    0.210546 0.348586 0.732660 0.067418
O12   O     O_2   0.039037 0.309894 0.796518 -0.570060

loop_
_geom_bond_atom_site_label_1
_geom_bond_atom_site_label_2
_ccdc_geom_bond_type
C7    C10   S    
C32   H38   S    
C27   H25   S    
O5    Zn1   S    
C1    C8    S    
C29   H31   S    
C13   H6    S    
C4    C8    S    
C14   H7    S    
C31   H34   S    
O3    Zn1   S    
C7    C8    S    
O4    Zn2   S    
N6    H37   S    
C19   O7    A    
N1    Zn2   S    
N2    Zn1   S    
C24   C26   S    
C28   H28   S    
C16   H9    S    
O7    Zn1   S    
O8    Zn2   S    
C15   C16   S    
C3    C33   S    
C28   H29   S    
O2    Zn2   S    
C20   C24   S    
C11   H4    S    
C23   C24   S    
C9    C10   S    
C15   H8    S    
C18   O6    A    
C15   N1    S    
C5    H17   S    
C27   H26   S    
C6    H18   S    
C21   C22   S    
C2    C17   S    
C29   O9    D    
N3    H23   S    
C6    C9    S    
C31   H35   S    
N6    C32   S    
C19   O8    A    
C12   N4    S    
C2    C20   S    
N4    H27   S    
C30   H32   S    
C13   H10   S    
C4    C6    S    
C3    C8    S    
C33   H41   S    
N5    C31   S    
C3    C5    S    
C25   C26   S    
C5    H19   S    
O6    Zn2   S    
N4    C28   S    
C7    H21   S    
C28   H30   S    
C19   C23   S    
C5    C9    S    
C11   N1    S    
C33   O11   D    
C20   H12   S    
C24   N5    S    
C21   H13   S    
C2    C21   S    
C25   N6    S    
C2    C26   S    
C34   O12   D    
C1    O1    A    
C18   O5    A    
C4    C34   S    
C15   C29   S    
C20   C22   S    
C22   H1    S    
C32   H39   S    
C12   H5    S    
C13   N1    S    
N5    H33   S    
O1    Zn1   S    
C17   O3    A    
C31   H36   S    
C10   H2    S    
C21   C25   S    
C3    H15   S    
C6    H20   S    
C16   C30   S    
N3    C27   S    
C30   O10   D    
C11   N3    S    
C12   N2    S    
C11   C12   S    
C7    H22   S    
C14   H11   S    
C10   H3    S    
C26   H14   S    
C14   N2    S    
C4    H16   S    
C23   C25   S    
C34   H42   S    
C16   N2    S    
C1    O2    A    
C27   H24   S    
C9    C18   S    
C32   H40   S    
C22   C23   S    
C13   C14   S    
C17   O4    A    
