data_mof_unit_16516.cif
_audit_creation_date              2012-12-11T16:28:31-0500
_audit_creation_method            fapswitch 2.2
_symmetry_space_group_name_H-M    P1
_symmetry_Int_Tables_number       1
_space_group_crystal_system       triclinic
_cell_length_a                    16.697212
_cell_length_b                    7.253508
_cell_length_c                    15.072325
_cell_angle_alpha                 89.003948
_cell_angle_beta                  94.56568
_cell_angle_gamma                 89.224777
_cell_volume                      1819.18862223

loop_
_atom_site_label
_atom_site_type_symbol
_atom_type_description
_atom_site_fract_x
_atom_site_fract_y
_atom_site_fract_z
_atom_type_partial_charge
O1    O     O_R   0.663460 0.361760 0.165970 -0.543096
O2    O     O_R   0.336540 0.638240 0.834030 -0.543096
O3    O     O_R   0.836540 0.861760 0.334030 -0.529274
O4    O     O_R   0.163460 0.138240 0.665970 -0.529274
O5    O     O_R   0.827100 0.689870 0.163730 -0.520132
O6    O     O_R   0.172900 0.310130 0.836270 -0.520132
O7    O     O_R   0.672900 0.189870 0.336270 -0.528684
O8    O     O_R   0.327100 0.810130 0.663730 -0.528683
C1    C     C_R   0.853444 0.523101 0.143737 0.770203
C2    C     C_R   0.146556 0.476899 0.856263 0.770202
C3    C     C_R   0.646404 0.023039 0.355977 0.775190
C4    C     C_R   0.353596 0.976961 0.644023 0.775189
O9    O     O_R   0.663490 0.691370 0.155500 -0.528858
O10   O     O_R   0.336510 0.308630 0.844500 -0.528857
O11   O     O_R   0.836510 0.191370 0.344500 -0.544532
O12   O     O_R   0.163490 0.808630 0.655500 -0.544532
O13   O     O_R   0.671770 0.863320 0.325740 -0.521020
O14   O     O_R   0.328230 0.136680 0.674260 -0.521021
O15   O     O_R   0.828230 0.363320 0.174260 -0.528327
O16   O     O_R   0.171770 0.636680 0.825740 -0.528327
C5    C     C_R   0.636670 0.524935 0.132545 0.786003
C6    C     C_R   0.363330 0.475065 0.867454 0.786002
C7    C     C_R   0.863382 0.020517 0.366912 0.788128
C8    C     C_R   0.136618 0.979483 0.633088 0.788128
O17   O     O_3   0.752910 0.528800 0.305860 -0.384048
O18   O     O_3   0.247090 0.471200 0.694140 -0.384047
O19   O     O_3   0.747090 0.028800 0.194140 -0.382166
O20   O     O_3   0.252910 0.971200 0.805860 -0.382166
V1    V     V_3+5 0.749460 0.803010 0.239640 1.490748
V2    V     V_3+5 0.250540 0.196990 0.760360 1.490749
V3    V     V_3+5 0.750540 0.303010 0.260360 1.477838
V4    V     V_3+5 0.249460 0.696990 0.739640 1.477838
C9    C     C_1   0.468915 0.994758 0.530223 0.071568
C10   C     C_1   0.531084 0.005242 0.469777 0.071568
C11   C     C_1   0.031134 0.494544 0.969866 0.073416
C12   C     C_1   0.968866 0.505456 0.030134 0.073416
C13   C     C_R   0.032165 0.994080 0.314392 -0.111095
C14   C     C_R   0.967835 0.005919 0.685608 -0.111095
C15   C     C_R   0.467691 0.520405 0.185301 -0.111064
C16   C     C_R   0.532308 0.479595 0.814698 -0.111064
C17   C     C_R   0.112328 0.979419 0.291837 -0.118596
C18   C     C_R   0.887672 0.020580 0.708163 -0.118596
C19   C     C_R   0.387545 0.517024 0.208492 -0.121034
C20   C     C_R   0.612455 0.482976 0.791508 -0.121033
C21   C     C_R   0.175282 0.002737 0.356758 -0.118180
C22   C     C_R   0.824718 0.997262 0.643242 -0.118180
C23   C     C_R   0.325781 0.476443 0.144668 -0.119806
C24   C     C_R   0.674219 0.523557 0.855332 -0.119806
C25   C     C_R   0.159023 0.034030 0.444944 0.360283
C26   C     C_R   0.840977 0.965969 0.555055 0.360282
C27   C     C_R   0.343085 0.438718 0.057459 0.358004
C28   C     C_R   0.656915 0.561282 0.942540 0.358004
C29   C     C_R   0.079964 0.009601 0.473214 -0.023714
C30   C     C_R   0.920035 0.990399 0.526786 -0.023715
C31   C     C_R   0.420888 0.474655 0.027738 -0.025535
C32   C     C_R   0.579112 0.525345 0.972262 -0.025535
C33   C     C_R   0.014063 0.002563 0.406533 -0.039191
C34   C     C_R   0.985937 0.997437 0.593467 -0.039191
C35   C     C_R   0.486026 0.505777 0.093416 -0.037718
C36   C     C_R   0.513974 0.494223 0.906584 -0.037718
C37   C     C_R   0.066293 0.997267 0.565808 -0.148016
C38   C     C_R   0.933707 0.002733 0.434192 -0.148017
C39   C     C_R   0.434097 0.477373 0.934807 -0.148993
C40   C     C_R   0.565903 0.522627 0.065193 -0.148993
C41   C     C_1   0.416216 0.986140 0.581767 -0.120953
C42   C     C_1   0.583784 0.013860 0.418233 -0.120953
C43   C     C_1   0.083909 0.485757 0.918447 -0.121459
C44   C     C_1   0.916091 0.514243 0.081552 -0.121459
O21   O     O_3   0.221007 0.097763 0.502037 -0.578546
C45   C     C_3   0.223097 0.291816 0.492070 -0.151882
H1    H     H_    0.168783 0.357564 0.516875 0.128964
H2    H     H_    0.228862 0.336309 0.421843 0.134918
H3    H     H_    0.276590 0.343138 0.531873 0.192498
O22   O     O_3   0.778993 0.902236 0.497963 -0.578546
C46   C     C_3   0.776904 0.708183 0.507929 -0.151879
H4    H     H_    0.771141 0.663688 0.578156 0.134915
H5    H     H_    0.831216 0.642436 0.483120 0.128966
H6    H     H_    0.723409 0.656862 0.468128 0.192497
O23   O     O_3   0.283308 0.358918 0.002851 -0.574986
C47   C     C_3   0.287463 0.165987 0.018257 -0.143435
H7    H     H_    0.279872 0.128603 0.088974 0.135753
H8    H     H_    0.345126 0.106882 0.998434 0.119660
H9    H     H_    0.237845 0.101175 0.977243 0.191227
O24   O     O_3   0.716692 0.641082 0.997149 -0.574986
C48   C     C_3   0.712537 0.834013 0.981743 -0.143436
H10   H     H_    0.720130 0.871396 0.911026 0.135754
H11   H     H_    0.762155 0.898824 0.022758 0.191227
H12   H     H_    0.654875 0.893119 0.001565 0.119660
C49   C     C_1   0.130315 0.948270 0.200290 0.357648
N1    N     N_1   0.144335 0.922981 0.127485 -0.356578
C50   C     C_1   0.869685 0.051729 0.799710 0.357647
N2    N     N_1   0.855665 0.077018 0.872515 -0.356578
C51   C     C_1   0.368632 0.546792 0.299884 0.358741
N3    N     N_1   0.353827 0.570476 0.372574 -0.355622
C52   C     C_1   0.631368 0.453209 0.700116 0.358742
N4    N     N_1   0.646172 0.429525 0.627426 -0.355622
C53   C     C_1   0.742262 0.992991 0.667173 0.374296
N5    N     N_1   0.676536 0.988751 0.686317 -0.363807
C54   C     C_1   0.257738 0.007007 0.332827 0.374295
N6    N     N_1   0.323464 0.011246 0.313683 -0.363807
C55   C     C_1   0.756433 0.536877 0.831207 0.372449
N7    N     N_1   0.821964 0.547748 0.811959 -0.362040
C56   C     C_1   0.243567 0.463122 0.168793 0.372450
N8    N     N_1   0.178036 0.452251 0.188041 -0.362040
C57   C     C_1   0.971982 0.002910 0.239454 0.281448
N9    N     N_1   0.925687 0.011257 0.178117 -0.306278
C58   C     C_1   0.028018 0.997090 0.760546 0.281448
N10   N     N_1   0.074313 0.988743 0.821883 -0.306278
C59   C     C_1   0.527824 0.537619 0.259501 0.282017
N11   N     N_1   0.574087 0.549414 0.320407 -0.312336
C60   C     C_1   0.472176 0.462381 0.740499 0.282016
N12   N     N_1   0.425913 0.450586 0.679592 -0.312336

loop_
_geom_bond_atom_site_label_1
_geom_bond_atom_site_label_2
_ccdc_geom_bond_type
O17   V3    S    
C17   C49   S    
O1    C5    A    
C51   N3    T    
C16   C36   A    
C31   C35   A    
O19   V1    S    
O13   V1    S    
O3    C7    A    
C52   N4    T    
O15   V3    S    
C10   C42   T    
C53   N5    T    
C9    C41   T    
C33   C38   A    
C2    C43   S    
O7    C3    A    
C35   C40   A    
C8    C37   S    
C36   C39   A    
O9    V1    S    
C14   C18   A    
C24   C28   A    
C26   O22   S    
C30   C34   A    
O4    C8    A    
O1    V3    S    
O2    V4    S    
C18   C50   S    
C18   C22   A    
C14   C58   S    
C28   O24   S    
C5    C40   S    
C6    C39   S    
C14   C34   A    
C29   C37   A    
C1    O15   A    
C7    C38   S    
C60   N12   T    
C2    O16   A    
C31   C39   A    
O2    C6    A    
C58   N10   T    
C32   C40   A    
C45   H1    S    
O14   V2    S    
C11   C43   T    
C16   C20   A    
C3    C42   S    
C34   C37   A    
O11   C7    A    
O12   C8    A    
C25   O21   S    
O10   V2    S    
C47   H9    S    
C16   C60   S    
O5    V1    S    
C48   H11   S    
O7    V3    S    
O22   C46   S    
O8    V4    S    
C55   N7    T    
C23   C56   S    
O24   C48   S    
C47   H8    S    
C21   C54   S    
C50   N2    T    
C29   C33   A    
O18   V4    S    
C15   C19   A    
C30   C38   A    
C48   H10   S    
O4    V2    S    
C32   C36   A    
C11   C12   S    
C46   H4    S    
C13   C57   S    
C4    C41   S    
C54   N6    T    
C21   C25   A    
O8    C4    A    
C15   C35   A    
C45   H3    S    
C9    C10   S    
O9    C5    A    
C26   C30   A    
C46   H5    S    
O6    V2    S    
C22   C53   S    
O16   V4    S    
C48   H12   S    
C3    O13   A    
O5    C1    A    
C47   H7    S    
O6    C2    A    
C23   C27   A    
C12   C44   T    
O11   V3    S    
O12   V4    S    
C57   N9    T    
C22   C26   A    
O10   C6    A    
O20   V2    S    
C1    C44   S    
C20   C52   S    
C59   N11   T    
O3    V1    S    
C25   C29   A    
C24   C55   S    
C19   C51   S    
C27   C31   A    
C13   C17   A    
O21   C45   S    
C46   H6    S    
C27   O23   S    
O23   C47   S    
C28   C32   A    
C15   C59   S    
C4    O14   A    
C56   N8    T    
C17   C21   A    
C45   H2    S    
C49   N1    T    
C19   C23   A    
C13   C33   A    
C20   C24   A    
