data_mof_unit_56671.cif
_audit_creation_date              2012-12-11T15:59:48-0500
_audit_creation_method            fapswitch 2.2
_symmetry_space_group_name_H-M    P1
_symmetry_Int_Tables_number       1
_space_group_crystal_system       triclinic
_cell_length_a                    10.73122
_cell_length_b                    10.71811
_cell_length_c                    17.103417
_cell_angle_alpha                 99.661371
_cell_angle_beta                  100.13026
_cell_angle_gamma                 60.406266
_cell_volume                      1676.36674057

loop_
_atom_site_label
_atom_site_type_symbol
_atom_type_description
_atom_site_fract_x
_atom_site_fract_y
_atom_site_fract_z
_atom_type_partial_charge
C1    C     C_R   0.356059 0.769228 0.397839 0.531203
C2    C     C_R   0.819888 0.349534 0.323977 0.004393
C3    C     C_R   0.356314 0.815466 0.157621 -0.000468
C4    C     C_R   0.398044 0.368241 0.353969 0.565253
C5    C     C_R   0.448841 0.849255 0.216756 0.017982
C6    C     C_R   0.433773 0.855664 0.297975 0.012952
C7    C     C_R   0.282559 0.740357 0.256825 -0.142776
C8    C     C_R   0.284223 0.749678 0.177981 -0.141994
C9    C     C_R   0.554297 0.878241 0.197796 -0.103822
C10   C     C_R   0.630851 0.926867 0.257068 -0.132986
C11   C     C_R   0.607903 0.944179 0.336338 -0.093944
C12   C     C_R   0.855846 0.203776 0.197166 0.033080
C13   C     C_R   0.507873 0.912098 0.356869 -0.085595
C14   C     C_R   0.347909 0.801723 0.317518 0.010434
C15   C     C_R   0.300622 0.278730 0.799907 -0.001310
C16   C     C_R   0.774641 0.378090 0.402960 0.545354
C17   C     C_R   0.426970 0.176400 0.763389 0.003309
C18   C     C_R   0.479560 0.223419 0.712156 0.022946
C19   C     C_R   0.251552 0.448587 0.707494 -0.143503
C20   C     C_R   0.213137 0.413695 0.770671 -0.140567
C21   C     C_R   0.505966 0.029939 0.779303 -0.053132
C22   C     C_R   0.645404 0.940058 0.757695 0.155879
C23   C     C_R   0.865840 0.213238 0.281081 0.019272
C24   C     C_R   0.706211 0.995843 0.717649 -0.105833
C25   C     C_R   0.624774 0.135555 0.695453 -0.118595
C26   C     C_R   0.383066 0.353374 0.676711 -0.001728
C27   C     C_1   0.770152 0.368649 0.714711 -0.057901
C28   C     C_R   0.358462 0.768555 0.627687 0.545275
C29   C     C_1   0.814697 0.329912 0.780730 -0.046808
C30   C     C_1   0.339838 0.808346 0.709773 -0.044537
C31   C     C_1   0.313432 0.836186 0.777652 -0.057482
C32   C     C_R   0.891102 0.308800 0.087051 0.541974
C33   C     C_R   0.297284 0.268122 0.124447 0.575836
C34   C     C_R   0.780280 0.471335 0.284801 -0.142890
C35   C     C_R   0.298869 0.886719 0.084050 0.546212
C36   C     C_R   0.879796 0.300807 0.860314 0.549541
C37   C     C_R   0.279110 0.253741 0.876910 0.550032
C38   C     C_R   0.279192 0.884175 0.857318 0.541927
C39   C     C_R   0.408434 0.375374 0.600149 0.534805
C40   C     C_R   0.719075 0.411568 0.635540 0.539701
C41   C     C_1   0.354305 0.341996 0.273239 -0.037160
C42   C     C_1   0.324476 0.311645 0.205011 -0.032349
C43   C     C_R   0.830287 0.326197 0.160420 0.000663
C44   C     C_3   0.759391 0.777406 0.861400 -0.300552
C45   C     C_R   0.786245 0.459551 0.204485 -0.156598
C46   C     C_R   0.874432 0.071725 0.153940 -0.061119
C47   C     C_R   0.925070 0.948566 0.192879 -0.137283
C48   C     C_R   0.951202 0.955550 0.275630 -0.135208
C49   C     C_R   0.920278 0.086877 0.319701 -0.091864
Cr1   Cr    Cr6+3 0.608100 0.610860 0.522250 1.016213
Cr2   Cr    Cr6+3 0.288890 0.599990 0.488420 1.009991
Cr3   Cr    Cr6+3 0.603040 0.289190 0.489390 0.987527
Cr4   Cr    Cr6+3 0.053960 0.052250 0.967380 1.004877
Cr5   Cr    Cr6+3 0.059890 0.373160 0.992710 0.999356
Cr6   Cr    Cr6+3 0.373370 0.061690 0.991710 0.984140
H1    H     H_    0.741240 0.578447 0.315855 0.158729
H2    H     H_    0.845925 0.062141 0.090294 0.139388
H3    H     H_    0.762589 0.554487 0.177443 0.137715
H4    H     H_    0.941447 0.847872 0.158861 0.102247
H5    H     H_    0.989389 0.860189 0.305932 0.125948
H6    H     H_    0.940747 0.088287 0.383999 0.132942
H7    H     H_    0.227766 0.685614 0.270050 0.135816
H8    H     H_    0.583882 0.858134 0.138010 0.137366
H9    H     H_    0.220563 0.714200 0.133072 0.139522
H10   H     H_    0.811994 0.730168 0.745212 0.255459
H11   H     H_    0.821554 0.661104 0.870259 0.170741
H12   H     H_    0.706709 0.952882 0.240965 0.134903
H13   H     H_    0.659914 0.824929 0.891497 0.160263
H14   H     H_    0.826180 0.829430 0.889140 0.133136
H15   H     H_    0.668325 0.981991 0.382085 0.136987
H16   H     H_    0.489738 0.932119 0.418996 0.140872
H17   H     H_    0.178257 0.550016 0.682670 0.142899
H18   H     H_    0.460292 0.984688 0.808847 0.157030
H19   H     H_    0.115439 0.492359 0.796733 0.138050
H20   H     H_    0.815717 0.930571 0.702365 0.111299
H21   H     H_    0.677009 0.172554 0.664473 0.155599
N1    N     N_2   0.724480 0.794533 0.776895 -0.509989
O1    O     O_R   0.749810 0.499790 0.438040 -0.513088
O2    O     O_R   0.411730 0.181020 0.091530 -0.506615
O3    O     O_R   0.365010 0.944360 0.063320 -0.526602
O4    O     O_R   0.477660 0.726260 0.439290 -0.508077
O5    O     O_R   0.159380 0.906670 0.876210 -0.502270
O6    O     O_R   0.930820 0.177420 0.886730 -0.489932
O7    O     O_R   0.910360 0.395420 0.895720 -0.535763
O8    O     O_R   0.186010 0.361730 0.919870 -0.491755
O9    O     O_R   0.400000 0.173010 0.914630 -0.517555
O10   O     O_R   0.354140 0.936940 0.899340 -0.541756
O11   O     O_3   0.162410 0.162370 0.983930 -0.270812
O12   O     O_R   0.298970 0.468800 0.557390 -0.484449
O13   O     O_R   0.260150 0.743000 0.412270 -0.532342
O14   O     O_R   0.297740 0.466550 0.394720 -0.488670
O15   O     O_R   0.488080 0.253500 0.386430 -0.507796
O16   O     O_R   0.722670 0.303800 0.421940 -0.515565
O17   O     O_R   0.751130 0.502220 0.613520 -0.485072
O18   O     O_R   0.478890 0.728510 0.601960 -0.494216
O19   O     O_R   0.261470 0.745430 0.587750 -0.523455
O20   O     O_R   0.489400 0.255930 0.561910 -0.517668
O21   O     O_R   0.723890 0.306050 0.584610 -0.527898
O22   O     O_3   0.500010 0.500010 0.500020 -0.294670
O23   O     O_R   0.171100 0.914680 0.053100 -0.513193
O24   O     O_R   0.941680 0.184840 0.050710 -0.510585
O25   O     O_R   0.922080 0.403420 0.072610 -0.526536
O26   O     O_R   0.196880 0.369150 0.083850 -0.492707

loop_
_geom_bond_atom_site_label_1
_geom_bond_atom_site_label_2
_ccdc_geom_bond_type
C34   H1    S    
C1    O13   A    
C27   C29   T    
C41   C42   T    
C35   O3    A    
C44   H11   S    
C19   C20   A    
C18   C26   A    
Cr5   O7    S    
C11   H15   S    
C7    C8    A    
C10   H12   S    
C29   C36   S    
Cr1   O22   S    
C28   O18   A    
C33   C42   S    
C37   O8    A    
C44   N1    S    
C12   C43   A    
Cr2   O13   S    
C40   O21   A    
C30   C31   T    
C26   C39   S    
C39   O20   A    
C4    C41   S    
C36   O6    A    
C1    O4    A    
C21   H18   S    
Cr3   O20   S    
Cr6   O11   S    
C19   C26   A    
C15   C37   S    
Cr2   O14   S    
C7    C14   A    
Cr4   O24   S    
C2    C16   S    
C9    C10   A    
C16   O1    A    
Cr2   O19   S    
C4    O14   A    
C2    C34   A    
C9    H8    S    
C21   C22   A    
C38   O5    A    
C19   H17   S    
C18   C25   A    
Cr1   O1    S    
C48   H5    S    
Cr4   O23   S    
Cr2   O22   S    
C15   C20   A    
C45   H3    S    
C49   H6    S    
Cr5   O26   S    
C44   H14   S    
H10   N1    S    
C24   C25   A    
C12   C46   A    
C3    C8    A    
C33   O2    A    
C13   H16   S    
C17   C21   A    
Cr4   O5    S    
C7    H7    S    
C5    C9    A    
C6    C14   A    
Cr6   O2    S    
C37   O9    A    
C47   C48   A    
C12   C23   A    
C3    C35   S    
C27   C40   S    
C17   C18   A    
C16   O16   A    
C20   H19   S    
Cr3   O16   S    
C34   C45   A    
C43   C45   A    
C8    H9    S    
C48   C49   A    
C46   H2    S    
C32   O25   A    
C44   H13   S    
C35   O23   A    
C15   C17   A    
C46   C47   A    
C33   O26   A    
Cr5   O25   S    
Cr1   O17   S    
C22   N1    S    
C40   O17   A    
C3    C5    A    
Cr5   O8    S    
C24   H20   S    
Cr3   O22   S    
C31   C38   S    
Cr4   O6    S    
C38   O10   A    
C28   O19   A    
C25   H21   S    
Cr6   O9    S    
C28   C30   S    
Cr2   O12   S    
C6    C13   A    
Cr5   O11   S    
Cr6   O3    S    
C11   C13   A    
C5    C6    A    
C36   O7    A    
Cr3   O21   S    
C32   C43   S    
Cr4   O11   S    
C22   C24   A    
Cr6   O10   S    
Cr1   O18   S    
C23   C49   A    
C10   C11   A    
C47   H4    S    
C2    C23   A    
C32   O24   A    
C1    C14   S    
C39   O12   A    
Cr3   O15   S    
Cr1   O4    S    
C4    O15   A    
