data_mof_unit_30621.cif
_audit_creation_date              2012-12-10T17:51:23-0500
_audit_creation_method            fapswitch 2.2
_symmetry_space_group_name_H-M    P1
_symmetry_Int_Tables_number       1
_space_group_crystal_system       triclinic
_cell_length_a                    9.981519
_cell_length_b                    10.653984
_cell_length_c                    16.452816
_cell_angle_alpha                 92.446822
_cell_angle_beta                  83.823235
_cell_angle_gamma                 89.550749
_cell_volume                      1737.76155174

loop_
_atom_site_label
_atom_site_type_symbol
_atom_type_description
_atom_site_fract_x
_atom_site_fract_y
_atom_site_fract_z
_atom_type_partial_charge
C1    C     C_R   0.499798 0.739165 0.496869 0.857439
C2    C     C_R   0.536313 0.456365 0.259711 -0.065385
C3    C     C_R   0.362312 0.865083 0.373723 -0.199877
C4    C     C_R   0.479702 0.494524 0.653567 0.841765
C5    C     C_R   0.302124 0.927928 0.314183 -0.141408
C6    C     C_R   0.311786 0.057652 0.310710 -0.133970
C7    C     C_R   0.379341 0.125107 0.367779 -0.187760
C8    C     C_R   0.437227 0.063086 0.430288 0.098185
C9    C     C_R   0.431628 0.931733 0.432175 0.105355
C10   C     C_R   0.498981 0.871667 0.491550 -0.109256
C11   C     C_R   0.569723 0.938622 0.547177 -0.216653
C12   C     C_R   0.353057 0.385477 0.766588 -0.212089
C13   C     C_R   0.571377 0.066795 0.546923 -0.202180
C14   C     C_R   0.503698 0.128224 0.490308 -0.107157
C15   C     C_R   0.833540 0.674047 0.598996 -0.145773
C16   C     C_R   0.501079 0.260775 0.497171 0.860016
C17   C     C_R   0.884661 0.770831 0.643261 -0.247887
C18   C     C_R   0.020459 0.777859 0.645539 -0.221422
C19   C     C_R   0.108232 0.686460 0.605159 0.138701
C20   C     C_R   0.060622 0.589780 0.550292 0.140357
C21   C     C_R   0.916147 0.587383 0.549052 0.141684
C22   C     C_R   0.938149 0.416796 0.452979 -0.111701
C23   C     C_R   0.466933 0.459669 0.123927 -0.136298
C24   C     C_R   0.080568 0.416747 0.452987 -0.118844
C25   C     C_R   0.520403 0.495801 0.346135 0.819452
C26   C     C_R   0.464553 0.457174 0.738254 -0.036681
C27   C     C_R   0.569195 0.476614 0.787143 -0.199330
C28   C     C_R   0.562993 0.424437 0.863368 -0.187333
C29   C     C_R   0.453335 0.348846 0.891186 0.171999
C30   C     C_R   0.347959 0.331134 0.842191 -0.167026
C31   C     C_R   0.461922 0.512609 0.202727 0.075735
C32   C     C_R   0.617314 0.349785 0.235674 -0.227826
C33   C     C_R   0.620326 0.296547 0.156712 -0.168634
C34   C     C_R   0.541608 0.348957 0.101465 0.128267
C35   C     C_2   0.439002 0.303276 0.975381 0.074730
C36   C     C_2   0.547970 0.297593 0.017036 -0.275341
H1    H     H_    0.656046 0.531623 0.766220 0.147968
H2    H     H_    0.727475 0.670531 0.607169 0.207560
H3    H     H_    0.817860 0.837737 0.679179 0.150964
H4    H     H_    0.058189 0.850814 0.684736 0.145618
H5    H     H_    0.141089 0.348370 0.414358 0.146296
H6    H     H_    0.674388 0.304911 0.279052 0.151643
H7    H     H_    0.648344 0.287397 0.984552 0.141060
H8    H     H_    0.261321 0.275443 0.862332 0.151461
H9    H     H_    0.413475 0.506536 0.079729 0.147249
H10   H     H_    0.271965 0.367373 0.729052 0.160488
H11   H     H_    0.643208 0.446214 0.900722 0.131796
H12   H     H_    0.681913 0.213609 0.139190 0.142433
H13   H     H_    0.449934 0.694172 0.241949 0.177683
H14   H     H_    0.308752 0.609429 0.268713 0.199865
H15   H     H_    0.275804 0.782025 0.625448 0.169973
H16   H     H_    0.230690 0.672765 0.693216 0.161465
H17   H     H_    0.255732 0.372069 0.023753 0.176822
H18   H     H_    0.308451 0.247633 0.073079 0.201747
H19   H     H_    0.620640 0.891550 0.592471 0.143195
H20   H     H_    0.354753 0.764361 0.372534 0.157405
H21   H     H_    0.249569 0.875537 0.269821 0.145905
H22   H     H_    0.267475 0.106132 0.263435 0.133981
H23   H     H_    0.387410 0.225382 0.361359 0.147679
H24   H     H_    0.622782 0.118530 0.592324 0.159711
H25   H     H_    0.892621 0.348401 0.414293 0.142044
N1    N     N_R   0.857140 0.501200 0.500750 -0.115156
N2    N     N_R   0.142740 0.501280 0.500770 -0.110029
N3    N     N_3   0.385089 0.625787 0.221948 -0.482583
N4    N     N_3   0.239067 0.690564 0.630765 -0.364372
N5    N     N_3   0.305096 0.284852 0.015508 -0.467668
O1    O     O_R   0.385310 0.683220 0.500000 -0.605631
O2    O     O_R   0.614640 0.683250 0.500010 -0.625740
O3    O     O_R   0.371780 0.500010 0.615800 -0.591320
O4    O     O_R   0.601110 0.500030 0.615800 -0.634693
O5    O     O_R   0.385360 0.316750 0.499990 -0.616282
O6    O     O_R   0.614690 0.316780 0.500000 -0.612368
O7    O     O_R   0.398890 0.499970 0.384200 -0.627692
O8    O     O_R   0.628220 0.499990 0.384200 -0.600366
Zn1   Zn    Zn3+2 0.346870 0.499980 0.499990 0.940376
Zn2   Zn    Zn3+2 0.653130 0.500020 0.500010 0.937657

loop_
_geom_bond_atom_site_label_1
_geom_bond_atom_site_label_2
_ccdc_geom_bond_type
C28   H11   S    
C23   H9    S    
H14   N3    S    
C6    H22   S    
C35   C36   D    
C16   O6    A    
O6    Zn2   S    
N1    Zn2   S    
C4    O4    A    
C7    C8    A    
C13   H24   S    
C26   C27   A    
O8    Zn2   S    
C22   C24   A    
C28   C29   A    
C25   O8    A    
C17   H3    S    
C5    C6    A    
C1    O2    A    
C2    C32   A    
C18   C19   A    
H15   N4    S    
C18   H4    S    
C19   C20   A    
C8    C9    A    
C19   N4    S    
C9    C10   A    
C25   O7    A    
H13   N3    S    
C13   C14   A    
C24   H5    S    
O7    Zn1   S    
C30   H8    S    
C16   O5    A    
C7    H23   S    
C4    O3    A    
C33   C34   A    
C12   H10   S    
C35   N5    S    
C12   C26   A    
C2    C31   A    
C23   C31   A    
C15   H2    S    
C29   C30   A    
C3    C9    A    
C22   N1    A    
C3    H20   S    
C23   C34   A    
C17   C18   A    
H17   N5    S    
C21   N1    A    
C24   N2    A    
O4    Zn2   S    
C14   C16   S    
O1    Zn1   S    
C11   H19   S    
C15   C17   A    
C8    C14   A    
C12   C30   A    
C31   N3    S    
C1    C10   S    
C3    C5    A    
C4    C26   S    
C6    C7    A    
H18   N5    S    
O2    Zn2   S    
C29   C35   S    
C5    H21   S    
C32   C33   A    
C20   N2    A    
C22   H25   S    
O5    Zn1   S    
C11   C13   A    
N2    Zn1   S    
C27   H1    S    
C1    O1    A    
O3    Zn1   S    
C2    C25   S    
C34   C36   S    
C10   C11   A    
C15   C21   A    
C20   C21   A    
C27   C28   A    
C33   H12   S    
C32   H6    S    
C36   H7    S    
H16   N4    S    
