data_mof_unit_40694.cif
_audit_creation_date              2012-12-11T15:54:47-0500
_audit_creation_method            fapswitch 2.2
_symmetry_space_group_name_H-M    P1
_symmetry_Int_Tables_number       1
_space_group_crystal_system       triclinic
_cell_length_a                    7.007322
_cell_length_b                    14.572923
_cell_length_c                    16.128201
_cell_angle_alpha                 89.849981
_cell_angle_beta                  90.382282
_cell_angle_gamma                 90.337686
_cell_volume                      1646.89540578

loop_
_atom_site_label
_atom_site_type_symbol
_atom_type_description
_atom_site_fract_x
_atom_site_fract_y
_atom_site_fract_z
_atom_type_partial_charge
O1    O     O_R   0.638180 0.333920 0.163320 -0.508378
O2    O     O_R   0.361820 0.666080 0.836680 -0.521122
O3    O     O_R   0.308470 0.344960 0.336080 -0.518961
O4    O     O_R   0.691530 0.655040 0.663920 -0.514900
O5    O     O_R   0.138140 0.166110 0.336680 -0.569975
O6    O     O_R   0.861860 0.833890 0.663320 -0.562496
C1    C     C_R   0.477968 0.367065 0.364806 0.813009
C2    C     C_R   0.522059 0.633077 0.635068 0.835597
O7    O     O_R   0.308460 0.344950 0.163930 -0.524654
O8    O     O_R   0.691540 0.655050 0.836070 -0.524721
O9    O     O_R   0.138140 0.166100 0.163310 -0.532937
O10   O     O_R   0.861860 0.833900 0.836690 -0.529196
C3    C     C_R   0.477450 0.367403 0.135572 0.821980
C4    C     C_R   0.523107 0.631961 0.864025 0.795790
O11   O     O_R   0.638180 0.333930 0.336700 -0.517756
O12   O     O_R   0.361820 0.666070 0.663300 -0.513840
O13   O     O_3   0.471670 0.191340 0.250000 -0.389385
O14   O     O_3   0.528330 0.808660 0.750000 -0.376887
V1    V     V_3+5 0.196830 0.260900 0.250000 1.633060
V2    V     V_3+5 0.803170 0.739100 0.750000 1.673185
O15   O     O_R   0.808420 0.155070 0.163920 -0.487981
O16   O     O_R   0.191580 0.844930 0.836080 -0.496390
C5    C     C_R   0.976804 0.132354 0.135789 0.913628
C6    C     C_R   0.023209 0.866441 0.865566 0.876416
O17   O     O_R   0.808420 0.155080 0.336070 -0.522686
O18   O     O_R   0.191580 0.844920 0.663930 -0.524864
C7    C     C_R   0.977289 0.132007 0.363587 0.773896
C8    C     C_R   0.022533 0.868137 0.636684 0.788336
V3    V     V_3+5 0.696830 0.239130 0.250000 1.685807
V4    V     V_3+5 0.303170 0.760870 0.750000 1.701918
O19   O     O_3   0.971850 0.308690 0.250010 -0.355172
O20   O     O_3   0.028150 0.691310 0.749990 -0.346221
C9    C     C_R   0.081289 0.188156 0.528397 -0.314262
C10   C     C_R   0.915516 0.812150 0.473015 -0.325131
C11   C     C_R   0.131154 0.219573 0.606954 0.573123
C12   C     C_R   0.863201 0.780515 0.395053 0.578039
C13   C     C_R   0.138538 0.158964 0.673698 0.313732
C14   C     C_R   0.853506 0.840711 0.328298 0.340008
C15   C     C_R   0.102758 0.065349 0.661168 0.426188
C16   C     C_R   0.888953 0.934743 0.340295 0.367440
C17   C     C_R   0.052908 0.030964 0.581228 -0.102117
C18   C     C_R   0.943043 0.969306 0.419701 -0.085425
C19   C     C_R   0.041033 0.094230 0.513589 -0.114466
C20   C     C_R   0.956438 0.906073 0.487298 -0.114855
C21   C     C_R   0.011748 0.936355 0.567633 -0.033667
C22   C     C_R   0.986876 0.063883 0.432951 -0.031247
H1    H     H_    0.073854 0.238973 0.479529 0.209907
H2    H     H_    0.924876 0.761297 0.521780 0.207420
C23   C     C_R   0.175807 0.972627 0.972031 0.545167
C24   C     C_R   0.824031 0.029118 0.028364 0.534888
C25   C     C_R   0.164220 0.023759 0.045709 0.317844
C26   C     C_R   0.835176 0.956760 0.971016 0.330236
C27   C     C_R   0.987845 0.061122 0.069450 -0.451931
C28   C     C_R   0.011825 0.933511 0.936026 -0.450255
C29   C     C_R   0.334057 0.493252 0.451486 0.569649
C30   C     C_R   0.666185 0.507195 0.548100 0.585263
C31   C     C_R   0.344530 0.556820 0.516491 0.570432
C32   C     C_R   0.655677 0.443602 0.483134 0.565638
C33   C     C_R   0.510690 0.564810 0.565997 -0.496065
C34   C     C_R   0.489438 0.435522 0.433703 -0.495009
C35   C     C_R   0.325785 0.480183 0.035008 0.344310
C36   C     C_R   0.679527 0.530163 0.973209 0.357455
C37   C     C_R   0.338758 0.530192 0.960769 0.529123
C38   C     C_R   0.665609 0.459353 0.031829 0.539984
C39   C     C_R   0.514582 0.563084 0.932869 -0.463090
C40   C     C_R   0.489165 0.436438 0.067166 -0.464763
O21   O     O_3   0.803275 0.806408 0.251346 -0.522463
C41   C     C_3   0.964211 0.809009 0.199214 -0.163811
H3    H     H_    0.102081 0.797238 0.232547 0.112636
H4    H     H_    0.968264 0.875015 0.164878 0.148771
H5    H     H_    0.950328 0.753421 0.153114 0.113577
O22   O     O_3   0.193402 0.190636 0.750984 -0.505647
C42   C     C_3   0.027887 0.207808 0.797568 0.010632
H6    H     H_    0.944578 0.143722 0.808614 0.138813
H7    H     H_    0.936571 0.260447 0.767027 0.146176
H8    H     H_    0.071678 0.235073 0.859026 0.167156
F1    F     F_    0.182026 0.543379 0.913799 -0.587827
F2    F     F_    0.825428 0.414347 0.054714 -0.596449
F3    F     F_    0.170538 0.309958 0.618466 -0.602698
F4    F     F_    0.825705 0.689887 0.383876 -0.620073
F5    F     F_    0.115990 0.010015 0.728637 -0.673796
F6    F     F_    0.868806 0.990353 0.273395 -0.727849
F7    F     F_    0.345694 0.963297 0.934983 -0.567586
F8    F     F_    0.653581 0.067738 0.042935 -0.582877
O23   O     O_3   0.327562 0.040006 0.091547 -0.468268
C43   C     C_3   0.325179 0.983951 0.163376 -0.058346
H9    H     H_    0.299707 0.910522 0.148139 0.025943
H10   H     H_    0.216897 0.006615 0.208653 0.127359
H11   H     H_    0.466613 0.989035 0.194427 0.192748
O24   O     O_3   0.674001 0.907588 0.949844 -0.471803
C44   C     C_3   0.620469 0.852984 0.018356 0.000072
H12   H     H_    0.549210 0.895209 0.064907 0.189103
H13   H     H_    0.743654 0.819381 0.049199 0.004808
H14   H     H_    0.518705 0.799186 0.997183 0.090781
F9    F     F_    0.171930 0.489995 0.404962 -0.570411
F10   F     F_    0.828499 0.510563 0.594487 -0.548800
F11   F     F_    0.192099 0.611945 0.529444 -0.590113
F12   F     F_    0.808186 0.388532 0.470160 -0.588772
O25   O     O_3   0.153097 0.474703 0.074761 -0.465010
C45   C     C_3   0.155277 0.537238 0.141740 0.012757
H15   H     H_    0.010922 0.538689 0.169506 0.173886
H16   H     H_    0.191443 0.608216 0.121329 0.021020
H17   H     H_    0.256713 0.515918 0.191321 0.100697
O26   O     O_3   0.856710 0.564809 0.955315 -0.445974
C46   C     C_3   0.884212 0.646325 0.000925 -0.012783
H18   H     H_    0.037687 0.664852 0.001306 0.132675
H19   H     H_    0.836742 0.639764 0.066458 0.051341
H20   H     H_    0.810401 0.703451 0.969866 0.072742

loop_
_geom_bond_atom_site_label_1
_geom_bond_atom_site_label_2
_ccdc_geom_bond_type
C14   C16   A    
C37   C39   A    
C42   H7    S    
C42   H6    S    
C26   O24   S    
C32   F12   S    
O4    C2    A    
V1    O19   S    
C25   O23   S    
C24   F8    S    
C15   C17   A    
O23   C43   S    
C46   H19   S    
O9    V1    S    
C11   C13   A    
O3    C1    A    
C2    C33   S    
C37   F1    S    
C43   H10   S    
C31   C33   A    
C6    C28   S    
C23   C28   A    
O13   V3    S    
C18   C22   A    
C11   F3    S    
C35   C37   A    
O7    C3    A    
C36   C38   A    
C9    C11   A    
O5    C7    A    
C35   C40   A    
O7    V1    S    
O6    C8    A    
O8    V2    S    
C41   H3    S    
C23   C25   A    
C24   C26   A    
O3    V1    S    
O14   V4    S    
C10   C12   A    
C16   C18   A    
C2    O12   A    
C29   C34   A    
C17   C19   A    
C35   O25   S    
C18   C20   A    
C45   H16   S    
O26   C46   S    
C26   C28   A    
O11   V3    S    
C36   O26   S    
C3    C40   S    
O17   V3    S    
C13   C15   A    
C46   H20   S    
C8    C21   S    
C24   C27   A    
O21   C41   S    
C9    C19   A    
C16   F6    S    
C10   C20   A    
C15   F5    S    
C29   F9    S    
C12   F4    S    
C44   H12   S    
C43   H9    S    
C1    O11   A    
O15   V3    S    
C45   H17   S    
C25   C27   A    
C38   C40   A    
C44   H13   S    
O25   C45   S    
C31   F11   S    
O10   V2    S    
O1    V3    S    
C7    C22   S    
O18   V4    S    
C29   C31   A    
O8    C4    A    
C9    H1    S    
C42   H8    S    
O16   C6    A    
O1    C3    A    
O12   V4    S    
C12   C14   A    
C1    C34   S    
C20   C21   A    
V2    O20   S    
C30   F10   S    
O16   V4    S    
C36   C39   A    
C38   F2    S    
O22   C42   S    
C43   H11   S    
O5    V1    S    
O17   C7    A    
O6    V2    S    
C46   H18   S    
O10   C6    A    
O18   C8    A    
C30   C33   A    
O2    V4    S    
C23   F7    S    
O15   C5    A    
V3    O19   S    
C44   H14   S    
V4    O20   S    
O24   C44   S    
C41   H5    S    
C5    C27   S    
O9    C5    A    
C45   H15   S    
O13   V1    S    
C4    C39   S    
C30   C32   A    
O14   V2    S    
O2    C4    A    
C19   C22   A    
O4    V2    S    
C10   H2    S    
C14   O21   S    
C41   H4    S    
C13   O22   S    
C17   C21   A    
C32   C34   A    
