data_mof_unit_13751.cif
_audit_creation_date              2012-12-11T15:14:56-0500
_audit_creation_method            fapswitch 2.2
_symmetry_space_group_name_H-M    P1
_symmetry_Int_Tables_number       1
_space_group_crystal_system       triclinic
_cell_length_a                    11.168117
_cell_length_b                    11.11357
_cell_length_c                    18.422012
_cell_angle_alpha                 89.489715
_cell_angle_beta                  90.253901
_cell_angle_gamma                 119.838706
_cell_volume                      1983.29620931

loop_
_atom_site_label
_atom_site_type_symbol
_atom_type_description
_atom_site_fract_x
_atom_site_fract_y
_atom_site_fract_z
_atom_type_partial_charge
Br1   Br    Br    0.478275 0.797677 0.626029 -0.367831
Br2   Br    Br    0.923616 0.746572 0.426446 -0.348105
Br3   Br    Br    0.521724 0.319402 0.126029 -0.367829
Br4   Br    Br    0.764260 0.955517 0.462494 -0.370822
Br5   Br    Br    0.235740 0.191256 0.962494 -0.370821
Br6   Br    Br    0.129402 0.786261 0.588171 -0.352603
Br7   Br    Br    0.816676 0.042324 0.959994 -0.371453
Br8   Br    Br    0.239486 0.461681 0.625471 -0.385593
Br9   Br    Br    0.076385 0.822956 0.926446 -0.348106
Br10  Br    Br    0.870599 0.656860 0.088171 -0.352602
Br11  Br    Br    0.183324 0.225647 0.459994 -0.371451
Br12  Br    Br    0.760513 0.222196 0.125472 -0.385593
C1    C     C_R   0.520829 0.456227 0.644629 0.580282
C2    C     C_R   0.422754 0.541677 0.362163 0.540550
C3    C     C_R   0.479171 0.935398 0.144629 0.580281
C4    C     C_R   0.062252 0.544390 0.354077 0.569530
C5    C     C_3   0.533459 0.125823 0.454703 -0.171506
C6    C     C_3   0.579515 0.635659 0.013645 -0.102228
C7    C     C_3   0.899140 0.381812 0.455452 -0.169182
C8    C     C_3   0.407477 0.024365 0.023614 -0.070863
C9    C     C_3   0.575077 0.516254 0.462136 -0.134215
C10   C     C_3   0.008290 0.407701 0.021606 -0.086759
C11   C     C_3   0.100859 0.482671 0.955452 -0.169182
C12   C     C_R   0.937748 0.482138 0.854077 0.569529
C13   C     C_3   0.592523 0.616888 0.523614 -0.070863
C14   C     C_3   0.424923 0.941177 0.962136 -0.134216
C15   C     C_3   0.991709 0.399410 0.521606 -0.086759
C16   C     C_3   0.466541 0.592364 0.954703 -0.171506
C17   C     C_3   0.420485 0.056143 0.513644 -0.102228
C18   C     C_3   0.641869 0.126700 0.507985 -0.173902
C19   C     C_3   0.610255 0.521606 0.988996 -0.104349
C20   C     C_3   0.834826 0.457458 0.496625 -0.200008
C21   C     C_3   0.538924 0.156832 0.997524 -0.113962
C22   C     C_3   0.483071 0.391085 0.511430 -0.160150
C23   C     C_R   0.570970 0.113826 0.637682 0.536097
C24   C     C_3   0.895713 0.436307 0.991059 -0.104013
C25   C     C_3   0.165174 0.622632 0.996625 -0.200009
C26   C     C_3   0.461076 0.617908 0.497524 -0.113962
C27   C     C_3   0.516929 0.908015 0.011430 -0.160150
C28   C     C_3   0.104287 0.540593 0.491059 -0.104014
C29   C     C_3   0.358131 0.484831 0.007984 -0.173902
C30   C     C_3   0.389745 0.911350 0.488996 -0.104349
C31   C     C_3   0.530736 0.059493 0.565058 0.034675
C32   C     C_3   0.497642 0.480248 0.930715 0.008810
C33   C     C_3   0.928902 0.476172 0.561486 0.018426
C34   C     C_R   0.520206 0.453182 0.856234 0.553408
C35   C     C_3   0.554222 0.072067 0.937360 0.000405
C36   C     C_3   0.499479 0.491835 0.571672 0.032933
C37   C     C_3   0.990688 0.510009 0.926676 0.014993
C38   C     C_3   0.071098 0.547270 0.061486 0.018426
C39   C     C_3   0.445778 0.517845 0.437360 0.000406
C40   C     C_3   0.500521 0.992356 0.071672 0.032933
C41   C     C_3   0.009312 0.519321 0.426677 0.014992
C42   C     C_3   0.469263 0.528757 0.065058 0.034675
C43   C     C_3   0.502358 0.982605 0.430715 0.008811
C44   C     C_3   0.499679 0.916398 0.542813 0.176904
C45   C     C_R   0.881548 0.457497 0.637098 0.540561
C46   C     C_3   0.389458 0.373077 0.983778 0.163466
C47   C     C_3   0.040051 0.616221 0.531097 0.209442
C48   C     C_3   0.646904 0.038837 0.986050 0.175765
C49   C     C_3   0.369068 0.491171 0.547182 0.174779
C50   C     C_3   0.052931 0.649965 0.965947 0.179456
C51   C     C_3   0.959949 0.576170 0.031097 0.209442
C52   C     C_3   0.353096 0.391931 0.486050 0.175766
C53   C     C_3   0.630933 0.122104 0.047182 0.174779
C54   C     C_3   0.947070 0.597034 0.465947 0.179456
C55   C     C_3   0.500320 0.416719 0.042813 0.176905
C56   C     C_R   0.577246 0.118923 0.862163 0.540550
C57   C     C_3   0.610542 0.983618 0.483778 0.163466
C58   C     C_R   0.429029 0.542856 0.137682 0.536096
C59   C     C_R   0.479794 0.932976 0.356234 0.553407
C60   C     C_R   0.118452 0.575949 0.137098 0.540561
Cr1   Cr    Cr6+3 0.769930 0.543130 0.750000 1.120166
Cr2   Cr    Cr6+3 0.773200 0.230070 0.750000 1.121485
Cr3   Cr    Cr6+3 0.456870 0.226800 0.750000 1.136466
Cr4   Cr    Cr6+3 0.543130 0.769930 0.250000 1.136466
Cr5   Cr    Cr6+3 0.230070 0.773200 0.250000 1.120167
Cr6   Cr    Cr6+3 0.226800 0.456870 0.250000 1.121485
H1    H     H_    0.741684 0.197909 0.531740 0.134836
H2    H     H_    0.214306 0.578279 0.482812 0.114525
H3    H     H_    0.258316 0.456224 0.031740 0.134836
H4    H     H_    0.290275 0.822190 0.472277 0.156367
H5    H     H_    0.549848 0.211089 0.416926 0.158368
H6    H     H_    0.661633 0.741260 0.028982 0.211763
H7    H     H_    0.846945 0.290579 0.419261 0.185255
H8    H     H_    0.309656 0.015152 0.043387 0.225372
H9    H     H_    0.651074 0.521336 0.422076 0.189538
H10   H     H_    0.997859 0.310002 0.043945 0.223419
H11   H     H_    0.153054 0.443634 0.919261 0.185255
H12   H     H_    0.709724 0.531915 0.972278 0.156368
H13   H     H_    0.690344 0.705497 0.543387 0.225372
H14   H     H_    0.348926 0.870261 0.922076 0.189538
H15   H     H_    0.002140 0.312143 0.543945 0.223419
H16   H     H_    0.450152 0.661241 0.916925 0.158368
H17   H     H_    0.338367 0.079626 0.528981 0.211763
H18   H     H_    0.724348 0.414909 0.504212 0.096790
H19   H     H_    0.553297 0.256819 0.978985 0.114730
H20   H     H_    0.498560 0.304737 0.525812 0.101326
H21   H     H_    0.785694 0.363973 0.982812 0.114524
H22   H     H_    0.275652 0.690561 0.004213 0.096790
H23   H     H_    0.446703 0.703522 0.478985 0.114730
H24   H     H_    0.501440 0.806177 0.025812 0.101326
O1    O     O_R   0.913270 0.574260 0.668550 -0.427931
O2    O     O_R   0.574260 0.913270 0.331450 -0.462686
O3    O     O_R   0.086730 0.660990 0.168550 -0.427930
O4    O     O_R   0.339010 0.425740 0.331450 -0.445955
O5    O     O_R   0.640160 0.530400 0.673300 -0.511657
O6    O     O_R   0.890240 0.359840 0.826700 -0.493581
O7    O     O_R   0.469600 0.109760 0.673300 -0.461185
O8    O     O_R   0.640160 0.530400 0.826700 -0.492664
O9    O     O_R   0.890240 0.359840 0.673300 -0.484393
O10   O     O_R   0.469600 0.109760 0.826700 -0.455892
O11   O     O_R   0.530400 0.640160 0.173300 -0.461184
O12   O     O_R   0.660990 0.086730 0.831450 -0.445954
O13   O     O_R   0.359840 0.890240 0.326700 -0.492664
O14   O     O_R   0.109760 0.469600 0.173300 -0.484394
O15   O     O_R   0.530400 0.640160 0.326700 -0.455892
O16   O     O_R   0.359840 0.890240 0.173300 -0.511657
O17   O     O_R   0.109760 0.469600 0.326700 -0.493581
O18   O     O_3   0.666667 0.333333 0.750000 -0.391200
O19   O     O_3   0.333333 0.666667 0.250000 -0.391200
O20   O     O_R   0.425740 0.339010 0.668550 -0.472288
O21   O     O_R   0.913270 0.574260 0.831450 -0.464146
O22   O     O_R   0.660990 0.086730 0.668550 -0.449766
O23   O     O_R   0.425740 0.339010 0.831450 -0.462686
O24   O     O_R   0.574260 0.913270 0.168550 -0.472288
O25   O     O_R   0.086730 0.660990 0.331450 -0.464146
O26   O     O_R   0.339010 0.425740 0.168550 -0.449766

loop_
_geom_bond_atom_site_label_1
_geom_bond_atom_site_label_2
_ccdc_geom_bond_type
Cr4   O2    S    
Cr2   O22   S    
C59   O2    A    
C9    H9    S    
C38   C51   S    
C17   C30   S    
Cr3   O20   S    
Cr4   O24   S    
C20   C33   S    
C35   C56   S    
C34   O23   A    
Br10  C51   S    
C30   H4    S    
C1    O5    A    
Cr6   O26   S    
C25   C50   S    
C21   C53   S    
Cr1   O8    S    
C19   C55   S    
C33   C45   S    
Cr3   O10   S    
Br5   C46   S    
Cr4   O19   S    
C23   O22   A    
C11   H11   S    
Br1   C44   S    
C29   C46   S    
C26   H23   S    
C47   C54   S    
C13   C26   S    
C14   C27   S    
C11   C37   S    
C14   H14   S    
Cr2   O12   S    
C16   C29   S    
C5    C17   S    
C16   H16   S    
C56   O10   A    
C40   C53   S    
Cr6   O19   S    
C38   C60   S    
C4    C41   S    
C30   C44   S    
C35   C48   S    
C32   C46   S    
Cr1   O21   S    
C3    O24   A    
C8    H8    S    
C6    H6    S    
C28   H2    S    
C12   O6    A    
C10   H10   S    
C24   C51   S    
C23   C31   S    
C5    C43   S    
C23   O7    A    
Br8   C49   S    
C10   C38   S    
C26   C49   S    
C7    C41   S    
C27   C40   S    
C28   C47   S    
C17   C31   S    
C1    O20   A    
C5    C18   S    
Cr1   O5    S    
C7    C20   S    
Br4   C57   S    
C32   C34   S    
C58   O11   A    
C45   O1    A    
Br3   C55   S    
Cr3   O7    S    
C13   H13   S    
C19   C32   S    
C39   C52   S    
Br9   C50   S    
C6    C16   S    
Cr5   O16   S    
C4    O17   A    
Cr2   O9    S    
C17   H17   S    
C26   C39   S    
Br2   C54   S    
C11   C25   S    
C16   C32   S    
C12   O21   A    
Cr3   O23   S    
C49   C52   S    
C50   C51   S    
C30   C43   S    
C46   C55   S    
C2    C39   S    
C42   C58   S    
Cr1   O1    S    
C15   C28   S    
C19   H12   S    
C29   H3    S    
C22   C52   S    
Cr4   O11   S    
C59   O13   A    
C3    C40   S    
C41   C54   S    
C13   C36   S    
C43   C57   S    
C14   C35   S    
C8    C21   S    
C20   H18   S    
C48   C53   S    
Br11  C52   S    
C34   O8    A    
C21   C35   S    
C18   C31   S    
C15   H15   S    
C22   C36   S    
C18   H1    S    
Br7   C48   S    
C9    C39   S    
C18   C57   S    
Cr2   O18   S    
C27   H24   S    
C20   C54   S    
C58   O26   A    
C12   C37   S    
C9    C13   S    
C33   C47   S    
C37   C50   S    
Br6   C47   S    
Cr6   O14   S    
Cr3   O18   S    
C7    H7    S    
Cr5   O25   S    
C1    C36   S    
C28   C41   S    
C9    C22   S    
C10   C24   S    
Br12  C53   S    
C60   O14   A    
Cr4   O15   S    
C3    O16   A    
Cr6   O4    S    
Cr5   O3    S    
Cr6   O17   S    
C42   C55   S    
C25   C38   S    
C15   C33   S    
C36   C49   S    
C45   O9    A    
C8    C14   S    
C27   C48   S    
C22   H20   S    
C24   H21   S    
C21   H19   S    
C4    O25   A    
C29   C42   S    
Cr5   O19   S    
C6    C42   S    
Cr2   O6    S    
C31   C44   S    
C2    O4    A    
C60   O3    A    
C8    C40   S    
C44   C57   S    
Cr1   O18   S    
C10   C11   S    
C2    O15   A    
C6    C19   S    
C5    H5    S    
Cr5   O13   S    
C25   H22   S    
C43   C59   S    
C24   C37   S    
C56   O12   A    
C7    C15   S    
