data_mof_unit_15575.cif
_audit_creation_date              2013-03-05T15:55:27-0500
_audit_creation_method            fapswitch 2.2
_symmetry_space_group_name_H-M    P1
_symmetry_Int_Tables_number       1
_space_group_crystal_system       triclinic
_cell_length_a                    10.772552
_cell_length_b                    12.344981
_cell_length_c                    13.192245
_cell_angle_alpha                 116.222364
_cell_angle_beta                  76.647572
_cell_angle_gamma                 102.233685
_cell_volume                      1519.12287473

loop_
_atom_site_label
_atom_site_type_symbol
_atom_site_description
_atom_site_fract_x
_atom_site_fract_y
_atom_site_fract_z
_atom_type_partial_charge
O1    O     O_R   0.537340 0.972510 0.318130 -0.587323
O2    O     O_R   0.487200 0.806530 0.359650 -0.609906
C1    C     C_R   0.508133 0.854879 0.286035 0.846572
O3    O     O_R   0.707380 0.082980 0.479220 -0.517691
O4    O     O_R   0.657240 0.917000 0.520740 -0.618130
C2    C     C_R   0.740070 0.000933 0.500057 0.851619
Cu1   Cu    Cu3+1 0.529690 0.098270 0.475420 0.977528
Cu2   Cu    Cu3+1 0.470310 0.901730 0.524580 0.942994
O5    O     O_R   0.512800 0.193470 0.640350 -0.590831
O6    O     O_R   0.462660 0.027490 0.681870 -0.614953
O7    O     O_R   0.342760 0.083000 0.479260 -0.606551
O8    O     O_R   0.292620 0.917020 0.520780 -0.567364
C3    C     C_R   0.484896 0.144571 0.713449 0.775110
C4    C     C_R   0.259869 0.000325 0.500640 0.818149
C5    C     C_3   0.958791 0.129503 0.512638 0.214703
H1    H     H_    0.915857 0.197441 0.596255 0.107496
C6    C     C_3   0.099016 0.130095 0.522151 -0.493573
H2    H     H_    0.166667 0.163870 0.461664 0.221137
H3    H     H_    0.118996 0.195425 0.609375 0.163552
H4    H     H_    0.859477 0.053868 0.681724 0.185578
H5    H     H_    0.065359 0.030115 0.679597 0.171411
C7    C     C_3   0.893309 0.978435 0.599814 -0.526441
C8    C     C_3   0.935647 0.894060 0.385318 0.129040
C9    C     C_3   0.878957 0.001247 0.495986 -0.109336
H6    H     H_    0.894270 0.808381 0.396137 0.138308
C10   C     C_3   0.122375 0.000333 0.498883 -0.048673
C11   C     C_3   0.034623 0.968293 0.595414 -0.397735
C12   C     C_3   0.083816 0.910542 0.379099 0.147516
H7    H     H_    0.129273 0.953639 0.318688 0.159467
H8    H     H_    0.833489 0.893070 0.600094 0.214503
H9    H     H_    0.042307 0.874320 0.580021 0.242532
C13   C     C_R   0.394319 0.263701 0.033190 -0.178466
H10   H     H_    0.395822 0.085742 0.897401 0.151706
H11   H     H_    0.321609 0.435898 0.235681 0.169446
H12   H     H_    0.348109 0.228708 0.096815 0.156257
C14   C     C_R   0.473500 0.225726 0.835283 -0.044994
C15   C     C_R   0.557148 0.817967 0.075733 0.173388
C16   C     C_R   0.597962 0.735915 0.964239 -0.103969
C17   C     C_R   0.582524 0.612178 0.934703 -0.227271
C18   C     C_R   0.514735 0.562661 0.012861 0.079119
C19   C     C_R   0.474497 0.643706 0.127246 0.067751
C20   C     C_R   0.484631 0.434750 0.980373 0.088566
C21   C     C_R   0.421166 0.389365 0.063275 0.150937
C22   C     C_R   0.377456 0.469467 0.173374 -0.231984
C23   C     C_R   0.397239 0.593431 0.202691 -0.096240
C24   C     C_R   0.509069 0.350389 0.866466 -0.244259
C25   C     C_R   0.420982 0.182117 0.919574 -0.203955
C26   C     C_R   0.509658 0.772279 0.161932 -0.121912
H13   H     H_    0.549743 0.379520 0.798874 0.155791
H14   H     H_    0.623606 0.558116 0.848447 0.142796
H15   H     H_    0.644840 0.766590 0.898078 0.155782
H16   H     H_    0.345012 0.647128 0.284053 0.230922
C27   C     C_R   0.701760 0.345685 0.322013 -0.255518
H17   H     H_    0.725276 0.169875 0.305465 0.173628
H18   H     H_    0.742096 0.546153 0.285203 0.182315
H19   H     H_    0.779043 0.343794 0.252339 0.161190
N1    N     N_R   0.574690 0.246280 0.438200 -0.193800
C28   C     C_R   0.332803 0.756449 0.654713 0.361202
C29   C     C_R   0.314877 0.664624 0.693447 -0.223392
C30   C     C_R   0.378415 0.564107 0.634579 -0.235450
C31   C     C_R   0.467104 0.553059 0.536215 0.007017
C32   C     C_R   0.495069 0.653611 0.503191 0.240435
C33   C     C_R   0.533546 0.447560 0.473797 -0.017804
C34   C     C_R   0.633022 0.446267 0.382696 0.144516
C35   C     C_R   0.664281 0.545914 0.353979 -0.245646
C36   C     C_R   0.597479 0.647020 0.412829 -0.185679
C37   C     C_R   0.505259 0.342303 0.498072 0.012419
C38   C     C_R   0.671361 0.246724 0.351650 0.141314
N2    N     N_R   0.426100 0.754320 0.561190 -0.221761
H20   H     H_    0.427358 0.333333 0.562721 0.125235
H21   H     H_    0.358307 0.498098 0.670771 0.146798
H22   H     H_    0.249460 0.670149 0.770974 0.170494
H23   H     H_    0.632193 0.719072 0.385882 0.214022
N3    N     N_R   0.130924 0.792012 0.332726 0.113139
O9    O     O_R   0.094237 0.720228 0.385412 -0.386861
O10   O     O_R   0.197424 0.751591 0.230505 -0.371315
C39   C     C_3   0.566749 0.952731 0.101928 -0.350478
C40   C     C_3   0.574041 0.982485 0.999365 -0.884874
H24   H     H_    0.669276 0.968309 0.944092 0.253111
H25   H     H_    0.496067 0.926202 0.948816 0.258418
H26   H     H_    0.562322 0.079880 0.030686 0.253011
H27   H     H_    0.478890 0.988928 0.161189 0.222938
H28   H     H_    0.652761 0.002185 0.143419 0.230361
N4    N     N_R   0.955490 0.170340 0.424175 0.158170
O11   O     O_R   0.908807 0.271088 0.454417 -0.366266
O12   O     O_R   0.021201 0.122790 0.322194 -0.343176
C41   C     C_3   0.247535 0.856370 0.726808 -0.382325
C42   C     C_3   0.104236 0.806315 0.732636 -0.855205
H29   H     H_    0.081651 0.743546 0.645953 0.277619
H30   H     H_    0.076136 0.756533 0.788486 0.261393
H31   H     H_    0.045237 0.882607 0.770136 0.240324
H32   H     H_    0.270315 0.900052 0.815258 0.177218
H33   H     H_    0.260479 0.929114 0.698767 0.251928
N5    N     N_R   0.903318 0.876539 0.275872 0.122970
O13   O     O_R   0.942763 0.785348 0.182951 -0.318938
O14   O     O_R   0.825628 0.940268 0.269880 -0.350821

loop_
_geom_bond_atom_site_label_1
_geom_bond_atom_site_label_2
_geom_bond_distance
_ccdc_geom_bond_type
C41   C42   1.534169 S    
C42   H30   1.109264 S    
C12   N3    1.467346 S    
C28   C41   1.519805 S    
Cu1   Cu2   2.694031 S    
C39   C40   1.532866 S    
Cu1   O7    1.973217 S    
C24   H13   1.073573 S    
Cu2   N2    2.018613 S    
N3    O10   1.300519 A    
C6    C10   1.557010 S    
C12   H7    1.114460 S    
N4    O12   1.301531 A    
C16   C17   1.381717 A    
O7    C4    1.292440 A    
C40   H25   1.111278 S    
H17   C38   1.080672 S    
C39   H28   1.109074 S    
C5    H1    1.115936 S    
C1    C26   1.496613 S    
C14   C25   1.398485 A    
Cu1   O5    1.948443 S    
C20   C24   1.400892 A    
C31   C33   1.435845 A    
C27   C38   1.394989 A    
O5    C3    1.299368 A    
C6    H3    1.114252 S    
C13   C21   1.402327 A    
C8    C9    1.574420 S    
C14   C24   1.395661 A    
C29   H22   1.083107 S    
C18   C20   1.425271 A    
H5    C11   1.113182 S    
C29   C30   1.369026 A    
C41   H32   1.110252 S    
N5    O13   1.301221 A    
N1    C37   1.365259 A    
O3    Cu1   1.976870 S    
H18   C35   1.084408 S    
C33   C37   1.427835 A    
N3    O9    1.301383 A    
C32   C36   1.410552 A    
C11   H9    1.103938 S    
C13   H12   1.084089 S    
H11   C22   1.084553 S    
N4    O11   1.301097 A    
C3    C14   1.462906 S    
O3    C2    1.291275 A    
C17   C18   1.410703 A    
C40   H24   1.110236 S    
C16   H15   1.080586 S    
C23   H16   1.076293 S    
C28   C29   1.398896 A    
C36   H23   1.065104 S    
C15   C39   1.527545 S    
C32   N2    1.404054 A    
C30   C31   1.393367 A    
O1    C1    1.308265 A    
C21   C22   1.386134 A    
C15   C16   1.398641 A    
C42   H31   1.110151 S    
Cu2   O8    1.976869 S    
C2    C9    1.483929 S    
C6    H2    1.112802 S    
C10   C11   1.549964 S    
C8    C12   1.553216 S    
C4    C10   1.486712 S    
C15   C26   1.431349 A    
N5    O14   1.300077 A    
C5    C9    1.580374 S    
H4    C7    1.113710 S    
C7    C11   1.539480 S    
H10   C25   1.080256 S    
C13   C25   1.390377 A    
C7    C9    1.560927 S    
C20   C21   1.418179 A    
N1    C38   1.357249 A    
C22   C23   1.383369 A    
C27   H19   1.083668 S    
C5    C6    1.542637 S    
C18   C19   1.418969 A    
C7    H8    1.113719 S    
O1    Cu1   1.962427 S    
O2    Cu2   1.948445 S    
O8    C4    1.300462 A    
O6    C3    1.298946 A    
O4    Cu2   1.973219 S    
C28   N2    1.393852 A    
C5    N4    1.471068 S    
C10   C12   1.567939 S    
C30   H21   1.077113 S    
C8    N5    1.475502 S    
C37   H20   1.075822 S    
C34   C35   1.395546 A    
O2    C1    1.305475 A    
C40   H26   1.110631 S    
O4    C2    1.299930 A    
C39   H27   1.111496 S    
C41   H33   1.086010 S    
C27   C34   1.402993 A    
C19   C26   1.433738 A    
C8    H6    1.114456 S    
C31   C32   1.442297 A    
C33   C34   1.410115 A    
C17   H14   1.075899 S    
C42   H29   1.110346 S    
Cu2   O6    1.962427 S    
C35   C36   1.394553 A    
C19   C23   1.418742 A    
Cu1   N1    2.030323 S    
