data_mof_unit_28490.cif
_audit_creation_date              2012-12-11T15:11:49-0500
_audit_creation_method            fapswitch 2.2
_symmetry_space_group_name_H-M    P1
_symmetry_Int_Tables_number       1
_space_group_crystal_system       triclinic
_cell_length_a                    20.199791
_cell_length_b                    7.09862
_cell_length_c                    13.445467
_cell_angle_alpha                 90.001283
_cell_angle_beta                  103.633193
_cell_angle_gamma                 89.999136
_cell_volume                      1873.63326987

loop_
_atom_site_label
_atom_site_type_symbol
_atom_type_description
_atom_site_fract_x
_atom_site_fract_y
_atom_site_fract_z
_atom_type_partial_charge
O1    O     O_R   0.449830 0.506740 0.599960 -0.536111
O2    O     O_R   0.550170 0.006740 0.400040 -0.536109
O3    O     O_R   0.588980 0.179860 0.596720 -0.546626
O4    O     O_R   0.411020 0.679860 0.403280 -0.546626
C1    C     C_R   0.616229 0.344286 0.619681 0.663190
C2    C     C_R   0.383770 0.844286 0.380322 0.663194
O5    O     O_R   0.452740 0.177340 0.612040 -0.538854
O6    O     O_R   0.547260 0.677340 0.387960 -0.538855
O7    O     O_R   0.412960 0.002070 0.415460 -0.540325
O8    O     O_R   0.587040 0.502070 0.584540 -0.540323
C3    C     C_R   0.436697 0.345592 0.638928 0.690313
C4    C     C_R   0.563303 0.845588 0.361071 0.690317
O9    O     O_3   0.487110 0.337570 0.435490 -0.373180
O10   O     O_3   0.512890 0.837570 0.564510 -0.373181
V1    V     V_3+5 0.502390 0.064650 0.511970 1.392923
V2    V     V_3+5 0.497610 0.564650 0.488030 1.392925
C5    C     C_R   0.608748 0.832858 0.106114 -0.163227
C6    C     C_R   0.391253 0.333028 0.893888 -0.163223
H1    H     H_    0.515336 0.828476 0.155917 0.099403
H2    H     H_    0.484665 0.328656 0.844086 0.099401
H3    H     H_    0.691751 0.823464 0.979958 0.120049
H4    H     H_    0.308252 0.323706 0.020047 0.120029
H5    H     H_    0.582552 0.821841 0.026106 0.111421
H6    H     H_    0.417450 0.322093 0.973898 0.111422
C7    C     C_R   0.602869 0.851824 0.283095 -0.028444
C8    C     C_R   0.397129 0.351845 0.716902 -0.028438
C9    C     C_R   0.930916 0.878141 0.319056 -0.169558
C10   C     C_R   0.069079 0.378013 0.680941 -0.169560
C11   C     C_R   0.895500 0.881543 0.395838 -0.120089
C12   C     C_R   0.104494 0.381368 0.604157 -0.120086
C13   C     C_R   0.824667 0.872425 0.371558 -0.163377
C14   C     C_R   0.175329 0.372300 0.628436 -0.163379
C15   C     C_R   0.787076 0.859533 0.268477 0.078449
C16   C     C_R   0.212922 0.359504 0.731521 0.078449
C17   C     C_R   0.823909 0.853133 0.190052 0.073812
C18   C     C_R   0.176090 0.353158 0.809948 0.073806
C19   C     C_R   0.714296 0.853966 0.240636 0.072342
C20   C     C_R   0.285702 0.353981 0.759361 0.072339
C21   C     C_R   0.680186 0.840441 0.135452 0.146424
C22   C     C_R   0.319814 0.340558 0.864549 0.146418
C23   C     C_R   0.717446 0.833752 0.060247 -0.219481
C24   C     C_R   0.282555 0.333919 0.939756 -0.219455
C25   C     C_R   0.788096 0.840297 0.086915 -0.210326
C26   C     C_R   0.211905 0.340417 0.913088 -0.210304
C27   C     C_R   0.673924 0.860763 0.313476 -0.216925
C28   C     C_R   0.326073 0.360725 0.686519 -0.216921
C29   C     C_R   0.570365 0.837316 0.179616 -0.176794
C30   C     C_R   0.429635 0.337444 0.820385 -0.176800
C31   C     C_R   0.896052 0.862450 0.216481 -0.075931
C32   C     C_R   0.103947 0.362426 0.783518 -0.075924
H7    H     H_    0.695801 0.870075 0.394543 0.088184
H8    H     H_    0.304195 0.369957 0.605449 0.088179
H9    H     H_    0.985831 0.889281 0.339902 0.106289
H10   H     H_    0.014163 0.389105 0.660094 0.106282
H11   H     H_    0.801140 0.876803 0.435502 0.101477
H12   H     H_    0.198854 0.376636 0.564491 0.101473
H13   H     H_    0.923174 0.893032 0.475049 0.121015
H14   H     H_    0.076817 0.392778 0.524943 0.121003
H15   H     H_    0.814477 0.835317 0.025612 0.112919
H16   H     H_    0.185525 0.335477 0.974392 0.112897
C33   C     C_3   0.217709 0.654752 0.195582 -0.313420
C34   C     C_3   0.782264 0.154783 0.804499 -0.313431
H17   H     H_    0.222429 0.608352 0.118451 0.135724
H18   H     H_    0.777537 0.108516 0.881648 0.135737
C35   C     C_3   0.288586 0.649154 0.270351 -0.315053
C36   C     C_3   0.711388 0.149176 0.729728 -0.315064
H19   H     H_    0.325761 0.585770 0.230688 0.135151
H20   H     H_    0.674203 0.085909 0.769410 0.135139
H21   H     H_    0.286285 0.555836 0.336018 0.136442
H22   H     H_    0.713679 0.055748 0.664098 0.136460
H23   H     H_    0.263917 0.843602 0.439151 0.139104
H24   H     H_    0.736081 0.343331 0.560857 0.139099
C37   C     C_3   0.186937 0.928086 0.298930 0.041826
C38   C     C_3   0.813071 0.427910 0.701048 0.041840
C39   C     C_3   0.236938 0.986459 0.146487 -0.373142
C40   C     C_3   0.763076 0.486604 0.853468 -0.373179
C41   C     C_3   0.187386 0.857212 0.188544 0.117354
C42   C     C_3   0.812612 0.357210 0.811461 0.117380
H25   H     H_    0.218737 0.134872 0.142444 0.138661
H26   H     H_    0.781292 0.635000 0.857456 0.138665
H27   H     H_    0.237858 0.943376 0.067228 0.149441
H28   H     H_    0.762150 0.443656 0.932745 0.149443
C43   C     C_3   0.312625 0.850110 0.310153 0.092903
C44   C     C_3   0.687373 0.350110 0.689852 0.092912
C45   C     C_3   0.260792 0.928377 0.368501 -0.310659
C46   C     C_3   0.739216 0.428210 0.631477 -0.310641
C47   C     C_3   0.310313 0.977593 0.215663 -0.344221
C48   C     C_3   0.689701 0.477741 0.784296 -0.344229
H29   H     H_    0.345801 0.921818 0.170797 0.133954
H30   H     H_    0.654207 0.422092 0.829182 0.133955
H31   H     H_    0.327571 0.122568 0.240713 0.143344
H32   H     H_    0.672459 0.622705 0.759197 0.143358
H33   H     H_    0.168001 0.076052 0.292571 0.121778
H34   H     H_    0.832027 0.575857 0.707352 0.121756
H35   H     H_    0.275058 0.075055 0.394198 0.113631
H36   H     H_    0.724970 0.574871 0.605726 0.113622
O11   O     O_R   0.912980 0.203550 0.915410 -0.538803
O12   O     O_R   0.087020 0.703550 0.084590 -0.538808
O13   O     O_R   0.047270 0.535570 0.887960 -0.537234
O14   O     O_R   0.952730 0.035570 0.112040 -0.537235
C49   C     C_R   0.064139 0.368475 0.861797 0.686988
C50   C     C_R   0.935860 0.868480 0.138202 0.686983
O15   O     O_R   0.911030 0.532970 0.903270 -0.549075
O16   O     O_R   0.088970 0.032970 0.096730 -0.549071
O17   O     O_R   0.949820 0.708150 0.099970 -0.536210
O18   O     O_R   0.050180 0.208150 0.900030 -0.536210
C51   C     C_R   0.883551 0.364788 0.882603 0.660744
C52   C     C_R   0.116448 0.864787 0.117399 0.660749
O19   O     O_3   0.012900 0.375230 0.064480 -0.372444
O20   O     O_3   0.987100 0.875230 0.935520 -0.372442
V3    V     V_3+5 0.997610 0.648190 0.988040 1.398873
V4    V     V_3+5 0.002390 0.148190 0.011960 1.398880
C53   C     C_3   0.138596 0.814574 0.349313 -0.827236
H37   H     H_    0.133869 0.885583 0.420950 0.214416
H38   H     H_    0.087114 0.805188 0.297719 0.194077
H39   H     H_    0.158013 0.669706 0.368990 0.217621
C54   C     C_3   0.861399 0.314237 0.650707 -0.827241
H40   H     H_    0.866129 0.385108 0.579036 0.214414
H41   H     H_    0.912881 0.304867 0.702297 0.194095
H42   H     H_    0.841968 0.169360 0.631094 0.217604
H43   H     H_    0.183490 0.551877 0.220745 0.146503
H44   H     H_    0.816469 0.051807 0.779380 0.146509

loop_
_geom_bond_atom_site_label_1
_geom_bond_atom_site_label_2
_ccdc_geom_bond_type
C36   H20   S    
C47   H31   S    
C9    C11   A    
C5    C29   A    
C38   H34   S    
C43   C47   S    
O1    C3    A    
C37   H33   S    
O2    C4    A    
C2    O7    A    
O12   C52   A    
C21   C23   A    
O18   V4    S    
O5    C3    A    
C5    H5    S    
C6    H6    S    
C40   C42   S    
O15   V3    S    
C44   C46   S    
O19   V3    S    
H1    C29   S    
C35   C43   S    
C27   H7    S    
C28   H8    S    
C37   C53   S    
C50   O17   A    
C33   H43   S    
C5    C21   A    
C33   H17   S    
C6    C22   A    
O20   V3    S    
C34   H18   S    
H23   C45   S    
C10   C32   A    
C48   H32   S    
C33   C41   S    
C35   H19   S    
C17   C31   A    
C13   C15   A    
O12   V3    S    
C12   C14   A    
C17   C25   A    
C40   C48   S    
C8    C30   A    
C53   H39   S    
O16   C52   A    
C22   C24   A    
O17   V3    S    
O6    V2    S    
C23   C25   A    
C24   C26   A    
C34   C36   S    
C44   C48   S    
O4    C2    A    
O19   V4    S    
C40   H28   S    
C31   C50   S    
O16   V4    S    
C1    C44   S    
C10   H10   S    
C39   H27   S    
O5    V1    S    
C3    C8    S    
C15   C19   A    
C42   C51   S    
C14   C16   A    
O4    V2    S    
O6    C4    A    
O13   V3    S    
O14   C50   A    
O1    V2    S    
C38   C46   S    
O2    V1    S    
C39   C41   S    
C37   C45   S    
H2    C30   S    
C46   H36   S    
H3    C23   S    
C39   C47   S    
O13   C49   A    
C11   H13   S    
O14   V4    S    
C47   H29   S    
C54   H42   S    
C19   C27   A    
C7    C27   A    
C34   H44   S    
C18   C32   A    
C53   H37   S    
C49   O18   A    
O11   V4    S    
C38   C54   S    
C7    C29   A    
C2    C43   S    
C43   C45   S    
C16   C20   A    
C34   C42   S    
C41   C52   S    
C40   H26   S    
C48   H30   S    
O3    C1    A    
C6    C30   A    
H24   C46   S    
C9    H9    S    
C25   H15   S    
C36   H22   S    
C4    C7    S    
C54   H41   S    
O7    V1    S    
C1    O8    A    
C11   C13   A    
O8    V2    S    
C54   H40   S    
C20   C22   A    
C45   H35   S    
H4    C24   S    
C26   H16   S    
C35   H21   S    
C12   H14   S    
C10   C12   A    
C15   C17   A    
C16   C18   A    
O20   V4    S    
C20   C28   A    
C18   C26   A    
C8    C28   A    
C36   C44   S    
O11   C51   A    
C33   C35   S    
C32   C49   S    
C19   C21   A    
C38   C42   S    
O9    V2    S    
C37   C41   S    
O10   V1    S    
O3    V1    S    
O15   C51   A    
C13   H11   S    
C39   H25   S    
C14   H12   S    
C9    C31   A    
C53   H38   S    
