data_mof_unit_17036.cif
_audit_creation_date              2013-03-05T16:03:50-0500
_audit_creation_method            fapswitch 2.2
_symmetry_space_group_name_H-M    P1
_symmetry_Int_Tables_number       1
_space_group_crystal_system       triclinic
_cell_length_a                    6.915223
_cell_length_b                    17.991396
_cell_length_c                    19.295602
_cell_angle_alpha                 108.671456
_cell_angle_beta                  89.862767
_cell_angle_gamma                 89.818634
_cell_volume                      2274.28021668

loop_
_atom_site_label
_atom_site_type_symbol
_atom_site_description
_atom_site_fract_x
_atom_site_fract_y
_atom_site_fract_z
_atom_type_partial_charge
O1    O     O_R   0.505700 0.440210 0.561730 -0.593926
O2    O     O_R   0.169350 0.406300 0.412660 -0.578845
O3    O     O_R   0.005650 0.559790 0.438270 -0.574595
C1    C     C_R   0.340343 0.385149 0.383307 1.029818
O4    O     O_R   0.175560 0.430650 0.559600 -0.562395
O5    O     O_R   0.011900 0.584320 0.586250 -0.601536
C2    C     C_R   0.346051 0.417676 0.583193 0.910999
O6    O     O_R   0.499450 0.415680 0.413750 -0.571462
O7    O     O_3   0.341370 0.550390 0.508570 -0.283780
V1    V     V_3+5 0.063940 0.490650 0.498410 1.233362
O8    O     O_R   0.682570 0.593700 0.587340 -0.623436
C3    C     C_R   0.850075 0.616675 0.615491 0.927941
O9    O     O_R   0.676370 0.569350 0.440400 -0.571104
C4    C     C_R   0.845596 0.587215 0.421032 0.993251
V2    V     V_3+5 0.564750 0.509350 0.501590 1.218980
O10   O     O_3   0.837190 0.449610 0.491430 -0.236947
C5    C     C_R   0.049457 0.711685 0.310781 -0.094641
H1    H     H_    0.190451 0.729222 0.297160 0.113921
C6    C     C_R   0.036909 0.666708 0.358011 -0.070949
H2    H     H_    0.168980 0.652542 0.380922 0.158378
C7    C     C_R   0.856852 0.640699 0.375482 -0.156965
C8    C     C_R   0.688538 0.666258 0.348569 -0.069357
H3    H     H_    0.546918 0.649392 0.362141 0.165176
C9    C     C_R   0.700946 0.712842 0.302588 -0.118284
H4    H     H_    0.569299 0.730271 0.281569 0.127890
C10   C     C_R   0.881807 0.734616 0.281989 0.115798
C11   C     C_R   0.797105 0.851724 0.243657 -0.127656
H5    H     H_    0.712492 0.875378 0.293222 0.123303
C12   C     C_R   0.811232 0.894459 0.194654 -0.063109
H6    H     H_    0.743458 0.951608 0.208654 0.175527
C13   C     C_R   0.917323 0.865657 0.129310 -0.328265
C14   C     C_R   0.018024 0.793386 0.114842 0.326620
C15   C     C_R   0.008885 0.752424 0.166155 -0.170661
H7    H     H_    0.084424 0.696949 0.155012 0.201059
C16   C     C_R   0.896087 0.780329 0.230001 0.025108
H8    H     H_    0.395814 0.712149 0.911541 0.208256
C17   C     C_R   0.234187 0.837078 0.768153 -0.069805
C18   C     C_R   0.359319 0.826641 0.709146 -0.052072
C19   C     C_R   0.305275 0.780142 0.640006 -0.077721
C20   C     C_R   0.133123 0.738744 0.630721 -0.140740
C21   C     C_R   0.014873 0.740074 0.691403 0.094413
C22   C     C_R   0.054746 0.796584 0.760564 0.109699
C23   C     C_R   0.859195 0.686609 0.683311 -0.332373
C24   C     C_R   0.728594 0.695917 0.743079 0.106520
C25   C     C_R   0.761157 0.756116 0.810996 0.089051
C26   C     C_R   0.916098 0.810042 0.818666 -0.317528
C27   C     C_R   0.566990 0.645746 0.738283 -0.139145
C28   C     C_R   0.445579 0.653503 0.797742 -0.077318
C29   C     C_R   0.485264 0.708675 0.864608 -0.056090
C30   C     C_R   0.642819 0.758165 0.871840 -0.118450
H9    H     H_    0.288281 0.875977 0.818607 0.157010
H10   H     H_    0.495981 0.857424 0.716783 0.133336
H11   H     H_    0.397475 0.775713 0.593414 0.113003
H12   H     H_    0.094196 0.705965 0.575141 0.114140
H13   H     H_    0.530378 0.598276 0.690225 0.152393
H14   H     H_    0.323574 0.614492 0.792418 0.142846
H15   H     H_    0.673623 0.795847 0.926620 0.155334
C31   C     C_R   0.440805 0.233098 0.390085 -0.163072
C32   C     C_R   0.476689 0.159928 0.397262 -0.104673
C33   C     C_R   0.456821 0.092823 0.337372 -0.156556
C34   C     C_R   0.408159 0.098416 0.268840 -0.116645
C35   C     C_R   0.407161 0.173135 0.257541 0.055626
C36   C     C_R   0.403493 0.241459 0.320798 0.130748
C37   C     C_R   0.407893 0.181737 0.186415 -0.245538
C38   C     C_R   0.374244 0.257075 0.179827 0.137310
C39   C     C_R   0.360032 0.325261 0.243155 -0.075638
C40   C     C_R   0.363732 0.316542 0.314505 -0.280529
C41   C     C_R   0.354279 0.265324 0.109811 -0.216002
C42   C     C_R   0.326199 0.337989 0.101131 -0.263199
C43   C     C_R   0.328288 0.406007 0.161303 0.324001
C44   C     C_R   0.352663 0.400186 0.232139 0.195652
H16   H     H_    0.446016 0.282962 0.439540 0.100899
H17   H     H_    0.507610 0.154979 0.450599 0.129820
H18   H     H_    0.463159 0.036221 0.346009 0.140122
H19   H     H_    0.358276 0.215484 0.060337 0.128523
H20   H     H_    0.308553 0.341241 0.046415 0.190511
C45   C     C_R   0.538310 0.328159 0.727169 0.296682
C46   C     C_R   0.528011 0.375269 0.680729 -0.214811
C47   C     C_R   0.363215 0.370982 0.634854 -0.242017
C48   C     C_R   0.213643 0.319679 0.637576 -0.110169
H21   H     H_    0.090471 0.312379 0.601636 0.178030
C49   C     C_R   0.222027 0.275182 0.684836 -0.117105
H22   H     H_    0.102899 0.236460 0.684601 0.180986
C50   C     C_R   0.381712 0.279129 0.730731 -0.020465
C51   C     C_R   0.320004 0.152087 0.754758 -0.191274
H23   H     H_    0.262695 0.128571 0.699910 0.154668
C52   C     C_R   0.325038 0.103953 0.799346 0.374896
C53   C     C_R   0.410891 0.131992 0.869582 -0.275753
C54   C     C_R   0.476054 0.209735 0.895131 -0.195347
H24   H     H_    0.537611 0.233094 0.949322 0.140180
C55   C     C_R   0.457333 0.258820 0.852023 0.021492
H25   H     H_    0.501828 0.319380 0.874671 0.160811
C56   C     C_R   0.385712 0.229716 0.780133 0.099943
O11   O     O_R   0.273230 0.084330 0.086440 -0.565772
O12   O     O_R   0.596660 0.069390 0.940470 -0.583552
O13   O     O_R   0.760270 0.915710 0.913690 -0.619982
C57   C     C_R   0.426711 0.082593 0.917674 0.962144
O14   O     O_R   0.603330 0.093680 0.087390 -0.588395
O15   O     O_R   0.766990 0.940160 0.061660 -0.604580
C58   C     C_R   0.432704 0.112633 0.118148 0.918605
O16   O     O_R   0.266510 0.059870 0.938470 -0.561657
O17   O     O_3   0.431050 0.949630 0.991510 -0.291417
V3    V     V_3+5 0.708490 0.009340 0.001580 1.222413
O18   O     O_R   0.096270 0.930570 0.059390 -0.568203
C59   C     C_R   0.927431 0.914247 0.079851 1.080092
O19   O     O_R   0.089600 0.906290 0.912460 -0.595421
C60   C     C_R   0.922461 0.882179 0.885024 1.040589
V4    V     V_3+5 0.207670 0.990600 0.998190 1.249026
O20   O     O_3   0.935250 0.050360 0.008480 -0.255597
N1    N     N_R   0.314763 0.481039 0.149505 0.260756
O21   O     O_R   0.365219 0.488058 0.086867 -0.343671
O22   O     O_R   0.235286 0.540894 0.198257 -0.347676
C61   C     C_2   0.308941 0.029585 0.219243 0.952690
O23   O     O_2   0.147016 0.037673 0.197477 -0.647633
O24   O     O_R   0.389854 0.954846 0.203828 -0.829050
H26   H     H_    0.305713 0.912122 0.171018 0.331170
N2    N     N_R   0.413785 0.468734 0.288460 0.231379
O25   O     O_R   0.592873 0.490644 0.289365 -0.403561
O26   O     O_R   0.287043 0.515940 0.329765 -0.405617
N3    N     N_R   0.715056 0.324636 0.765272 0.211188
O27   O     O_R   0.784484 0.387422 0.812895 -0.346264
O28   O     O_R   0.796342 0.257185 0.757770 -0.433172
C62   C     C_2   0.695537 0.425827 0.679714 1.062604
O29   O     O_2   0.808567 0.406805 0.628290 -0.637363
O30   O     O_R   0.729549 0.492884 0.739325 -0.760032
H27   H     H_    0.852137 0.521011 0.733268 0.314980
N4    N     N_R   0.242014 0.027238 0.771903 0.208992
O31   O     O_R   0.100498 0.008674 0.807611 -0.420044
O32   O     O_R   0.266543 0.986511 0.703350 -0.427735
N5    N     N_R   0.125616 0.759822 0.048169 0.230762
O33   O     O_R   0.062077 0.765739 0.986722 -0.460533
O34   O     O_R   0.273820 0.714643 0.046932 -0.376542

loop_
_geom_bond_atom_site_label_1
_geom_bond_atom_site_label_2
_geom_bond_distance
_ccdc_geom_bond_type
O15   V3    1.994903 S    
C52   C53   1.418322 A    
C11   C12   1.400097 A    
C21   C23   1.421184 A    
C21   C22   1.423167 A    
O2    C1    1.311391 A    
C6    H2    1.080333 S    
O18   V4    1.992968 S    
C1    O6    1.287513 A    
C45   N3    1.439475 S    
C14   N5    1.438209 S    
C62   O29   1.220564 D    
C45   C46   1.418681 A    
N3    O27   1.300715 A    
C41   H19   1.080641 S    
O11   V4    2.029495 S    
C17   C18   1.392028 A    
C5    C10   1.403475 A    
C4    C7    1.498711 S    
C27   H13   1.071829 S    
C6    C7    1.409135 A    
C9    C10   1.405739 A    
C3    C23   1.498743 S    
C42   C43   1.391489 A    
N2    O26   1.297393 A    
O5    C3    1.300788 A    
C18   C19   1.381707 A    
C17   H9    1.069882 S    
C62   O30   1.395864 S    
C18   H10   1.083187 S    
O19   C60   1.289718 A    
O14   V3    1.987818 S    
V4    O20   2.143123 S    
C42   H20   1.083093 S    
C22   C26   1.433301 A    
C17   C22   1.424878 A    
N1    O21   1.301720 A    
C35   C37   1.429492 A    
C43   N1    1.441854 S    
C5    C6    1.401807 A    
O8    V2    2.027586 S    
C27   C28   1.390250 A    
O12   V3    1.992594 S    
C41   C42   1.383349 A    
O17   V4    1.696206 S    
C43   C44   1.414315 A    
O1    V2    1.996474 S    
C54   C55   1.399511 A    
O7    V1    2.180410 S    
C32   H17   1.082785 S    
C53   C57   1.480169 S    
C24   C27   1.423240 A    
O16   V4    1.991754 S    
C39   C40   1.434958 A    
C32   C33   1.385796 A    
O9    C4    1.299856 A    
C13   C59   1.487988 S    
C34   C35   1.429103 A    
C51   C56   1.401470 A    
C52   N4    1.433007 S    
O18   C59   1.295966 A    
N3    O28   1.300926 A    
C15   H7    1.083510 S    
C51   C52   1.402991 A    
O15   C59   1.294177 A    
C36   C40   1.420555 A    
V2    O10   2.143254 S    
C44   N2    1.424075 S    
C9    H4    1.083041 S    
C48   C49   1.393998 A    
C19   C20   1.387529 A    
O4    C2    1.311717 A    
C46   C47   1.431740 A    
C45   C50   1.414236 A    
C11   C16   1.401690 A    
C31   C32   1.388722 A    
C51   H23   1.082810 S    
C33   C34   1.399681 A    
N5    O34   1.301463 A    
C23   C24   1.429725 A    
N4    O32   1.301125 A    
C12   H6    1.080886 S    
C55   C56   1.408393 A    
C39   C44   1.431069 A    
O11   C58   1.287283 A    
C38   C41   1.412595 A    
C26   C60   1.504140 S    
C35   C36   1.428450 A    
C5    H1    1.083088 S    
C46   C62   1.479132 S    
O3    C4    1.297114 A    
C28   C29   1.381555 A    
O13   C60   1.306492 A    
C49   H22   1.079643 S    
O6    V2    2.023947 S    
C20   H12   1.080655 S    
O9    V2    1.993012 S    
C34   C61   1.473055 S    
O30   H27   1.014138 S    
C8    C9    1.404705 A    
N4    O31   1.300053 A    
O2    V1    1.987853 S    
C55   H25   1.081990 S    
C24   C25   1.426642 A    
C2    C47   1.499879 S    
C61   O23   1.221380 D    
C31   C36   1.416608 A    
C28   H14   1.083036 S    
C20   C21   1.420433 A    
O1    C2    1.289516 A    
C30   H15   1.079546 S    
C13   C14   1.419306 A    
C48   H21   1.081147 S    
O5    V1    2.001676 S    
C1    C40   1.503554 S    
O8    C3    1.292260 A    
O12   C57   1.303340 A    
C49   C50   1.404853 A    
V3    O20   1.722417 S    
C14   C15   1.412317 A    
N5    O33   1.301210 A    
O7    V2    1.696349 S    
O4    V1    1.992558 S    
C12   C13   1.404038 A    
O3    V1    1.994933 S    
V1    O10   1.722412 S    
N2    O25   1.299312 A    
C37   C38   1.419851 A    
C31   H16   1.081191 S    
C19   H11   1.082683 S    
O19   V4    2.027711 S    
C25   C30   1.420155 A    
C33   H18   1.084037 S    
C15   C16   1.405389 A    
C50   C56   1.497425 S    
C38   C39   1.430606 A    
O17   V3    2.180334 S    
O14   C58   1.313487 A    
N1    O22   1.300691 A    
C47   C48   1.400484 A    
C25   C26   1.423594 A    
C10   C16   1.490199 S    
C37   C58   1.503100 S    
C53   C54   1.402147 A    
C29   C30   1.388044 A    
O13   V3    2.001511 S    
C11   H5    1.083185 S    
C8    H3    1.082265 S    
C54   H24   1.083093 S    
C7    C8    1.410056 A    
C57   O16   1.288883 A    
H8    C29   1.080491 S    
O24   H26   1.011540 S    
C61   O24   1.395698 S    
