data_mof_unit_11298.cif
_audit_creation_date              2012-12-10T16:46:44-0500
_audit_creation_method            fapswitch 2.2
_symmetry_space_group_name_H-M    P1
_symmetry_Int_Tables_number       1
_space_group_crystal_system       triclinic
_cell_length_a                    15.855315
_cell_length_b                    8.691564
_cell_length_c                    7.453387
_cell_angle_alpha                 103.031014
_cell_angle_beta                  93.962163
_cell_angle_gamma                 92.183682
_cell_volume                      996.766264258

loop_
_atom_site_label
_atom_site_type_symbol
_atom_type_description
_atom_site_fract_x
_atom_site_fract_y
_atom_site_fract_z
_atom_type_partial_charge
C1    C     C_R   0.497462 0.199736 0.453256 0.878882
C2    C     C_3   0.953771 0.489797 0.693256 -0.389126
C3    C     C_3   0.917004 0.499982 0.498203 0.301385
C4    C     C_3   0.953576 0.654668 0.456682 -0.387564
C5    C     C_3   0.051236 0.654492 0.461536 -0.365800
C6    C     C_1   0.824708 0.499622 0.492537 -0.105662
C7    C     C_1   0.175456 0.500147 0.510144 -0.110818
C8    C     C_1   0.250957 0.500139 0.508427 -0.182027
C9    C     C_2   0.496220 0.031813 0.427025 -0.372575
C10   C     C_2   0.503652 0.968177 0.572980 -0.373207
C11   C     C_R   0.340364 0.499851 0.502751 0.824557
C12   C     C_R   0.502482 0.800260 0.546747 0.879543
C13   C     C_R   0.659649 0.500115 0.497278 0.823091
C14   C     C_3   0.051279 0.475151 0.695593 0.037301
C15   C     C_3   0.043008 0.360775 0.354146 -0.450724
C16   C     C_3   0.945050 0.357582 0.352635 -0.388592
C17   C     C_1   0.749109 0.499634 0.492090 -0.175575
C18   C     C_3   0.083244 0.500216 0.508968 0.327376
Cu1   Cu    Cu3+1 0.509300 0.517380 0.684380 0.949931
Cu2   Cu    Cu3+1 0.490700 0.482620 0.315620 0.949960
H1    H     H_    0.924141 0.385088 0.732452 0.135680
H2    H     H_    0.937238 0.595516 0.796932 0.173459
H3    H     H_    0.927437 0.666586 0.318227 0.164880
H4    H     H_    0.489206 0.960189 0.286380 0.179918
H5    H     H_    0.510657 0.039801 0.713625 0.179713
H6    H     H_    0.434917 0.376888 0.948773 0.224624
H7    H     H_    0.565068 0.623136 0.051232 0.225572
H8    H     H_    0.061870 0.349372 0.697639 0.101749
H9    H     H_    0.062413 0.372604 0.217084 0.169098
H10   H     H_    0.065731 0.246126 0.375586 0.159775
H11   H     H_    0.921190 0.244793 0.382992 0.163706
H12   H     H_    0.917435 0.361394 0.212362 0.169256
H13   H     H_    0.079661 0.762024 0.559005 0.168742
H14   H     H_    0.071223 0.663314 0.323907 0.157666
H15   H     H_    0.934856 0.758790 0.560157 0.157685
N1    N     N_2   0.476670 0.456430 0.038530 -0.216004
N2    N     N_2   0.523330 0.543570 0.961470 -0.215494
O1    O     O_R   0.506050 0.286130 0.619770 -0.584379
O2    O     O_R   0.490330 0.256780 0.308370 -0.586724
O3    O     O_R   0.387300 0.514690 0.655770 -0.584445
O4    O     O_R   0.371580 0.485340 0.344370 -0.576350
O5    O     O_R   0.509670 0.743220 0.691630 -0.586573
O6    O     O_R   0.493950 0.713870 0.380230 -0.584075
O7    O     O_R   0.628420 0.514660 0.655630 -0.576054
O8    O     O_R   0.612700 0.485310 0.344230 -0.583522
C19   C     C_3   0.099579 0.568259 0.878685 -0.397569
C20   C     C_3   0.105190 0.748330 0.909653 -0.828580
H16   H     H_    0.154738 0.786215 0.828206 0.247107
H17   H     H_    0.043452 0.794542 0.874654 0.243356
H18   H     H_    0.124371 0.801214 0.057544 0.230984
H19   H     H_    0.067731 0.537292 0.994903 0.188263
H20   H     H_    0.164925 0.527081 0.888216 0.208180

loop_
_geom_bond_atom_site_label_1
_geom_bond_atom_site_label_2
_ccdc_geom_bond_type
C2    H2    S    
C15   C18   S    
C9    H4    S    
C15   H9    S    
Cu1   O1    S    
C16   H12   S    
C9    C10   D    
C14   C18   S    
C20   H16   S    
Cu1   O5    S    
C13   C17   S    
C3    C6    S    
C5    H14   S    
C7    C18   S    
C2    H1    S    
C2    C3    S    
C4    H15   S    
C7    C8    T    
C14   C19   S    
C16   H11   S    
C13   O8    A    
C10   C12   S    
C1    O1    A    
H7    N2    S    
C8    C11   S    
Cu2   O4    S    
C15   C16   S    
C19   H19   S    
C10   H5    S    
H6    N1    S    
N1    N2    D    
C11   O4    A    
C20   H18   S    
C11   O3    A    
C2    C14   S    
Cu1   O3    S    
C1    O2    A    
C3    C4    S    
Cu2   N1    S    
C19   H20   S    
Cu2   O6    S    
C1    C9    S    
Cu1   O7    S    
C15   H10   S    
C20   H17   S    
Cu2   O8    S    
C6    C17   T    
Cu2   O2    S    
C19   C20   S    
C12   O5    A    
C5    C18   S    
Cu1   N2    S    
C14   H8    S    
C4    H3    S    
C12   O6    A    
C13   O7    A    
C3    C16   S    
Cu1   Cu2   S    
C4    C5    S    
C5    H13   S    
