data_mof_unit_37980.cif
_audit_creation_date              2012-12-11T15:58:42-0500
_audit_creation_method            fapswitch 2.2
_symmetry_space_group_name_H-M    P1
_symmetry_Int_Tables_number       1
_space_group_crystal_system       triclinic
_cell_length_a                    8.355542
_cell_length_b                    18.810529
_cell_length_c                    18.989348
_cell_angle_alpha                 99.157975
_cell_angle_beta                  94.646833
_cell_angle_gamma                 91.686395
_cell_volume                      2934.15000599

loop_
_atom_site_label
_atom_site_type_symbol
_atom_type_description
_atom_site_fract_x
_atom_site_fract_y
_atom_site_fract_z
_atom_type_partial_charge
Ba1   Ba    Ba6+2 0.152460 0.535140 0.468980 1.605779
Ba2   Ba    Ba6+2 0.657710 0.464850 0.530960 1.619062
C1    C     C_3   0.364328 0.718733 0.217717 -0.372606
C2    C     C_3   0.382317 0.694684 0.290524 0.353901
C3    C     C_3   0.443985 0.693983 0.670705 0.474428
C4    C     C_3   0.344599 0.755658 0.704046 -0.341528
C5    C     C_3   0.900017 0.266208 0.667239 0.387979
C6    C     C_3   0.895688 0.190421 0.685564 -0.387603
C7    C     C_3   0.352539 0.265176 0.701074 0.343044
C8    C     C_3   0.390676 0.250991 0.777608 -0.205951
C9    C     C_R   0.003913 0.951470 0.529417 0.005050
C10   C     C_R   0.101334 0.903482 0.561426 0.036444
C11   C     C_R   0.259984 0.925622 0.587623 -0.086279
C12   C     C_3   0.902677 0.732542 0.326917 0.353940
C13   C     C_R   0.319711 0.995058 0.584382 -0.097043
C14   C     C_R   0.221869 0.044220 0.555203 0.033746
C15   C     C_R   0.063758 0.022407 0.526882 0.014886
C16   C     C_R   0.279747 0.114916 0.555026 -0.111392
C17   C     C_R   0.180792 0.165973 0.528663 -0.039782
C18   C     C_R   0.023566 0.143622 0.497356 -0.000045
C19   C     C_R   0.965816 0.071448 0.496416 -0.005169
C20   C     C_R   0.232932 0.239171 0.534354 -0.029868
C21   C     C_R   0.128417 0.288755 0.510145 -0.287096
C22   C     C_R   0.977335 0.267353 0.474576 0.051376
C23   C     C_3   0.923335 0.808135 0.309237 -0.367164
C24   C     C_R   0.924004 0.193157 0.467264 -0.057566
C25   C     C_R   0.846776 0.928831 0.500671 -0.003330
C26   C     C_R   0.787941 0.857190 0.502033 -0.002832
C27   C     C_R   0.887348 0.808142 0.533396 -0.051199
C28   C     C_R   0.040161 0.833982 0.566032 -0.051378
C29   C     C_R   0.774032 0.166819 0.431572 -0.049315
C30   C     C_R   0.711779 0.096485 0.433846 0.038126
C31   C     C_R   0.808911 0.048623 0.466717 -0.012925
C32   C     C_R   0.749552 0.977519 0.469270 0.010211
C33   C     C_R   0.553277 0.072933 0.405072 0.071400
C34   C     C_3   0.728888 0.334082 0.298972 0.337832
C35   C     C_R   0.495608 0.003067 0.409375 -0.081712
C36   C     C_R   0.592514 0.955127 0.440449 0.011464
C37   C     C_R   0.630030 0.834863 0.471591 -0.041353
C38   C     C_R   0.533559 0.884904 0.442315 -0.102112
C39   C     C_R   0.573493 0.763117 0.471281 0.008113
C40   C     C_R   0.672615 0.715769 0.502086 -0.255155
C41   C     C_R   0.829866 0.735237 0.530818 0.048069
C42   C     C_R   0.600350 0.537689 0.302920 -0.207465
C43   C     C_R   0.460317 0.495315 0.277280 0.071223
C44   C     C_R   0.410725 0.484651 0.203865 -0.147844
C45   C     C_3   0.647505 0.260275 0.262792 -0.012600
C46   C     C_R   0.505235 0.511820 0.155092 -0.015813
C47   C     C_R   0.654989 0.546891 0.180878 -0.148726
C48   C     C_R   0.704129 0.558490 0.254188 0.024133
C49   C     C_R   0.477164 0.557474 0.037576 -0.075929
C50   C     C_R   0.426679 0.548828 0.964600 -0.083865
C51   C     C_R   0.348406 0.484228 0.929056 0.058274
C52   C     C_R   0.320554 0.428702 0.968701 -0.079920
C53   C     C_R   0.371061 0.437403 0.041917 -0.075798
C54   C     C_R   0.450578 0.501878 0.077249 0.067643
C55   C     C_R   0.147280 0.441973 0.822618 -0.135016
C56   C     C_3   0.002327 0.613946 0.689534 0.295031
C57   C     C_R   0.098212 0.437527 0.749490 -0.002050
C58   C     C_R   0.347624 0.498399 0.731688 0.075750
C59   C     C_R   0.397166 0.503204 0.804431 -0.126983
C60   C     C_R   0.297889 0.475058 0.850897 -0.021202
C61   C     C_R   0.200794 0.463836 0.704239 -0.272569
C62   C     C_3   0.942885 0.621096 0.764611 -0.031128
C63   C     C_3   0.268256 0.317753 0.361013 0.311169
C64   C     C_3   0.189610 0.246432 0.322493 -0.408614
H1    H     H_    0.307507 0.644252 0.287418 0.093091
H2    H     H_    0.542344 0.248819 0.291569 0.071149
H3    H     H_    0.730923 0.216462 0.269901 0.081123
H4    H     H_    0.132977 0.606313 0.692686 -0.035538
H5    H     H_    0.940284 0.565026 0.657603 0.059251
H6    H     H_    0.958056 0.569910 0.786001 0.053283
H7    H     H_    0.812159 0.630282 0.760554 0.119051
H8    H     H_    0.174972 0.350613 0.386769 0.059706
H9    H     H_    0.361720 0.307225 0.402663 0.022938
H10   H     H_    0.236659 0.729395 0.203578 0.146620
H11   H     H_    0.094801 0.256220 0.281207 0.149854
H12   H     H_    0.136660 0.215945 0.360786 0.065429
H13   H     H_    0.278856 0.212660 0.294878 0.103506
H14   H     H_    0.510717 0.684118 0.302643 -0.052855
H15   H     H_    0.403736 0.675777 0.176395 0.071519
H16   H     H_    0.379271 0.669755 0.618784 0.059741
H17   H     H_    0.345747 0.799877 0.672305 0.058046
H18   H     H_    0.219670 0.736951 0.705945 0.122798
H19   H     H_    0.392285 0.776632 0.760051 0.107733
H20   H     H_    0.439578 0.768607 0.218693 0.110155
H21   H     H_    0.884776 0.848163 0.353417 0.073909
H22   H     H_    0.814857 0.267241 0.619572 0.107702
H23   H     H_    0.023015 0.279688 0.654078 -0.096318
H24   H     H_    0.772431 0.175138 0.697348 0.139427
H25   H     H_    0.930848 0.151439 0.639863 0.077398
H26   H     H_    0.980752 0.187898 0.733084 0.103190
H27   H     H_    0.255037 0.225511 0.676560 -0.038471
H28   H     H_    0.309799 0.320827 0.703000 -0.008488
H29   H     H_    0.279580 0.257832 0.806074 0.063388
H30   H     H_    0.977390 0.729998 0.377497 0.091750
H31   H     H_    0.426883 0.194454 0.776517 0.101425
H32   H     H_    0.339520 0.889169 0.609831 0.065179
H33   H     H_    0.442545 0.010479 0.605275 0.070512
H34   H     H_    0.168592 0.344765 0.516204 0.067871
H35   H     H_    0.401533 0.129892 0.577301 0.097886
H36   H     H_    0.114524 0.800136 0.594286 0.095593
H37   H     H_    0.702711 0.201520 0.403210 0.086767
H38   H     H_    0.374243 0.985562 0.387611 0.071811
H39   H     H_    0.411316 0.870045 0.420750 0.111807
H40   H     H_    0.774106 0.722833 0.334740 -0.066145
H41   H     H_    0.625046 0.662479 0.505059 0.048912
H42   H     H_    0.510640 0.531107 0.824981 0.083002
H43   H     H_    0.447304 0.593332 0.936187 0.058123
H44   H     H_    0.535284 0.608274 0.063234 0.062203
H45   H     H_    0.299013 0.454492 0.184931 0.081496
H46   H     H_    0.262407 0.377990 0.942781 0.061446
H47   H     H_    0.350240 0.393106 0.070501 0.047819
H48   H     H_    0.066091 0.422300 0.857505 0.073639
H49   H     H_    0.734896 0.563897 0.144022 0.077341
H50   H     H_    0.161075 0.462233 0.648301 0.059243
H51   H     H_    0.051412 0.820210 0.302201 0.146289
H52   H     H_    0.848791 0.812717 0.259149 0.111156
H53   H     H_    0.644649 0.365765 0.332234 0.032815
O1    O     O_2   0.118870 0.674530 0.547560 -0.469417
O2    O     O_3   0.340291 0.351562 0.310449 -0.654267
O3    O     O_3   0.952280 0.682398 0.270620 -0.597841
O4    O     O_2   0.691430 0.325420 0.452420 -0.484979
O5    O     O_3   0.939830 0.414660 0.457830 -0.474737
O6    O     O_3   0.456020 0.368240 0.581510 -0.450288
O7    O     O_3   0.868316 0.319604 0.339179 -0.662594
O8    O     O_3   0.374170 0.535780 0.585810 -0.484911
O9    O     O_3   0.871300 0.403980 0.619270 -0.484459
O10   O     O_2   0.763088 0.447066 0.746798 -0.482911
O11   O     O_3   0.854731 0.314573 0.725712 -0.599833
O12   O     O_3   0.870460 0.585330 0.542110 -0.495862
O13   O     O_3   0.436130 0.464210 0.414140 -0.506011
O14   O     O_2   0.629420 0.533310 0.672080 -0.460646
O15   O     O_3   0.461233 0.644699 0.718723 -0.664785
O16   O     O_2   0.568271 0.242736 0.530586 -0.500825
O17   O     O_3   0.487847 0.255466 0.661662 -0.584378
O18   O     O_3   0.354280 0.631750 0.418430 -0.499609
O19   O     O_2   0.237531 0.756787 0.469874 -0.488600
O20   O     O_3   0.971070 0.677469 0.661476 -0.665699
O21   O     O_3   0.330414 0.748956 0.342302 -0.607154
O22   O     O_2   0.180880 0.466650 0.327890 -0.443398
O23   O     O_3   0.939000 0.596010 0.380670 -0.490592
O24   O     O_2   0.038924 0.548614 0.252151 -0.483210
P1    P     P_3+3 0.947550 0.663200 0.567530 0.955486
P2    P     P_3+3 0.354660 0.445020 0.336980 0.966334
P3    P     P_3+3 0.909460 0.595469 0.287919 0.951177
P4    P     P_3+3 0.862750 0.336790 0.432410 0.960426
P5    P     P_3+3 0.896298 0.402433 0.711324 0.953807
P6    P     P_3+3 0.375443 0.725489 0.427120 0.934297
P7    P     P_3+3 0.449483 0.554097 0.676552 0.931134
P8    P     P_3+3 0.434625 0.275003 0.575731 0.950149
N1    N     N_2   0.601878 0.253998 0.186400 -0.439684
H54   H     H_    0.692140 0.261186 0.153966 0.197569
C65   C     C_3   0.445006 0.276939 0.163935 -0.201030
H55   H     H_    0.425349 0.265652 0.104623 0.088442
H56   H     H_    0.435632 0.335409 0.181812 0.113454
H57   H     H_    0.350037 0.246715 0.185838 0.129278
N2    N     N_2   0.023778 0.680738 0.813755 -0.428377
H58   H     H_    0.024167 0.729820 0.796112 0.216353
C66   C     C_3   0.171880 0.665322 0.852137 -0.256517
H59   H     H_    0.263934 0.650040 0.814411 0.132132
H60   H     H_    0.150703 0.620922 0.882887 0.122416
H61   H     H_    0.217329 0.713891 0.890485 0.110076
N3    N     N_2   0.601622 0.720313 0.657093 -0.445841
H62   H     H_    0.669552 0.678056 0.638031 0.186516
C67   C     C_3   0.690594 0.772515 0.712018 -0.225410
H63   H     H_    0.810371 0.785096 0.694790 0.116825
H64   H     H_    0.705938 0.751200 0.763299 0.128265
H65   H     H_    0.628870 0.824229 0.719894 0.092653
C68   C     C_3   0.522915 0.302278 0.819071 -0.340069
H66   H     H_    0.502507 0.358683 0.811611 0.141419
H67   H     H_    0.524952 0.299090 0.877023 0.093708
H68   H     H_    0.641136 0.286426 0.800922 0.189179
C69   C     C_3   0.442810 0.120832 0.369648 -0.422813
H69   H     H_    0.494717 0.133467 0.320962 0.098823
H70   H     H_    0.321739 0.094666 0.353109 0.114772
H71   H     H_    0.426834 0.171140 0.407174 0.129778
C70   C     C_3   0.646031 0.560593 0.381339 -0.240720
H72   H     H_    0.682073 0.618369 0.389420 0.031430
H73   H     H_    0.557531 0.564648 0.418802 0.161275
H74   H     H_    0.732955 0.522948 0.400584 0.143152
C71   C     C_3   0.784917 0.380773 0.245864 -0.331810
H75   H     H_    0.682941 0.395502 0.211023 0.057240
H76   H     H_    0.845569 0.430885 0.276137 0.114621
H77   H     H_    0.873793 0.352537 0.212204 0.108658

loop_
_geom_bond_atom_site_label_1
_geom_bond_atom_site_label_2
_ccdc_geom_bond_type
C56   O20   S    
O24   P3    D    
C67   H64   S    
C53   C54   A    
C12   O3    S    
C35   H38   S    
C39   C40   A    
O23   P3    S    
Ba1   P2    S    
C17   C18   A    
O1    P1    D    
Ba1   O13   S    
C23   H52   S    
C70   H72   S    
C55   C60   A    
C37   C39   A    
C51   C52   A    
C42   C43   A    
C64   H13   S    
C26   C27   A    
C35   C36   A    
C4    H19   S    
C68   H67   S    
C58   C61   A    
C43   P2    S    
O13   P2    S    
C50   H43   S    
N3    H62   S    
C33   C35   A    
C22   C24   A    
C49   C54   A    
O8    P7    S    
C3    C4    S    
C56   H5    S    
C55   C57   A    
C39   P6    S    
C68   H66   S    
C13   C14   A    
O15   P7    S    
C23   H21   S    
C45   N1    S    
C34   C45   S    
C16   C17   A    
O20   P1    S    
C11   H32   S    
C34   H53   S    
C59   H42   S    
C69   H69   S    
C45   H3    S    
C5    O11   S    
Ba1   O23   S    
O6    P8    S    
C71   H75   S    
C5    H22   S    
C14   C15   A    
O10   P5    D    
C1    H15   S    
Ba2   O13   S    
C21   C22   A    
C6    H26   S    
C63   O2    S    
C7    C8    S    
C65   H56   S    
O22   P2    D    
Ba2   O8    S    
C48   P3    S    
O3    P3    S    
C21   H34   S    
C24   C29   A    
O19   P6    D    
C36   C38   A    
C44   H45   S    
C27   C41   A    
C1    H20   S    
N2    C66   S    
O18   P6    S    
C41   P1    S    
C12   H30   S    
C31   C32   A    
C71   H76   S    
C25   C32   A    
C56   C62   S    
C3    O15   S    
C64   H12   S    
O5    P4    S    
C44   C46   A    
Ba2   O14   S    
C4    H18   S    
O14   P7    D    
O11   P5    S    
C49   C50   A    
C66   H61   S    
C5    C6    S    
C17   C20   A    
C65   H57   S    
C42   C70   S    
C37   C38   A    
C56   H4    S    
C53   H47   S    
C26   C37   A    
Ba2   P4    S    
Ba2   O4    S    
C15   C19   A    
C63   H8    S    
C58   C59   A    
Ba1   O1    S    
C66   H60   S    
C8    H31   S    
C3    N3    S    
C27   C28   A    
C2    O21   S    
C51   C60   S    
C29   C30   A    
C9    C25   A    
C7    O17   S    
C62   H7    S    
C28   H36   S    
Ba2   O12   S    
C52   H46   S    
C6    H25   S    
C58   P7    S    
C18   C19   A    
C1    H10   S    
C69   H71   S    
C65   H55   S    
C34   C71   S    
C61   H50   S    
C46   C47   A    
C47   H49   S    
N1    C65   S    
C47   C48   A    
C49   H44   S    
C11   C13   A    
N2    H58   S    
O2    P2    S    
C6    H24   S    
C40   C41   A    
C1    C2    S    
C7    H27   S    
C45   H2    S    
O17   P8    S    
Ba1   O18   S    
C50   C51   A    
C40   H41   S    
C42   C48   A    
C52   C53   A    
C46   C54   S    
C64   H11   S    
C20   P8    S    
C9    C15   A    
C4    H17   S    
C10   C28   A    
C32   C36   A    
C33   C69   S    
C34   O7    S    
C30   C33   A    
Ba1   O8    S    
O4    P4    D    
Ba1   O12   S    
C22   P4    S    
C23   H51   S    
C2    H1    S    
C70   H73   S    
O7    P4    S    
C2    H14   S    
C55   H48   S    
Ba2   O5    S    
C8    C68   S    
C57   C61   A    
C63   H9    S    
Ba2   O9    S    
C66   H59   S    
N3    C67   S    
Ba1   O5    S    
Ba1   P1    S    
C30   C31   A    
C13   H33   S    
C3    H16   S    
C67   H63   S    
C18   C24   A    
C8    H29   S    
O16   P8    D    
C7    H28   S    
Ba1   Ba2   S    
C57   P5    S    
O9    P5    S    
C62   H6    S    
C12   C23   S    
C59   C60   A    
C69   H70   S    
C70   H74   S    
Ba1   O22   S    
Ba2   O6    S    
C43   C44   A    
C12   H40   S    
C19   C31   A    
C10   C11   A    
C67   H65   S    
C14   C16   A    
C63   C64   S    
C62   N2    S    
C25   C26   A    
C20   C21   A    
N1    H54   S    
O21   P6    S    
C71   H77   S    
O12   P1    S    
C9    C10   A    
C29   H37   S    
C38   H39   S    
C16   H35   S    
C68   H68   S    
C5    H23   S    
