data_mof_unit_24385.cif
_audit_creation_date              2012-12-10T19:06:27-0500
_audit_creation_method            fapswitch 2.2
_symmetry_space_group_name_H-M    P1
_symmetry_Int_Tables_number       1
_space_group_crystal_system       triclinic
_cell_length_a                    23.314774
_cell_length_b                    10.804256
_cell_length_c                    9.792339
_cell_angle_alpha                 90.084932
_cell_angle_beta                  89.163316
_cell_angle_gamma                 90.540881
_cell_volume                      2466.30318863

loop_
_atom_site_label
_atom_site_type_symbol
_atom_type_description
_atom_site_fract_x
_atom_site_fract_y
_atom_site_fract_z
_atom_type_partial_charge
C1    C     C_R   0.499522 0.263212 0.500070 0.786766
C2    C     C_R   0.973477 0.245802 0.386509 -0.243248
C3    C     C_R   0.033163 0.251520 0.368835 0.469245
C4    C     C_R   0.062631 0.363916 0.398296 -0.134647
C5    C     C_R   0.030558 0.473140 0.415971 -0.071992
C6    C     C_R   0.058250 0.585916 0.444235 -0.024452
C7    C     C_R   0.026503 0.695520 0.449912 -0.189455
C8    C     C_R   0.967191 0.694850 0.427352 0.125393
C9    C     C_R   0.122719 0.371368 0.411577 0.540705
C10   C     C_R   0.117167 0.585991 0.469133 0.515000
C11   C     C_R   0.243801 0.563931 0.384275 0.057176
C12   C     C_R   0.391555 0.497592 0.500568 0.855078
C13   C     C_R   0.301027 0.584463 0.419750 0.393906
C14   C     C_R   0.328852 0.495597 0.499358 -0.221845
C15   C     C_R   0.296875 0.399337 0.562945 0.018912
C16   C     C_R   0.236364 0.410412 0.568642 0.161033
C17   C     C_R   0.209707 0.484746 0.468052 0.206677
C18   C     C_R   0.751020 0.378966 0.375115 0.125666
C19   C     C_R   0.693698 0.377561 0.425969 0.030697
C20   C     C_R   0.671396 0.487291 0.487046 -0.166724
C21   C     C_R   0.709811 0.586424 0.515473 -0.031584
C22   C     C_R   0.768080 0.557135 0.522457 0.380284
C23   C     C_R   0.497274 0.736672 0.500326 0.762420
C24   C     C_R   0.790174 0.461898 0.437868 0.178979
C25   C     C_R   0.506898 0.063912 0.621550 0.128919
C26   C     C_R   0.500740 0.129559 0.499868 -0.087273
C27   C     C_R   0.496606 0.064139 0.376670 -0.228888
C28   C     C_R   0.492590 0.936059 0.377851 -0.239485
C29   C     C_R   0.496960 0.870644 0.500767 -0.099635
C30   C     C_R   0.505508 0.936123 0.621908 0.125813
C31   C     C_3   0.470381 0.932325 0.750876 -0.493985
C32   C     C_3   0.472636 0.072502 0.751174 -0.465409
C33   C     C_R   0.548475 0.532278 0.068921 -0.018395
C34   C     C_R   0.608693 0.499563 0.497914 0.846434
C35   C     C_R   0.455311 0.454349 0.076812 0.510594
C36   C     C_R   0.451205 0.478719 0.933245 0.110268
C37   C     C_R   0.550181 0.521796 0.923890 0.068788
C38   C     C_3   0.588923 0.635652 0.914535 -0.043831
C39   C     C_3   0.588854 0.645032 0.072011 0.242039
C40   C     C_R   0.879408 0.568177 0.381681 0.598091
C41   C     C_R   0.882230 0.352205 0.426593 0.547290
C42   C     C_R   0.941858 0.354343 0.405718 -0.078967
C43   C     C_R   0.970431 0.469362 0.406977 -0.060551
C44   C     C_R   0.938730 0.579785 0.403968 -0.050260
Cu1   Cu    Cu3+1 0.500000 0.499980 0.640670 0.911594
Cu2   Cu    Cu3+1 0.500000 0.500020 0.359330 0.958162
H1    H     H_    0.951746 0.157429 0.376890 0.185214
H2    H     H_    0.494000 0.111317 0.279808 0.152313
H3    H     H_    0.483838 0.889169 0.283101 0.172203
H4    H     H_    0.426517 0.894438 0.735097 0.194663
H5    H     H_    0.493711 0.890167 0.836847 0.202580
H6    H     H_    0.430016 0.115617 0.736979 0.192548
H7    H     H_    0.498176 0.111532 0.836301 0.194875
H8    H     H_    0.564652 0.709296 0.862038 0.168553
H9    H     H_    0.047886 0.782708 0.471763 0.195853
N1    N     N_R   0.851452 0.458787 0.410982 -0.436055
N2    N     N_R   0.148393 0.480166 0.450741 -0.437720
N3    N     N_R   0.500360 0.500930 0.147930 -0.227483
N4    N     N_R   0.500360 0.500890 0.852020 -0.207763
O1    O     O_R   0.500000 0.319640 0.618810 -0.576353
O2    O     O_2   0.856086 0.246292 0.466597 -0.573127
O3    O     O_2   0.155320 0.270837 0.388300 -0.541449
O4    O     O_2   0.143263 0.691035 0.511252 -0.574965
O5    O     O_R   0.500010 0.319680 0.381230 -0.585406
O6    O     O_R   0.417880 0.499940 0.618820 -0.596952
O7    O     O_R   0.417880 0.499980 0.381240 -0.485458
O8    O     O_R   0.499990 0.680320 0.618770 -0.592565
O9    O     O_R   0.500000 0.680360 0.381190 -0.594209
O10   O     O_R   0.582120 0.500020 0.618760 -0.590286
O11   O     O_R   0.582120 0.500060 0.381180 -0.604294
O12   O     O_2   0.849519 0.664031 0.332242 -0.546955
C45   C     C_3   0.657840 0.258794 0.421829 -0.394876
C46   C     C_3   0.647298 0.208133 0.565767 -0.827774
H10   H     H_    0.688752 0.195586 0.618319 0.258413
H11   H     H_    0.619981 0.271044 0.627376 0.260083
H12   H     H_    0.625440 0.116657 0.559567 0.234181
H13   H     H_    0.616582 0.274332 0.369974 0.215726
H14   H     H_    0.679721 0.183450 0.365572 0.201738
C47   C     C_3   0.696790 0.725382 0.511976 -0.321679
C48   C     C_3   0.634815 0.769012 0.515856 -0.894762
H15   H     H_    0.613140 0.747009 0.420506 0.243040
H16   H     H_    0.610132 0.728850 0.601923 0.271404
H17   H     H_    0.634238 0.871309 0.527005 0.238407
H18   H     H_    0.720080 0.773539 0.593885 0.241712
H19   H     H_    0.716778 0.764238 0.417873 0.222920
O13   O     O_3   0.804703 0.636953 0.590302 -0.607140
C49   C     C_3   0.821250 0.580371 0.713256 0.016997
H20   H     H_    0.845245 0.493477 0.692448 0.156664
H21   H     H_    0.782885 0.558467 0.778460 0.143029
C50   C     C_3   0.860481 0.669518 0.790379 -0.335904
H22   H     H_    0.900678 0.684557 0.729958 0.217493
H23   H     H_    0.838845 0.760135 0.803232 0.225672
C51   C     C_3   0.875401 0.619371 0.930944 -0.893805
H24   H     H_    0.836075 0.611182 0.995666 0.266269
H25   H     H_    0.905718 0.683941 0.981676 0.260270
H26   H     H_    0.895890 0.527289 0.921434 0.255889
O14   O     O_3   0.409641 0.400845 0.147481 -0.587095
C52   C     C_3   0.402251 0.275674 0.106947 0.008969
H27   H     H_    0.420534 0.216444 0.187180 0.171749
H28   H     H_    0.423865 0.250746 0.008215 0.103908
C53   C     C_3   0.338205 0.245591 0.094898 -0.353032
H29   H     H_    0.314613 0.280097 0.186449 0.245172
H30   H     H_    0.320743 0.292463 0.003859 0.195799
C54   C     C_3   0.327781 0.106489 0.080636 -0.908185
H31   H     H_    0.350371 0.070536 0.988274 0.257114
H32   H     H_    0.281114 0.087871 0.070538 0.258016
H33   H     H_    0.343253 0.057117 0.172309 0.260012
O15   O     O_3   0.061504 0.145150 0.328283 -0.582935
C55   C     C_3   0.080041 0.157182 0.189988 0.131864
H34   H     H_    0.119467 0.101254 0.176303 0.181230
H35   H     H_    0.092330 0.253922 0.161170 0.131969
C56   C     C_3   0.034628 0.107464 0.091958 -0.428564
H36   H     H_    0.028953 0.006419 0.107849 0.225493
H37   H     H_    0.992972 0.153635 0.112053 0.223182
C57   C     C_3   0.052513 0.129844 0.943343 -0.882603
H38   H     H_    0.057068 0.230644 0.923085 0.254177
H39   H     H_    0.019288 0.091210 0.874794 0.265226
H40   H     H_    0.093931 0.083777 0.920106 0.257010
C58   C     C_3   0.390596 0.506003 0.887996 -0.309679
C59   C     C_3   0.383181 0.642417 0.851924 -0.820139
H41   H     H_    0.416211 0.674743 0.778131 0.285585
H42   H     H_    0.340099 0.656116 0.807885 0.225319
H43   H     H_    0.386739 0.700178 0.945476 0.233833
H44   H     H_    0.375415 0.439892 0.811679 0.198882
H45   H     H_    0.358685 0.490788 0.971189 0.202871
C60   C     C_3   0.649552 0.623783 0.851578 -0.326822
C61   C     C_3   0.679210 0.751535 0.843481 -0.859052
H46   H     H_    0.657733 0.813349 0.771343 0.248765
H47   H     H_    0.677114 0.803663 0.939229 0.281091
H48   H     H_    0.725119 0.741029 0.815792 0.246165
H49   H     H_    0.675643 0.554781 0.905559 0.191647
H50   H     H_    0.648595 0.588202 0.748289 0.237574
C62   C     C_3   0.644615 0.608220 0.152555 -0.309751
C63   C     C_3   0.701614 0.680255 0.144614 -0.864695
H51   H     H_    0.695742 0.780637 0.161190 0.254238
H52   H     H_    0.729458 0.647187 0.227602 0.255362
H53   H     H_    0.727401 0.660448 0.052091 0.259495
H54   H     H_    0.634216 0.623749 0.258396 0.234496
H55   H     H_    0.653993 0.508077 0.139227 0.185105
C64   C     C_3   0.558968 0.764755 0.122973 -0.347069
C65   C     C_3   0.582433 0.888040 0.067070 -0.899717
H56   H     H_    0.625543 0.908762 0.107342 0.256036
H57   H     H_    0.583587 0.891208 0.954228 0.250592
H58   H     H_    0.553965 0.963923 0.101921 0.238614
H59   H     H_    0.512431 0.759628 0.099723 0.189337
H60   H     H_    0.564106 0.771203 0.233492 0.229526
C66   C     C_3   0.935834 0.816065 0.446760 -0.345300
C67   C     C_3   0.932647 0.887049 0.312696 -0.756096
H61   H     H_    0.916888 0.827102 0.228815 0.273626
H62   H     H_    0.903062 0.966276 0.325027 0.244035
H63   H     H_    0.975913 0.922767 0.284668 0.238183
H64   H     H_    0.958469 0.875226 0.522281 0.183487
H65   H     H_    0.892426 0.801460 0.491920 0.256122
C68   C     C_3   0.220442 0.628038 0.258772 -0.299963
C69   C     C_3   0.250955 0.583978 0.128512 -0.827632
H66   H     H_    0.297142 0.609494 0.129462 0.293640
H67   H     H_    0.246532 0.481927 0.117992 0.243373
H68   H     H_    0.231458 0.628307 0.038333 0.231239
H69   H     H_    0.174188 0.608979 0.244521 0.197054
H70   H     H_    0.225790 0.729882 0.268867 0.222649
O16   O     O_3   0.330643 0.685457 0.365263 -0.598820
C70   C     C_3   0.341842 0.772666 0.470348 0.027275
H71   H     H_    0.377124 0.834527 0.434226 0.165391
H72   H     H_    0.357578 0.728506 0.565132 0.125090
C71   C     C_3   0.289341 0.853431 0.501909 -0.345725
H73   H     H_    0.284091 0.921756 0.418358 0.219749
H74   H     H_    0.249818 0.795801 0.508485 0.258294
C72   C     C_3   0.295510 0.921291 0.637862 -0.905453
H75   H     H_    0.293742 0.854129 0.723585 0.253967
H76   H     H_    0.259826 0.987742 0.651339 0.269523
H77   H     H_    0.336826 0.972556 0.641563 0.249071
C73   C     C_3   0.326255 0.278002 0.599113 -0.411658
C74   C     C_3   0.343406 0.207377 0.469749 -0.821609
H78   H     H_    0.304488 0.177086 0.414299 0.272538
H79   H     H_    0.370626 0.265549 0.401621 0.263689
H80   H     H_    0.368684 0.124717 0.496373 0.235258
H81   H     H_    0.365170 0.294621 0.659700 0.197674
H82   H     H_    0.298807 0.214426 0.659942 0.204203
C75   C     C_3   0.201203 0.350066 0.683689 -0.376821
C76   C     C_3   0.171239 0.446344 0.773580 -0.833404
H83   H     H_    0.202235 0.519225 0.805440 0.254766
H84   H     H_    0.135186 0.489563 0.719664 0.269320
H85   H     H_    0.153330 0.400825 0.866722 0.232919
H86   H     H_    0.169213 0.283581 0.643289 0.241250
H87   H     H_    0.228420 0.297784 0.754362 0.185733
C77   C     C_3   0.767404 0.302279 0.249073 -0.355998
C78   C     C_3   0.794790 0.379501 0.134314 -0.856848
H88   H     H_    0.767579 0.459988 0.111078 0.253629
H89   H     H_    0.838483 0.411702 0.160380 0.265399
H90   H     H_    0.798636 0.322132 0.040470 0.237133
H91   H     H_    0.795699 0.224519 0.274995 0.245886
H92   H     H_    0.728734 0.260617 0.202425 0.181046

loop_
_geom_bond_atom_site_label_1
_geom_bond_atom_site_label_2
_ccdc_geom_bond_type
C73   H81   S    
C27   H2    S    
C49   H20   S    
Cu1   O1    S    
C71   H73   S    
C40   O12   S    
C69   H67   S    
C41   C42   A    
C66   C67   S    
C67   H63   S    
C7    H9    S    
C36   N4    A    
C63   H53   S    
C54   H32   S    
O16   C70   S    
C7    C8    A    
C74   H78   S    
C59   H41   S    
C68   H70   S    
C62   C63   S    
C26   C27   A    
C51   H24   S    
C35   N3    A    
C18   C24   A    
C5    C6    A    
C23   C29   S    
C28   C29   A    
C37   C38   S    
C67   H62   S    
Cu2   O7    S    
C55   H35   S    
C39   C62   S    
C47   H18   S    
C15   C16   A    
O15   C55   S    
C18   C19   A    
C46   H10   S    
C23   O8    A    
C77   H91   S    
C36   C58   S    
C56   H36   S    
C78   H90   S    
C45   H14   S    
C11   C68   S    
C72   H77   S    
C32   H6    S    
C10   O4    S    
C59   H42   S    
C16   C17   A    
C57   H39   S    
Cu1   O8    S    
C41   O2    S    
C34   O11   A    
C76   H85   S    
C20   C34   S    
C25   C32   S    
C72   H76   S    
C5    C43   A    
C62   H54   S    
C51   H25   S    
C58   H44   S    
C21   C22   A    
Cu2   N3    S    
C69   H68   S    
C46   H11   S    
C19   C45   S    
C48   H17   S    
C56   H37   S    
C54   H31   S    
C38   C60   S    
C76   H84   S    
O14   C52   S    
C70   H72   S    
C74   H79   S    
Cu2   O11   S    
Cu1   O10   S    
C9    O3    S    
C53   H29   S    
C56   C57   S    
C10   N2    A    
C64   C65   S    
C16   C75   S    
C48   H16   S    
C1    O1    A    
C64   H60   S    
O13   C49   S    
C45   C46   S    
C63   H52   S    
C40   N1    A    
C25   C26   A    
Cu1   Cu2   S    
C12   O7    A    
C18   C77   S    
C33   C37   A    
C47   C48   S    
Cu2   O5    S    
C35   C36   A    
C23   O9    A    
C43   C44   A    
C61   H47   S    
C41   N1    A    
Cu2   O9    S    
C29   C30   A    
C70   C71   S    
C28   H3    S    
C50   H23   S    
C31   C32   S    
C38   H8    S    
C60   H50   S    
C30   C31   S    
C57   H40   S    
C21   C47   S    
C33   C39   S    
C67   H61   S    
C34   O10   A    
C68   C69   S    
C37   N4    A    
C75   H87   S    
C58   H45   S    
C72   H75   S    
C12   C14   S    
C62   H55   S    
C51   H26   S    
C52   H28   S    
C49   H21   S    
Cu1   O6    S    
C1    C26   S    
C3    O15   S    
C46   H12   S    
C22   C24   A    
C55   C56   S    
C8    C66   S    
C24   N1    S    
C42   C43   A    
C31   H4    S    
C61   H46   S    
C1    O5    A    
C32   H7    S    
C47   H19   S    
C68   H69   S    
C73   C74   S    
C50   C51   S    
C70   H71   S    
C75   H86   S    
C74   H80   S    
C73   H82   S    
C25   C30   A    
C39   C64   S    
Cu1   N4    S    
C8    C44   A    
C31   H5    S    
C48   H15   S    
C11   C17   A    
C64   H59   S    
C6    C10   A    
C45   H13   S    
C58   C59   S    
C59   H43   S    
C13   O16   S    
C6    C7    A    
C65   H58   S    
C2    H1    S    
C53   C54   S    
C52   C53   S    
C12   O6    A    
C63   H51   S    
C71   C72   S    
C53   H30   S    
C33   N3    A    
C19   C20   A    
C65   H57   S    
C66   H64   S    
C77   C78   S    
C61   H48   S    
C78   H88   S    
C35   O14   S    
C65   H56   S    
C11   C13   A    
C50   H22   S    
C38   C39   S    
C60   H49   S    
C2    C42   A    
C60   C61   S    
C4    C5    A    
C15   C73   S    
C2    C3    A    
C9    N2    A    
C22   O13   S    
C77   H92   S    
C66   H65   S    
C78   H89   S    
C75   C76   S    
C40   C44   A    
C20   C21   A    
C71   H74   S    
C52   H27   S    
C49   C50   S    
C55   H34   S    
C69   H66   S    
C14   C15   A    
C57   H38   S    
C4    C9    A    
C13   C14   A    
C54   H33   S    
C76   H83   S    
C3    C4    A    
C17   N2    S    
C27   C28   A    
