data_mof_unit_54451.cif
_audit_creation_date              2012-12-10T17:39:48-0500
_audit_creation_method            fapswitch 2.2
_symmetry_space_group_name_H-M    P1
_symmetry_Int_Tables_number       1
_space_group_crystal_system       triclinic
_cell_length_a                    21.075423
_cell_length_b                    21.352689
_cell_length_c                    13.856445
_cell_angle_alpha                 89.999919
_cell_angle_beta                  90.416469
_cell_angle_gamma                 90.0
_cell_volume                      6235.47042785

loop_
_atom_site_label
_atom_site_type_symbol
_atom_type_description
_atom_site_fract_x
_atom_site_fract_y
_atom_site_fract_z
_atom_type_partial_charge
C1    C     C_R   0.085879 0.414831 0.499902 0.801551
C2    C     C_R   0.914662 0.585689 0.499688 0.804464
C3    C     C_R   0.914121 0.414831 0.500098 0.801550
C4    C     C_R   0.085338 0.585689 0.500312 0.804463
C5    C     C_R   0.585879 0.914831 0.499902 0.801549
C6    C     C_R   0.414662 0.085689 0.499688 0.804463
C7    C     C_R   0.414121 0.914831 0.500098 0.801551
C8    C     C_R   0.585338 0.085689 0.500312 0.804465
C9    C     C_R   0.055735 0.492326 0.795470 0.545220
C10   C     C_R   0.944265 0.492328 0.204530 0.545213
C11   C     C_R   0.943700 0.507329 0.793092 0.530926
C12   C     C_R   0.056300 0.507328 0.206908 0.530926
C13   C     C_R   0.555735 0.992328 0.795470 0.545214
C14   C     C_R   0.444266 0.992326 0.204530 0.545215
C15   C     C_R   0.443699 0.007328 0.793092 0.530926
C16   C     C_R   0.556300 0.007330 0.206908 0.530926
C17   C     C_R   0.942480 0.504325 0.896155 -0.096767
C18   C     C_R   0.057520 0.504323 0.103845 -0.096768
C19   C     C_R   0.057122 0.500394 0.897766 -0.099217
C20   C     C_R   0.942878 0.500395 0.102234 -0.099214
C21   C     C_R   0.442480 0.004323 0.896155 -0.096768
C22   C     C_R   0.557520 0.004326 0.103845 -0.096767
C23   C     C_R   0.557122 0.000396 0.897766 -0.099215
C24   C     C_R   0.442878 0.000393 0.102234 -0.099215
C25   C     C_R   0.999904 0.503779 0.948406 0.017268
C26   C     C_R   0.000096 0.503779 0.051594 0.017268
C27   C     C_R   0.499904 0.003779 0.948406 0.017268
C28   C     C_R   0.500096 0.003779 0.051594 0.017268
C29   C     C_R   0.885406 0.501416 0.948214 -0.177040
C30   C     C_R   0.114594 0.501413 0.051786 -0.177041
C31   C     C_R   0.114444 0.500920 0.950780 -0.180556
C32   C     C_R   0.885556 0.500923 0.049220 -0.180559
C33   C     C_R   0.385406 0.001412 0.948214 -0.177042
C34   C     C_R   0.614594 0.001417 0.051785 -0.177041
C35   C     C_R   0.614444 0.000925 0.950780 -0.180559
C36   C     C_R   0.385556 0.000919 0.049220 -0.180557
C37   C     C_R   0.127016 0.685585 0.438688 -0.282517
C38   C     C_R   0.871334 0.316076 0.564132 -0.240373
C39   C     C_R   0.872986 0.685585 0.561309 -0.282519
C40   C     C_R   0.128669 0.316078 0.435863 -0.240369
C41   C     C_R   0.627013 0.185587 0.438693 -0.282519
C42   C     C_R   0.371331 0.816079 0.564138 -0.240370
C43   C     C_R   0.372985 0.185585 0.561311 -0.282517
C44   C     C_R   0.628668 0.816077 0.435864 -0.240373
C45   C     C_R   0.133037 0.634556 0.501407 -0.067212
C46   C     C_R   0.865197 0.367140 0.501427 -0.057010
C47   C     C_R   0.866963 0.634556 0.498592 -0.067211
C48   C     C_R   0.134803 0.367140 0.498573 -0.057014
C49   C     C_R   0.633038 0.134556 0.501407 -0.067209
C50   C     C_R   0.365197 0.867140 0.501427 -0.057014
C51   C     C_R   0.366963 0.134556 0.498593 -0.067212
C52   C     C_R   0.634803 0.867140 0.498573 -0.057011
C53   C     C_R   0.184283 0.630357 0.565842 -0.235669
C54   C     C_R   0.811478 0.373691 0.442688 -0.263670
C55   C     C_R   0.815715 0.630356 0.434160 -0.235667
C56   C     C_R   0.188521 0.373689 0.557316 -0.263678
C57   C     C_R   0.684287 0.130354 0.565837 -0.235665
C58   C     C_R   0.311480 0.873689 0.442683 -0.263672
C59   C     C_R   0.315716 0.130357 0.434159 -0.235669
C60   C     C_R   0.688521 0.873690 0.557314 -0.263671
C61   C     C_R   0.230931 0.676642 0.566422 0.103655
C62   C     C_R   0.765016 0.327266 0.441653 0.106639
C63   C     C_R   0.769067 0.676640 0.433580 0.103655
C64   C     C_R   0.234983 0.327265 0.558350 0.106641
C65   C     C_R   0.730935 0.176638 0.566416 0.103655
C66   C     C_R   0.265018 0.827264 0.441648 0.106638
C67   C     C_R   0.269068 0.176641 0.433579 0.103656
C68   C     C_R   0.734983 0.827265 0.558349 0.106639
C69   C     C_R   0.225005 0.728212 0.503193 0.060813
C70   C     C_R   0.771591 0.275071 0.503466 0.062245
C71   C     C_R   0.774995 0.728211 0.496808 0.060812
C72   C     C_R   0.228410 0.275072 0.496534 0.062245
C73   C     C_R   0.725005 0.228211 0.503192 0.060811
C74   C     C_R   0.271590 0.775072 0.503466 0.062246
C75   C     C_R   0.274995 0.228212 0.496808 0.060812
C76   C     C_R   0.728410 0.775071 0.496534 0.062245
C77   C     C_R   0.172529 0.732939 0.439661 0.116213
C78   C     C_R   0.824629 0.269847 0.565801 0.111473
C79   C     C_R   0.827472 0.732939 0.560336 0.116213
C80   C     C_R   0.175374 0.269850 0.434195 0.111471
C81   C     C_R   0.672526 0.232941 0.439666 0.116214
C82   C     C_R   0.324626 0.769850 0.565806 0.111472
C83   C     C_R   0.327472 0.232939 0.560338 0.116213
C84   C     C_R   0.675373 0.769849 0.434196 0.111473
C85   C     C_R   0.283427 0.672169 0.628732 -0.211568
C86   C     C_R   0.712266 0.332048 0.379925 -0.219671
C87   C     C_R   0.716570 0.672166 0.371272 -0.211567
C88   C     C_R   0.287731 0.332044 0.620083 -0.219670
C89   C     C_R   0.783434 0.172163 0.628721 -0.211566
C90   C     C_R   0.212270 0.832043 0.379915 -0.219671
C91   C     C_R   0.216571 0.172168 0.371270 -0.211567
C92   C     C_R   0.787731 0.832045 0.620080 -0.219671
C93   C     C_R   0.830178 0.218412 0.628142 -0.212462
C94   C     C_R   0.166459 0.784899 0.378466 -0.213313
C95   C     C_R   0.169827 0.218417 0.371848 -0.212462
C96   C     C_R   0.833543 0.784900 0.621528 -0.213313
C97   C     C_R   0.330172 0.718418 0.628154 -0.212462
C98   C     C_R   0.666454 0.284903 0.378477 -0.213313
C99   C     C_R   0.669825 0.718415 0.371851 -0.212463
C100  C     C_R   0.333542 0.284899 0.621531 -0.213314
Cu1   Cu    Cu3+1 1.000000 0.500000 0.597420 1.007927
Cu2   Cu    Cu3+1 1.000000 0.500000 0.402580 1.007926
Cu3   Cu    Cu3+1 0.500000 0.000000 0.597420 1.007925
Cu4   Cu    Cu3+1 0.500000 0.000000 0.402580 1.007925
H1    H     H_    0.086430 0.688718 0.390352 0.138124
H2    H     H_    0.912753 0.312180 0.610698 0.138590
H3    H     H_    0.913572 0.688719 0.609644 0.138123
H4    H     H_    0.087251 0.312185 0.389294 0.138592
H5    H     H_    0.586426 0.188722 0.390361 0.138121
H6    H     H_    0.412748 0.812185 0.610708 0.138593
H7    H     H_    0.413571 0.188718 0.609647 0.138123
H8    H     H_    0.587250 0.812183 0.389296 0.138591
H9    H     H_    0.188296 0.590474 0.614028 0.161469
H10   H     H_    0.805523 0.415484 0.399384 0.164522
H11   H     H_    0.811701 0.590472 0.385976 0.161468
H12   H     H_    0.194474 0.415480 0.600624 0.164530
H13   H     H_    0.688301 0.090469 0.614018 0.161465
H14   H     H_    0.305526 0.915480 0.399375 0.164531
H15   H     H_    0.311703 0.090473 0.385974 0.161467
H16   H     H_    0.694475 0.915482 0.600620 0.164524
H17   H     H_    0.288468 0.632767 0.677480 0.145321
H18   H     H_    0.706788 0.371920 0.332200 0.140432
H19   H     H_    0.711528 0.632764 0.322526 0.145321
H20   H     H_    0.293208 0.371914 0.667812 0.140432
H21   H     H_    0.788476 0.132759 0.677464 0.145321
H22   H     H_    0.206794 0.871913 0.332185 0.140432
H23   H     H_    0.211530 0.132766 0.322523 0.145320
H24   H     H_    0.793209 0.871916 0.667808 0.140432
H25   H     H_    0.870627 0.213989 0.676388 0.143215
H26   H     H_    0.126264 0.789092 0.329681 0.142911
H27   H     H_    0.129379 0.213996 0.323599 0.143215
H28   H     H_    0.873739 0.789095 0.670312 0.142911
H29   H     H_    0.370619 0.713997 0.676405 0.143215
H30   H     H_    0.626257 0.289099 0.329696 0.142911
H31   H     H_    0.629377 0.713994 0.323602 0.143215
H32   H     H_    0.373737 0.289093 0.670316 0.142911
H33   H     H_    0.840126 0.497605 0.911488 0.167172
H34   H     H_    0.159874 0.497600 0.088512 0.167172
H35   H     H_    0.159683 0.499258 0.914325 0.170497
H36   H     H_    0.840317 0.499263 0.085674 0.170498
H37   H     H_    0.340126 0.997599 0.911487 0.167172
H38   H     H_    0.659874 0.997607 0.088512 0.167173
H39   H     H_    0.659682 0.999264 0.914325 0.170498
H40   H     H_    0.340317 0.999256 0.085674 0.170498
N1    N     N_R   1.000000 0.500000 0.743810 -0.262989
N2    N     N_R   1.000000 0.500000 0.256190 -0.262990
N3    N     N_R   0.500000 0.000000 0.743810 -0.262990
N4    N     N_R   0.500000 0.000000 0.256190 -0.262990
O1    O     O_R   0.064880 0.435140 0.582280 -0.556320
O2    O     O_R   0.935120 0.564860 0.417720 -0.564422
O3    O     O_R   0.935120 0.564860 0.582280 -0.557024
O4    O     O_R   0.064880 0.435140 0.417720 -0.549507
O5    O     O_R   0.935120 0.435140 0.417720 -0.556322
O6    O     O_R   0.064880 0.564860 0.582280 -0.564424
O7    O     O_R   0.064880 0.564860 0.417720 -0.557026
O8    O     O_R   0.935120 0.435140 0.582280 -0.549506
O9    O     O_R   0.564880 0.935140 0.582280 -0.556322
O10   O     O_R   0.435120 0.064860 0.417720 -0.564426
O11   O     O_R   0.435120 0.064860 0.582280 -0.557025
O12   O     O_R   0.564880 0.935140 0.417720 -0.549509
O13   O     O_R   0.435120 0.935140 0.417720 -0.556319
O14   O     O_R   0.564880 0.064860 0.582280 -0.564422
O15   O     O_R   0.564880 0.064860 0.417720 -0.557022
O16   O     O_R   0.435120 0.935140 0.582280 -0.549507
O17   O     O_3   0.110768 0.476148 0.747757 -0.556653
C101  C     C_3   0.127859 0.413650 0.772344 -0.347206
H41   H     H_    0.179892 0.408371 0.764679 0.168894
H42   H     H_    0.103972 0.379706 0.723736 0.196609
H43   H     H_    0.116729 0.399307 0.847487 0.143378
O18   O     O_3   0.889231 0.476151 0.252243 -0.556653
C102  C     C_3   0.872140 0.413653 0.227658 -0.347185
H44   H     H_    0.820108 0.408370 0.235340 0.168895
H45   H     H_    0.896037 0.379708 0.276256 0.196601
H46   H     H_    0.883260 0.399313 0.152510 0.143377
O19   O     O_3   0.887641 0.514043 0.741419 -0.545045
C103  C     C_3   0.864730 0.576075 0.752185 -0.271293
H47   H     H_    0.829787 0.585386 0.693703 0.193812
H48   H     H_    0.903057 0.611837 0.746664 0.148896
H49   H     H_    0.839258 0.582759 0.820983 0.135270
O20   O     O_3   0.112359 0.514040 0.258581 -0.545046
C104  C     C_3   0.135272 0.576071 0.247815 -0.271292
H50   H     H_    0.170214 0.585382 0.306298 0.193812
H51   H     H_    0.096946 0.611834 0.253334 0.148894
H52   H     H_    0.160746 0.582754 0.179018 0.135270
O21   O     O_3   0.610769 0.976151 0.747758 -0.556654
C105  C     C_3   0.627858 0.913652 0.772343 -0.347183
H53   H     H_    0.679890 0.908368 0.764660 0.168894
H54   H     H_    0.603960 0.879707 0.723746 0.196599
H55   H     H_    0.616739 0.899313 0.847492 0.143377
O22   O     O_3   0.389232 0.976145 0.252242 -0.556655
C106  C     C_3   0.372146 0.913646 0.227656 -0.347189
H56   H     H_    0.320113 0.908361 0.235331 0.168894
H57   H     H_    0.396041 0.879702 0.276258 0.196601
H58   H     H_    0.383270 0.899306 0.152509 0.143377
O23   O     O_3   0.387641 0.014040 0.741419 -0.545046
C107  C     C_3   0.364727 0.076071 0.752185 -0.271291
H59   H     H_    0.329785 0.085381 0.693702 0.193811
H60   H     H_    0.403054 0.111834 0.746665 0.148895
H61   H     H_    0.339254 0.082753 0.820982 0.135270
O24   O     O_3   0.612358 0.014046 0.258580 -0.545046
C108  C     C_3   0.635268 0.076078 0.247813 -0.271293
H62   H     H_    0.670213 0.085390 0.306294 0.193811
H63   H     H_    0.596940 0.111839 0.253338 0.148898
H64   H     H_    0.660738 0.082763 0.179014 0.135270

loop_
_geom_bond_atom_site_label_1
_geom_bond_atom_site_label_2
_ccdc_geom_bond_type
C2    O2    A    
C101  H42   S    
C102  H44   S    
O22   C106  S    
C30   H34   S    
C70   C78   A    
C17   C29   A    
C108  H62   S    
Cu4   N4    S    
C69   C77   A    
C42   C82   A    
C97   H29   S    
C88   H20   S    
C19   C31   A    
C76   C84   A    
Cu4   O15   S    
C71   C79   A    
C6    O11   A    
Cu3   N3    S    
C66   C90   A    
C89   H21   S    
C104  H50   S    
C35   H39   S    
C39   H3    S    
C62   C86   A    
Cu1   N1    S    
Cu3   O16   S    
O17   C101  S    
C91   H23   S    
C39   C47   A    
C74   C82   A    
C4    O6    A    
C32   H36   S    
C29   C32   A    
C107  H61   S    
C71   C76   A    
C8    C49   S    
C21   C33   A    
O18   C102  S    
C78   C93   A    
C14   C24   A    
C66   C74   A    
C14   N4    A    
C43   C83   A    
C92   C96   A    
C33   C36   A    
C49   C57   A    
C62   C70   A    
C1    O4    A    
C48   C56   A    
C34   C35   A    
C12   N2    A    
C63   C71   A    
C58   H14   S    
C52   C60   A    
C59   C67   A    
C53   C61   A    
C58   C66   A    
C103  H49   S    
C11   C17   A    
C68   C92   A    
C10   C20   A    
O24   C108  S    
C55   C63   A    
C86   H18   S    
C59   H15   S    
C40   C80   A    
C5    C52   S    
C85   H17   S    
C18   C30   A    
C23   C27   A    
C6    C51   S    
C16   O24   S    
C96   H28   S    
C15   O23   S    
C44   C52   A    
C103  H48   S    
C21   C27   A    
C45   C53   A    
C41   H5    S    
C95   H27   S    
C108  H63   S    
C43   H7    S    
Cu4   O12   S    
C72   C75   A    
C93   H25   S    
C92   H24   S    
C73   C81   A    
C6    O10   A    
C13   C23   A    
C9    C19   A    
C90   C94   A    
C87   C99   A    
C4    C45   S    
C104  H51   S    
C90   H22   S    
C22   C34   A    
C102  H46   S    
C13   O21   S    
C67   C91   A    
C106  H56   S    
C50   C58   A    
Cu1   Cu2   S    
C3    O5    A    
C107  H60   S    
C65   C73   A    
Cu4   O10   S    
Cu4   O13   S    
Cu3   O9    S    
C38   C78   A    
Cu1   O8    S    
C33   H37   S    
C25   C26   A    
C37   C77   A    
Cu1   O3    S    
C15   N3    A    
C39   C79   A    
C38   H2    S    
C65   C89   A    
C106  H57   S    
C37   H1    S    
C7    O13   A    
C53   H9    S    
O19   C103  S    
C5    O12   A    
C41   C81   A    
C18   C26   A    
C46   C54   A    
C70   C73   A    
C56   C64   A    
C56   H12   S    
C99   H31   S    
C69   C74   A    
C94   H26   S    
C80   C95   A    
C1    O1    A    
Cu2   O5    S    
C88   C100  A    
C61   C85   A    
C42   C50   A    
C44   H8    S    
C103  H47   S    
C12   O20   S    
Cu2   O2    S    
C5    O9    A    
C83   C100  A    
C101  H41   S    
C82   C97   A    
C67   C75   A    
C13   N3    A    
C57   H13   S    
C37   C45   A    
C10   N2    A    
C75   C83   A    
O20   C104  S    
C47   C55   A    
C20   C32   A    
C104  H52   S    
C61   C69   A    
C2    O3    A    
C40   C48   A    
C34   H38   S    
Cu3   O14   S    
C16   C22   A    
C63   C87   A    
C84   C99   A    
C11   O19   S    
C11   N1    A    
C24   C28   A    
C7    C50   S    
C57   C65   A    
C107  H59   S    
C44   C84   A    
C8    O15   A    
C9    N1    A    
C1    C48   S    
C2    C47   S    
C68   C76   A    
C41   C49   A    
C29   H33   S    
C7    O16   A    
C98   H30   S    
C3    C46   S    
C23   C35   A    
C24   C36   A    
C40   H4    S    
C16   N4    A    
C17   C25   A    
C105  H55   S    
C9    O17   S    
C42   H6    S    
C106  H58   S    
C79   C96   A    
C72   C80   A    
C8    O14   A    
Cu2   N2    S    
C87   H19   S    
C55   H11   S    
Cu3   O11   S    
O21   C105  S    
C30   C31   A    
C20   C26   A    
Cu1   O6    S    
C43   C51   A    
C10   O18   S    
C54   H10   S    
Cu1   O1    S    
C3    O8    A    
C108  H64   S    
C60   H16   S    
C64   C72   A    
C89   C93   A    
C86   C98   A    
C38   C46   A    
C85   C97   A    
C19   C25   A    
C91   C95   A    
O23   C107  S    
C14   O22   S    
C102  H45   S    
C15   C21   A    
C4    O7    A    
C51   C59   A    
C60   C68   A    
C101  H43   S    
C81   C98   A    
C12   C18   A    
Cu3   Cu4   S    
C77   C94   A    
C54   C62   A    
C22   C28   A    
C105  H53   S    
C36   H40   S    
C105  H54   S    
Cu2   O7    S    
C64   C88   A    
C100  H32   S    
C31   H35   S    
Cu2   O4    S    
C27   C28   A    
