data_mof_unit_51366.cif
_audit_creation_date              2012-12-10T16:52:14-0500
_audit_creation_method            fapswitch 2.2
_symmetry_space_group_name_H-M    P1
_symmetry_Int_Tables_number       1
_space_group_crystal_system       triclinic
_cell_length_a                    10.969682
_cell_length_b                    10.966815
_cell_length_c                    9.795422
_cell_angle_alpha                 90.383937
_cell_angle_beta                  103.052705
_cell_angle_gamma                 92.486358
_cell_volume                      1146.72097573

loop_
_atom_site_label
_atom_site_type_symbol
_atom_type_description
_atom_site_fract_x
_atom_site_fract_y
_atom_site_fract_z
_atom_type_partial_charge
C1    C     C_R   0.502780 0.266370 0.499865 0.808073
C2    C     C_2   0.490252 0.867108 0.507535 0.353941
C3    C     C_2   0.474142 0.065696 0.388747 -0.132937
C4    C     C_2   0.518915 0.136890 0.502088 -0.244924
C5    C     C_2   0.431899 0.421039 0.904525 0.211963
C6    C     C_2   0.420309 0.432051 0.057244 0.202305
C7    C     C_R   0.263100 0.509370 0.443277 0.727459
C8    C     C_R   0.499101 0.734548 0.501244 0.722105
C9    C     C_R   0.737317 0.502587 0.557271 0.838793
C10   C     C_2   0.130395 0.542693 0.415716 0.337658
C11   C     C_2   0.071680 0.539510 0.523521 -0.258459
C12   C     C_2   0.873591 0.502233 0.586871 -0.386199
C13   C     C_2   0.940840 0.572186 0.514917 0.242400
C14   C     C_2   0.487427 0.933072 0.391639 -0.273518
Cu1   Cu    Cu3+1 0.500020 0.500020 0.638640 0.923609
Cu2   Cu    Cu3+1 0.499980 0.499980 0.361360 0.917462
H1    H     H_    0.539131 0.574026 0.905118 0.160869
H2    H     H_    0.574741 0.540238 0.124376 0.170995
H3    H     H_    0.120150 0.505570 0.624438 0.122588
H4    H     H_    0.917689 0.431019 0.654923 0.119567
H5    H     H_    0.491810 0.888705 0.293494 0.132943
H6    H     H_    0.428570 0.105404 0.290001 0.141819
H7    H     H_    0.573223 0.102012 0.598495 0.179377
N1    N     N_2   0.498650 0.498660 0.846590 -0.307036
N2    N     N_2   0.498620 0.498630 0.152710 -0.310776
O1    O     O_R   0.500020 0.321960 0.617050 -0.575078
O2    O     O_R   0.499980 0.321920 0.382890 -0.590005
O3    O     O_R   0.320700 0.500020 0.574050 -0.615985
O4    O     O_R   0.320660 0.499980 0.339890 -0.561544
O5    O     O_R   0.500020 0.678080 0.617110 -0.558228
O6    O     O_R   0.499980 0.678040 0.382950 -0.608403
O7    O     O_R   0.679340 0.500020 0.660110 -0.563319
O8    O     O_R   0.679300 0.499980 0.425950 -0.566393
C15   C     C_3   0.891342 0.689678 0.444819 -0.312347
C16   C     C_3   0.960932 0.801278 0.525156 -0.885044
H8    H     H_    0.940151 0.806649 0.630854 0.249668
H9    H     H_    0.063713 0.796892 0.537822 0.263674
H10   H     H_    0.929560 0.885430 0.467815 0.239775
H11   H     H_    0.898732 0.691291 0.334159 0.237139
H12   H     H_    0.790755 0.699942 0.442024 0.184786
C17   C     C_3   0.311036 0.359594 0.096007 -0.325180
C18   C     C_3   0.187802 0.423707 0.047797 -0.782504
H13   H     H_    0.201014 0.521658 0.077186 0.278643
H14   H     H_    0.153019 0.417585 0.932535 0.210943
H15   H     H_    0.115194 0.381145 0.097319 0.257070
H16   H     H_    0.300144 0.265081 0.054328 0.152151
H17   H     H_    0.326466 0.338770 0.206626 0.249999
O9    O     O_3   0.067745 0.575229 0.282566 -0.578814
C19   C     C_3   0.118909 0.688434 0.247948 -0.367087
H18   H     H_    0.216236 0.682060 0.234828 0.184140
H19   H     H_    0.117039 0.760785 0.327098 0.170029
H20   H     H_    0.061208 0.717981 0.146546 0.186925
O10   O     O_3   0.464182 0.920690 0.626746 -0.573050
C20   C     C_3   0.562064 0.903985 0.746399 -0.327257
H21   H     H_    0.654366 0.887671 0.721287 0.135117
H22   H     H_    0.535354 0.828663 0.810505 0.198925
H23   H     H_    0.575103 0.987617 0.813067 0.167177
C21   C     C_3   0.360830 0.312269 0.819487 -0.292231
C22   C     C_3   0.432896 0.195448 0.850803 -0.830343
H24   H     H_    0.530886 0.210081 0.839720 0.264274
H25   H     H_    0.436377 0.164983 0.959243 0.220529
H26   H     H_    0.385714 0.121641 0.776997 0.268400
H27   H     H_    0.265850 0.295668 0.836887 0.149314
H28   H     H_    0.333894 0.328245 0.707366 0.244058

loop_
_geom_bond_atom_site_label_1
_geom_bond_atom_site_label_2
_ccdc_geom_bond_type
C7    C10   S    
C17   H16   S    
C18   H15   S    
C7    O4    A    
C3    C14   S    
Cu2   O8    S    
C17   C18   S    
C16   H8    S    
C9    O7    A    
C19   H20   S    
C8    O5    A    
C1    C4    S    
Cu2   O2    S    
C5    N1    D    
C17   H17   S    
C13   C15   S    
O10   C20   S    
Cu2   O6    S    
C9    O8    A    
C11   C13   S    
C11   H3    S    
Cu1   O3    S    
C5    C6    S    
H2    N2    S    
C18   H14   S    
C12   H4    S    
C15   H12   S    
C5    C21   S    
C14   H5    S    
O9    C19   S    
C16   H9    S    
C19   H18   S    
C10   O9    S    
C1    O1    A    
C2    C14   D    
C9    C12   S    
C20   H22   S    
C22   H25   S    
H1    N1    S    
C10   C11   D    
C7    O3    A    
Cu1   Cu2   S    
C6    N2    D    
C22   H24   S    
C16   H10   S    
C12   C13   D    
C3    C4    D    
Cu1   O5    S    
C15   C16   S    
C18   H13   S    
C21   H27   S    
C1    O2    A    
C4    H7    S    
Cu2   N2    S    
Cu1   N1    S    
C3    H6    S    
C22   H26   S    
C21   H28   S    
C19   H19   S    
Cu2   O4    S    
C20   H21   S    
C21   C22   S    
C20   H23   S    
C2    C8    S    
C8    O6    A    
C15   H11   S    
C2    O10   S    
Cu1   O1    S    
C6    C17   S    
Cu1   O7    S    
