data_mof_unit_66963.cif
_audit_creation_date              2013-03-05T15:58:11-0500
_audit_creation_method            fapswitch 2.2
_symmetry_space_group_name_H-M    P1
_symmetry_Int_Tables_number       1
_space_group_crystal_system       triclinic
_cell_length_a                    8.187947
_cell_length_b                    12.670068
_cell_length_c                    14.238078
_cell_angle_alpha                 92.516789
_cell_angle_beta                  90.541533
_cell_angle_gamma                 98.51912
_cell_volume                      1459.18763483

loop_
_atom_site_label
_atom_site_type_symbol
_atom_site_description
_atom_site_fract_x
_atom_site_fract_y
_atom_site_fract_z
_atom_type_partial_charge
P1    P     P_3+3 0.054400 0.427280 0.286870 0.459640
O1    O     O_2   0.887370 0.460630 0.272300 -0.356255
O2    O     O_3   0.129410 0.451380 0.388510 -0.411571
O3    O     O_3   0.670210 0.653170 0.329170 -0.369478
O4    O     O_2   0.772009 0.577382 0.166216 -0.355567
O5    O     O_3   0.016352 0.288895 0.263907 -0.571641
O6    O     O_3   0.749366 0.777613 0.168138 -0.527352
H1    H     H_    0.715401 0.881396 0.279383 0.128602
C1    C     C_3   0.701183 0.954615 0.145635 -1.029501
H2    H     H_    0.649198 0.023315 0.178157 0.254049
H3    H     H_    0.836319 0.977544 0.136940 0.280407
P2    P     P_3+3 0.668300 0.742890 0.573060 0.447758
P3    P     P_3+3 0.134474 0.843311 0.377964 0.470030
O7    O     O_2   0.845380 0.761330 0.544970 -0.367805
O8    O     O_3   0.088930 0.704860 0.376040 -0.361781
O9    O     O_2   0.019008 0.887451 0.449681 -0.375119
O10   O     O_3   0.678986 0.762470 0.695773 -0.617838
O11   O     O_3   0.069641 0.886538 0.270775 -0.494082
C2    C     C_3   0.171649 0.857927 0.198023 0.458983
H4    H     H_    0.091046 0.821759 0.138607 0.106592
H5    H     H_    0.250602 0.797261 0.216256 0.027576
C3    C     C_3   0.276413 0.958168 0.164791 -1.098101
H6    H     H_    0.196063 0.017291 0.145234 0.278809
H7    H     H_    0.362690 0.994499 0.221737 0.275711
C4    C     C_3   0.228165 0.760895 0.652273 0.395859
H8    H     H_    0.341980 0.732658 0.627497 0.097339
H9    H     H_    0.131202 0.744599 0.596567 0.148732
C5    C     C_3   0.262368 0.880712 0.673380 -0.966245
H10   H     H_    0.357470 0.898680 0.729937 0.260369
H11   H     H_    0.307513 0.922715 0.610154 0.241659
H12   H     H_    0.147542 0.910643 0.695876 0.280839
Ba1   Ba    Ba6+2 0.855630 0.555280 0.454520 1.549972
C6    C     C_3   0.975701 0.237266 0.347221 0.377184
H13   H     H_    0.850959 0.250875 0.367562 0.089967
H14   H     H_    0.064258 0.264999 0.405504 0.151794
C7    C     C_3   0.978594 0.118665 0.329963 -0.899741
H15   H     H_    0.882212 0.085918 0.277481 0.256153
H16   H     H_    0.954281 0.076397 0.395893 0.245165
H17   H     H_    0.101488 0.105255 0.303710 0.273624
C8    C     C_3   0.697320 0.666448 0.737313 0.277833
H18   H     H_    0.823878 0.649280 0.724378 0.106695
H19   H     H_    0.608563 0.598055 0.708016 0.117643
C9    C     C_3   0.665770 0.676777 0.843040 -0.011918
H20   H     H_    0.609654 0.750218 0.860548 0.104579
H21   H     H_    0.572279 0.608725 0.861793 0.127171
P4    P     P_3+3 0.135310 0.572810 0.713130 0.456779
O12   O     O_2   0.302330 0.539400 0.727760 -0.388465
O13   O     O_3   0.060300 0.548700 0.611500 -0.406607
O14   O     O_3   0.519500 0.346920 0.670840 -0.366380
O15   O     O_3   0.177664 0.711069 0.734982 -0.574347
P5    P     P_3+3 0.059007 0.156319 0.629375 0.444121
O16   O     O_3   0.614310 0.373510 0.452640 -0.387864
O17   O     O_3   0.100780 0.295230 0.623970 -0.392480
O18   O     O_2   0.196281 0.110626 0.573825 -0.375265
O19   O     O_3   0.088169 0.122442 0.745806 -0.528867
Ba2   Ba    Ba6+2 0.334200 0.444810 0.545490 1.537737
P6    P     P_3+3 0.657840 0.653970 0.206355 0.467583
C10   C     C_3   0.667392 0.858471 0.206874 0.445079
H22   H     H_    0.531804 0.833890 0.208952 0.021707
H23   H     H_    0.643358 0.934717 0.074974 0.250422
O20   O     O_3   0.575400 0.626570 0.547370 -0.401068
C11   C     C_3   0.466421 0.307894 0.258611 0.438168
H24   H     H_    0.367440 0.340673 0.298073 0.095510
H25   H     H_    0.575424 0.370961 0.254401 0.125410
C12   C     C_3   0.400892 0.274706 0.159756 -0.951780
H26   H     H_    0.280941 0.221239 0.163113 0.263284
H27   H     H_    0.382577 0.346205 0.120981 0.230184
H28   H     H_    0.489688 0.231219 0.121265 0.293035
P7    P     P_3+3 0.527075 0.241667 0.422231 0.418180
O21   O     O_2   0.344320 0.238700 0.455090 -0.375925
O22   O     O_3   0.513196 0.218327 0.300228 -0.586720
H29   H     H_    0.347566 0.937795 0.102380 0.249192
C13   C     C_3   0.045833 0.204678 0.806217 0.492128
H30   H     H_    0.129983 0.280314 0.796692 0.155566
H31   H     H_    0.916650 0.217407 0.793222 0.006410
C14   C     C_3   0.062270 0.175432 0.907991 -0.991466
H32   H     H_    0.190064 0.161037 0.923356 0.297407
H33   H     H_    0.034098 0.241574 0.955782 0.227099
H34   H     H_    0.974281 0.102734 0.921786 0.259236
P8    P     P_3+3 0.530972 0.343936 0.792727 0.438384
C15   C     C_3   0.544328 0.142019 0.764965 0.511356
H35   H     H_    0.656843 0.180840 0.730009 0.027316
O23   O     O_2   0.397375 0.406036 0.833911 -0.411404
O24   O     O_3   0.467168 0.212046 0.823162 -0.522607
H36   H     H_    0.455267 0.105422 0.709256 0.131227
H37   H     H_    0.684917 0.090169 0.879192 0.275112
C16   C     C_3   0.594405 0.054514 0.823959 -1.100134
H38   H     H_    0.651429 0.996867 0.778613 0.243727
H39   H     H_    0.484871 0.011584 0.858638 0.276115
C17   C     C_R   0.987775 0.444719 0.062415 -0.074351
C18   C     C_R   0.182807 0.501075 0.196234 0.257145
C19   C     C_R   0.335960 0.555392 0.226462 -0.487200
C20   C     C_R   0.447304 0.605407 0.163250 0.242715
C21   C     C_R   0.402296 0.609143 0.068642 -0.306193
C22   C     C_R   0.246863 0.557855 0.035536 0.066721
C23   C     C_R   0.137656 0.500422 0.098730 -0.048817
H40   H     H_    0.372825 0.553633 0.299494 0.170658
C24   C     C_R   0.051718 0.504175 0.903108 -0.022944
C25   C     C_R   0.940936 0.448742 0.967005 -0.019467
C26   C     C_R   0.006677 0.500973 0.805397 0.299315
C27   C     C_R   0.852928 0.445953 0.775994 -0.554607
C28   C     C_R   0.738022 0.400168 0.839878 0.088925
C29   C     C_R   0.782249 0.399405 0.936090 0.425099
C30   C     C_R   0.202379 0.560587 0.939601 -0.112596
H41   H     H_    0.489855 0.649864 0.021018 0.141379
H42   H     H_    0.818359 0.443890 0.702323 0.187504
H43   H     H_    0.905690 0.397447 0.108408 0.214545
H44   H     H_    0.286575 0.607137 0.894081 0.145703
C31   C     C_R   0.763879 0.176760 0.537702 -0.513739
C32   C     C_R   0.436569 0.812674 0.456026 -0.499516
C33   C     C_R   0.410549 0.994729 0.425457 -0.229540
C34   C     C_R   0.348264 0.886852 0.417943 0.185958
C35   C     C_R   0.579605 0.846075 0.510351 0.306472
C36   C     C_R   0.643506 0.956805 0.520878 -0.062733
C37   C     C_R   0.558347 0.031434 0.475922 -0.050712
C38   C     C_R   0.620154 0.141377 0.485173 0.272423
C39   C     C_R   0.853034 0.104668 0.578122 0.205658
C40   C     C_R   0.790076 0.995630 0.573370 -0.201413
H45   H     H_    0.337402 0.048884 0.394893 0.187921
H46   H     H_    0.859245 0.942920 0.609123 0.186056
H47   H     H_    0.811764 0.261177 0.542698 0.172450
H48   H     H_    0.385668 0.728769 0.450360 0.171950
O25   O     O_3   0.811575 0.668664 0.894532 -0.656230
C41   C     C_3   0.872352 0.764478 0.945811 0.288315
H49   H     H_    0.964036 0.744298 0.997411 0.147169
H50   H     H_    0.774184 0.794961 0.987947 0.101827
C42   C     C_3   0.954121 0.850401 0.881014 -0.315021
H51   H     H_    0.976432 0.813961 0.811189 0.262512
H52   H     H_    0.869392 0.909757 0.869980 0.186364
C43   C     C_3   0.118310 0.907576 0.921464 -0.974801
H53   H     H_    0.097460 0.950016 0.989048 0.267555
H54   H     H_    0.174840 0.966659 0.871576 0.305001
H55   H     H_    0.205200 0.849562 0.932798 0.266901
O26   O     O_3   0.674914 0.353245 0.002277 -0.773602
H56   H     H_    0.565920 0.326405 0.973559 0.356406

loop_
_geom_bond_atom_site_label_1
_geom_bond_atom_site_label_2
_geom_bond_distance
_ccdc_geom_bond_type
C25   C29   1.413202 A    
C16   H38   1.110696 S    
C21   H41   1.081794 S    
C20   C21   1.397836 A    
Ba1   O13   2.792480 S    
C13   H30   1.108620 S    
C22   C23   1.420762 A    
C14   H34   1.108150 S    
P8    O24   1.749955 S    
C36   C37   1.424793 A    
C31   C39   1.390752 A    
O25   C41   1.410939 S    
P7    C38   1.836474 S    
C4    C5    1.518459 S    
C27   C28   1.396378 A    
P3    O11   1.747909 S    
O1    Ba1   2.840554 S    
C5    H10   1.107320 S    
C2    H5    1.112523 S    
C29   O26   1.383578 S    
C14   H33   1.108446 S    
Ba1   O20   2.897385 S    
O11   C2    1.405371 S    
P3    C34   1.833051 S    
P7    O21   1.567670 D    
C37   C38   1.409834 A    
C6    C7    1.515658 S    
C33   H45   1.077930 S    
P1    O1    1.505176 D    
P7    O22   1.749009 S    
C4    O15   1.397661 S    
Ba1   O16   2.802548 S    
C11   H25   1.110216 S    
O16   P7    1.750771 S    
C31   C38   1.393865 A    
H1    C10   1.112151 S    
C18   C23   1.432625 A    
C8    C9    1.532973 S    
C33   C34   1.385385 A    
C12   H27   1.109304 S    
P2    O10   1.753431 S    
C1    H2    1.109662 S    
O6    C10   1.401903 S    
C8    H19   1.108591 S    
P1    C18   1.866905 S    
P6    C20   1.832905 S    
P2    Ba1   3.410046 S    
C13   H31   1.108384 S    
C28   C29   1.414427 A    
P8    O23   1.544713 D    
C3    H29   1.108994 S    
C19   H40   1.082106 S    
C15   H35   1.110984 S    
C32   C34   1.392411 A    
C7    H17   1.110544 S    
P4    O13   1.566262 S    
P1    O5    1.750448 S    
O8    Ba1   2.764615 S    
C2    C3    1.520016 S    
C14   H32   1.109837 S    
C18   C19   1.392654 A    
H37   C16   1.109214 S    
C19   C20   1.391839 A    
C4    H8    1.102183 S    
P1    Ba1   3.390022 S    
P8    C28   1.846887 S    
P1    O2    1.566380 S    
O10   C8    1.402898 S    
O3    P6    1.751185 S    
C43   H54   1.108795 S    
C9    H20   1.116941 S    
C42   H52   1.111057 S    
C11   H24   1.110334 S    
C1    H3    1.111098 S    
O2    Ba2   2.793048 S    
C12   H28   1.110061 S    
C6    H13   1.100101 S    
C21   C22   1.407435 A    
C36   C40   1.420096 A    
C9    H21   1.108710 S    
C32   C35   1.398667 A    
O3    Ba1   2.780220 S    
C41   C42   1.538994 S    
C8    H18   1.105403 S    
P2    O7    1.495199 D    
C12   H26   1.110145 S    
C24   C26   1.433196 A    
P3    O8    1.737453 S    
P5    C39   1.847389 S    
C13   C14   1.521013 S    
C3    H7    1.108329 S    
C43   H55   1.111612 S    
C42   H51   1.105902 S    
C9    O25   1.414130 S    
C17   C25   1.413188 A    
C30   H44   1.079224 S    
C15   O24   1.408683 S    
C22   C30   1.413560 A    
C41   H50   1.111719 S    
C35   C36   1.423750 A    
O17   Ba2   2.765199 S    
C27   H42   1.082051 S    
O13   Ba2   2.907126 S    
P4    C26   1.873684 S    
P4    O12   1.505539 D    
C1    C10   1.522726 S    
C11   C12   1.520758 S    
C3    H6    1.110125 S    
C5    H12   1.109518 S    
O7    Ba1   2.872775 S    
C17   H43   1.078330 S    
O14   P8    1.739462 S    
C17   C23   1.403866 A    
O26   H56   0.985018 S    
C4    H9    1.107786 S    
O14   Ba2   2.779624 S    
P4    O15   1.748084 S    
Ba2   O21   2.872983 S    
O5    C6    1.398907 S    
O4    P6    1.540221 D    
C1    H23   1.110527 S    
P5    O18   1.547094 D    
C2    H4    1.107708 S    
C5    H11   1.104692 S    
C43   H53   1.108643 S    
C10   H22   1.108766 S    
C42   C43   1.524460 S    
C39   C40   1.399663 A    
C32   H48   1.082087 S    
P2    O20   1.581039 S    
C15   C16   1.520787 S    
C31   H47   1.082269 S    
C24   C30   1.413022 A    
C7    H16   1.106212 S    
C26   C27   1.396574 A    
C6    H14   1.106977 S    
Ba1   Ba2   4.547485 S    
C11   O22   1.403256 S    
P2    C35   1.845364 S    
P5    O19   1.753501 S    
O2    Ba1   2.906368 S    
C40   H46   1.078139 S    
O19   C13   1.406966 S    
C7    H15   1.103599 S    
C24   C25   1.423625 A    
P3    O9    1.540791 D    
P4    Ba2   3.390472 S    
C16   H39   1.109703 S    
Ba2   O20   2.801885 S    
C41   H49   1.109786 S    
C33   C37   1.408733 A    
P5    O17   1.747740 S    
O6    P6    1.745441 S    
C15   H36   1.110176 S    
O16   Ba2   2.896609 S    
O12   Ba2   2.841062 S    
