data_mof_unit_43723.cif
_audit_creation_date              2012-12-10T18:45:42-0500
_audit_creation_method            fapswitch 2.2
_symmetry_space_group_name_H-M    P1
_symmetry_Int_Tables_number       1
_space_group_crystal_system       triclinic
_cell_length_a                    18.120337
_cell_length_b                    18.123256
_cell_length_c                    42.964519
_cell_angle_alpha                 89.967058
_cell_angle_beta                  89.929972
_cell_angle_gamma                 90.002288
_cell_volume                      14109.5139439

loop_
_atom_site_label
_atom_site_type_symbol
_atom_type_description
_atom_site_fract_x
_atom_site_fract_y
_atom_site_fract_z
_atom_type_partial_charge
C1    C     C_R   0.499939 0.999982 0.334044 0.876619
C2    C     C_R   0.499816 0.999947 0.868187 -0.375142
C3    C     C_3   0.785817 0.249853 0.222743 -0.053387
C4    C     C_3   0.249249 0.213603 0.777152 -0.055677
C5    C     C_3   0.750520 0.785997 0.222810 -0.053755
C6    C     C_3   0.784973 0.250412 0.777585 -0.055983
C7    C     C_3   0.215828 0.749204 0.222511 -0.051923
C8    C     C_R   0.507993 0.066647 0.114094 0.322171
C9    C     C_R   0.450653 0.953550 0.884581 0.345230
C10   C     C_R   0.932131 0.506817 0.114298 0.318837
C11   C     C_R   0.045394 0.449954 0.884515 0.345515
C12   C     C_R   0.492472 0.932784 0.114241 0.323967
C13   C     C_R   0.999231 0.498795 0.130968 -0.374741
C14   C     C_R   0.548797 0.046362 0.884583 0.344494
C15   C     C_R   0.065666 0.490187 0.114050 0.301002
C16   C     C_R   0.953429 0.548914 0.884566 0.343832
C17   C     C_R   0.007992 0.566647 0.614094 0.322171
C18   C     C_R   0.950652 0.453550 0.384581 0.345231
C19   C     C_R   0.432131 0.006817 0.614298 0.318838
C20   C     C_R   0.545394 0.949954 0.384515 0.345516
C21   C     C_R   0.992472 0.432784 0.614241 0.323966
C22   C     C_R   0.048797 0.546362 0.384583 0.344492
C23   C     C_R   0.565666 0.990186 0.614050 0.301003
C24   C     C_R   0.999703 0.499720 0.868158 -0.374516
C25   C     C_R   0.453429 0.048914 0.384566 0.343830
C26   C     C_R   0.515293 0.065021 0.081602 0.359679
C27   C     C_R   0.452161 0.952019 0.917216 0.362149
C28   C     C_R   0.933272 0.513656 0.081767 0.360443
C29   C     C_R   0.046405 0.451055 0.917150 0.362102
C30   C     C_R   0.485477 0.933975 0.081735 0.358916
C31   C     C_R   0.547112 0.047751 0.917215 0.362818
C32   C     C_R   0.063828 0.482076 0.081544 0.343630
C33   C     C_R   0.951424 0.546765 0.917188 0.363615
C34   C     C_R   0.015292 0.565021 0.581603 0.359678
C35   C     C_R   0.000067 0.499837 0.630971 -0.389787
C36   C     C_R   0.952160 0.452019 0.417216 0.362148
C37   C     C_R   0.433272 0.013655 0.581766 0.360442
C38   C     C_R   0.546405 0.951055 0.417150 0.362102
C39   C     C_R   0.985476 0.433974 0.581735 0.358916
C40   C     C_R   0.047111 0.547751 0.417215 0.362819
C41   C     C_R   0.563828 0.982075 0.581544 0.343630
C42   C     C_R   0.451424 0.046764 0.417188 0.363617
C43   C     C_R   0.500181 0.999465 0.065048 -0.289268
C44   C     C_R   0.499647 0.999818 0.933501 -0.289104
C45   C     C_R   0.998385 0.497581 0.065014 -0.283511
C46   C     C_R   0.999816 0.499947 0.368187 -0.375142
C47   C     C_R   0.998681 0.498687 0.933457 -0.289704
C48   C     C_R   0.000180 0.499465 0.565048 -0.289267
C49   C     C_R   0.999646 0.499818 0.433501 -0.289103
C50   C     C_R   0.498385 0.997580 0.565014 -0.283510
C51   C     C_R   0.498681 0.998686 0.433457 -0.289703
C52   C     C_1   0.111242 0.184822 0.240867 0.208755
C53   C     C_1   0.888883 0.815855 0.758687 0.190097
C54   C     C_1   0.815126 0.111322 0.240546 0.208553
C55   C     C_1   0.184020 0.888778 0.758843 0.189436
C56   C     C_1   0.888794 0.815210 0.240934 0.208904
C57   C     C_R   0.499231 0.998795 0.630969 -0.374742
C58   C     C_1   0.111030 0.183936 0.758467 0.190072
C59   C     C_1   0.185598 0.888262 0.239289 0.206990
C60   C     C_1   0.815718 0.111368 0.760138 0.188076
C61   C     C_1   0.611242 0.684822 0.740867 0.208755
C62   C     C_1   0.388883 0.315855 0.258687 0.190097
C63   C     C_1   0.315126 0.611322 0.740546 0.208553
C64   C     C_1   0.684020 0.388778 0.258843 0.189437
C65   C     C_1   0.388794 0.315210 0.740934 0.208904
C66   C     C_1   0.611030 0.683936 0.258467 0.190072
C67   C     C_1   0.685598 0.388261 0.739289 0.206990
C68   C     C_R   0.499703 0.999720 0.368158 -0.374517
C69   C     C_1   0.315718 0.611368 0.260138 0.188076
C70   C     C_1   0.220244 0.151629 0.298968 0.237243
C71   C     C_1   0.780104 0.848423 0.701140 0.234069
C72   C     C_1   0.848541 0.220005 0.298711 0.237591
C73   C     C_1   0.150653 0.779559 0.701335 0.230953
C74   C     C_1   0.779221 0.848117 0.298943 0.237915
C75   C     C_1   0.221159 0.150991 0.701135 0.230607
C76   C     C_1   0.149216 0.781428 0.297805 0.240472
C77   C     C_1   0.853165 0.219569 0.702810 0.235731
C78   C     C_1   0.720244 0.651629 0.798968 0.237243
C79   C     C_R   0.999725 0.499672 0.467573 0.378345
C80   C     C_1   0.280104 0.348423 0.201140 0.234069
C81   C     C_1   0.348542 0.720005 0.798711 0.237591
C82   C     C_1   0.650653 0.279559 0.201335 0.230953
C83   C     C_1   0.279221 0.348117 0.798943 0.237915
C84   C     C_1   0.721159 0.650992 0.201135 0.230608
C85   C     C_1   0.649216 0.281427 0.797805 0.240472
C86   C     C_1   0.353165 0.719569 0.202810 0.235731
C87   C     C_1   0.249451 0.326592 0.306852 0.162212
C88   C     C_1   0.749963 0.673582 0.693245 0.166149
C89   C     C_1   0.673621 0.249033 0.306911 0.161682
C90   C     C_R   0.999890 0.499452 0.530595 0.332806
C91   C     C_1   0.326113 0.750236 0.693055 0.164654
C92   C     C_1   0.749949 0.673207 0.306805 0.161682
C93   C     C_1   0.250547 0.326512 0.693187 0.164941
C94   C     C_1   0.323789 0.752554 0.307570 0.162206
C95   C     C_1   0.677315 0.247929 0.692453 0.163835
C96   C     C_1   0.749451 0.826592 0.806852 0.162212
C97   C     C_1   0.249963 0.173582 0.193245 0.166149
C98   C     C_1   0.173621 0.749032 0.806911 0.161682
C99   C     C_1   0.826113 0.250236 0.193055 0.164654
C100  C     C_1   0.249949 0.173207 0.806805 0.161682
C101  C     C_R   0.498469 0.998465 0.467534 0.377898
C102  C     C_1   0.750548 0.826512 0.193187 0.164941
C103  C     C_1   0.823790 0.252554 0.807570 0.162206
C104  C     C_1   0.177316 0.747928 0.192453 0.163835
C105  C     C_3   0.446865 0.166475 0.134569 0.177618
C106  C     C_3   0.428325 0.221976 0.108827 -0.343568
C107  C     C_3   0.362743 0.270258 0.117859 -0.952617
C108  C     C_3   0.339781 0.950893 0.859659 0.105425
C109  C     C_3   0.278707 0.899466 0.848322 -0.317271
C110  C     C_3   0.209847 0.942947 0.839290 -0.929523
C111  C     C_3   0.831973 0.447062 0.135241 0.177913
C112  C     C_R   0.499896 0.999862 0.665632 0.900444
C113  C     C_R   0.498344 0.997795 0.530557 0.330426
C114  C     C_3   0.776205 0.428574 0.109628 -0.345959
C115  C     C_3   0.727294 0.363662 0.118923 -0.947478
C116  C     C_3   0.047421 0.339433 0.859255 0.105010
C117  C     C_3   0.098500 0.277883 0.848049 -0.317325
C118  C     C_3   0.054532 0.209548 0.838747 -0.930212
C119  C     C_3   0.554641 0.833733 0.134852 0.177607
C120  C     C_3   0.573032 0.777224 0.109497 -0.346431
C121  C     C_3   0.638813 0.729475 0.118704 -0.947969
C122  C     C_3   0.659795 0.049340 0.859619 0.104436
C123  C     C_3   0.721506 0.101064 0.849076 -0.317221
C124  C     C_R   0.499727 0.999672 0.967572 0.378345
C125  C     C_3   0.790993 0.057853 0.840648 -0.930009
C126  C     C_3   0.171084 0.551380 0.126307 0.146943
C127  C     C_3   0.248550 0.542263 0.139661 -0.299890
C128  C     C_3   0.295900 0.610292 0.133436 -0.947842
C129  C     C_3   0.951418 0.659809 0.859500 0.104359
C130  C     C_3   0.900241 0.721432 0.848459 -0.317860
C131  C     C_3   0.944089 0.789917 0.839182 -0.928983
C132  C     C_3   0.946865 0.666475 0.634569 0.177618
C133  C     C_3   0.928325 0.721976 0.608827 -0.343569
C134  C     C_3   0.862743 0.770258 0.617859 -0.952619
C135  C     C_R   0.499891 0.999452 0.030595 0.332806
C136  C     C_3   0.839781 0.450893 0.359659 0.105425
C137  C     C_3   0.778707 0.399466 0.348322 -0.317273
C138  C     C_3   0.709847 0.442948 0.339290 -0.929524
C139  C     C_3   0.331973 0.947063 0.635241 0.177913
C140  C     C_3   0.276205 0.928575 0.609628 -0.345961
C141  C     C_3   0.227294 0.863662 0.618923 -0.947477
C142  C     C_3   0.547421 0.839433 0.359255 0.105011
C143  C     C_3   0.598500 0.777883 0.348049 -0.317324
C144  C     C_3   0.554532 0.709548 0.338747 -0.930212
C145  C     C_3   0.054640 0.333733 0.634852 0.177608
C146  C     C_R   0.998469 0.498466 0.967534 0.377898
C147  C     C_3   0.073032 0.277224 0.609497 -0.346432
C148  C     C_3   0.138813 0.229475 0.618704 -0.947969
C149  C     C_3   0.159795 0.549340 0.359619 0.104436
C150  C     C_3   0.221505 0.601064 0.349076 -0.317219
C151  C     C_3   0.290993 0.557853 0.340648 -0.930008
C152  C     C_3   0.671084 0.051380 0.626307 0.146943
C153  C     C_3   0.748550 0.042263 0.639661 -0.299889
C154  C     C_3   0.795900 0.110292 0.633436 -0.947841
C155  C     C_3   0.451417 0.159809 0.359500 0.104357
C156  C     C_3   0.400241 0.221431 0.348459 -0.317860
C157  C     C_R   0.998344 0.497796 0.030557 0.330427
C158  C     C_3   0.444088 0.289916 0.339182 -0.928983
C159  C     C_3   0.609703 0.129259 0.058481 0.103000
C160  C     C_3   0.656070 0.161641 0.084991 -0.312780
C161  C     C_3   0.736489 0.171142 0.075209 -0.973087
C162  C     C_3   0.342738 0.935181 0.943324 0.109975
C163  C     C_3   0.322208 0.904130 0.975265 -0.321845
C164  C     C_3   0.249643 0.936273 0.987129 -0.979195
C165  C     C_3   0.869973 0.608740 0.058763 0.103076
C166  C     C_3   0.839262 0.655842 0.085432 -0.312956
C167  C     C_3   0.830812 0.736321 0.075618 -0.974051
C168  C     C_R   0.641535 0.141354 0.249831 0.814629
C169  C     C_3   0.061991 0.341146 0.942931 0.109669
C170  C     C_3   0.093344 0.319099 0.974601 -0.320483
C171  C     C_3   0.060054 0.246819 0.986208 -0.981127
C172  C     C_3   0.392403 0.866527 0.059353 0.104392
C173  C     C_3   0.349472 0.827329 0.085309 -0.308986
C174  C     C_3   0.269670 0.812876 0.075799 -0.974015
C175  C     C_3   0.657056 0.064453 0.942765 0.110565
C176  C     C_3   0.678375 0.094657 0.974708 -0.322079
C177  C     C_3   0.751491 0.062556 0.985918 -0.979767
C178  C     C_3   0.128160 0.387385 0.058817 0.109092
C179  C     C_R   0.358375 0.858695 0.750184 0.810283
C180  C     C_3   0.159514 0.341557 0.085745 -0.316554
C181  C     C_3   0.168840 0.260853 0.076440 -0.971893
C182  C     C_3   0.935045 0.656573 0.942873 0.110407
C183  C     C_3   0.903881 0.678351 0.974625 -0.320985
C184  C     C_3   0.936379 0.751145 0.985990 -0.980638
C185  C     C_3   0.109701 0.629259 0.558480 0.103003
C186  C     C_3   0.156069 0.661642 0.584990 -0.312780
C187  C     C_3   0.236488 0.671143 0.575208 -0.973087
C188  C     C_3   0.842737 0.435181 0.443324 0.109973
C189  C     C_3   0.822207 0.404128 0.475264 -0.321842
C190  C     C_R   0.858652 0.641534 0.249845 0.814515
C191  C     C_3   0.749643 0.436273 0.487129 -0.979200
C192  C     C_3   0.369974 0.108739 0.558763 0.103077
C193  C     C_3   0.339261 0.155842 0.585431 -0.312955
C194  C     C_3   0.330811 0.236321 0.575617 -0.974050
C195  C     C_3   0.561992 0.841145 0.442931 0.109668
C196  C     C_3   0.593346 0.819099 0.474600 -0.320480
C197  C     C_3   0.560055 0.746818 0.486208 -0.981127
C198  C     C_3   0.892402 0.366527 0.559353 0.104390
C199  C     C_3   0.849471 0.327329 0.585310 -0.308988
C200  C     C_3   0.769670 0.312875 0.575799 -0.974015
C201  C     C_R   0.141276 0.358360 0.750179 0.810022
C202  C     C_3   0.157056 0.564454 0.442764 0.110568
C203  C     C_3   0.178373 0.594655 0.474709 -0.322080
C204  C     C_3   0.251491 0.562556 0.485917 -0.979761
C205  C     C_3   0.628161 0.887384 0.558817 0.109095
C206  C     C_3   0.659514 0.841557 0.585745 -0.316555
C207  C     C_3   0.668840 0.760853 0.576440 -0.971894
C208  C     C_3   0.435045 0.156573 0.442872 0.110412
C209  C     C_3   0.403885 0.178349 0.474625 -0.320987
C210  C     C_3   0.436381 0.251145 0.485989 -0.980630
C211  C     C_R   0.358551 0.858561 0.249928 0.814516
C212  C     C_R   0.999965 0.499980 0.334053 0.876821
C213  C     C_R   0.641657 0.141307 0.750149 0.810809
C214  C     C_R   0.141373 0.358444 0.249836 0.814395
C215  C     C_R   0.858712 0.641637 0.750207 0.811490
C216  C     C_R   0.141535 0.641354 0.749831 0.814629
C217  C     C_R   0.858375 0.358696 0.250184 0.810283
C218  C     C_R   0.358652 0.141534 0.749846 0.814515
C219  C     C_R   0.641276 0.858360 0.250179 0.810022
C220  C     C_R   0.858551 0.358561 0.749928 0.814516
C221  C     C_R   0.141657 0.641307 0.250149 0.810808
C222  C     C_R   0.641373 0.858444 0.749836 0.814395
C223  C     C_R   0.000011 0.499987 0.665636 0.896041
C224  C     C_R   0.358712 0.141637 0.250207 0.811490
C225  C     C_3   0.235949 0.202919 0.273305 -0.059403
C226  C     C_3   0.764187 0.797219 0.726785 -0.043374
C227  C     C_3   0.797131 0.235849 0.273146 -0.059867
C228  C     C_3   0.202549 0.764231 0.726799 -0.046848
C229  C     C_3   0.763759 0.796925 0.273258 -0.060019
C230  C     C_3   0.236094 0.202710 0.726706 -0.046643
C231  C     C_3   0.201893 0.764733 0.272753 -0.060547
C232  C     C_3   0.798847 0.234981 0.727384 -0.047665
C233  C     C_3   0.735949 0.702919 0.773305 -0.059403
C234  C     C_R   0.999940 0.499982 0.834044 0.876620
C235  C     C_3   0.264187 0.297219 0.226785 -0.043374
C236  C     C_3   0.297131 0.735849 0.773146 -0.059866
C237  C     C_3   0.702549 0.264231 0.226799 -0.046848
C238  C     C_3   0.263759 0.296925 0.773258 -0.060018
C239  C     C_3   0.736094 0.702710 0.226706 -0.046643
C240  C     C_3   0.701893 0.264733 0.772753 -0.060547
C241  C     C_3   0.298847 0.734981 0.227384 -0.047665
C242  C     C_3   0.184064 0.218562 0.245685 -0.061268
C243  C     C_3   0.816119 0.781629 0.754394 -0.064509
C244  C     C_3   0.781394 0.184105 0.245491 -0.061172
C245  C     C_R   0.999896 0.499862 0.165632 0.900444
C246  C     C_3   0.218256 0.816057 0.754445 -0.063528
C247  C     C_3   0.815936 0.781415 0.245678 -0.061062
C248  C     C_3   0.183834 0.218199 0.754273 -0.063511
C249  C     C_3   0.219026 0.815617 0.244916 -0.061994
C250  C     C_3   0.781709 0.183989 0.755186 -0.063153
C251  C     C_3   0.684064 0.718562 0.745685 -0.061268
C252  C     C_3   0.316119 0.281629 0.254395 -0.064510
C253  C     C_3   0.281394 0.684105 0.745491 -0.061172
C254  C     C_3   0.718256 0.316057 0.254445 -0.063528
C255  C     C_3   0.315936 0.281415 0.745678 -0.061062
C256  C     C_R   0.499965 0.999980 0.834053 0.876821
C257  C     C_3   0.683834 0.718199 0.254273 -0.063511
C258  C     C_3   0.719026 0.315617 0.744916 -0.061994
C259  C     C_3   0.281709 0.683989 0.255186 -0.063153
C260  C     C_3   0.198527 0.301767 0.249631 -0.102200
C261  C     C_3   0.801656 0.698396 0.750447 -0.109264
C262  C     C_3   0.698208 0.198501 0.249600 -0.101509
C263  C     C_3   0.301537 0.801652 0.750362 -0.108845
C264  C     C_3   0.801497 0.698208 0.249629 -0.101357
C265  C     C_3   0.198292 0.301494 0.750352 -0.108796
C266  C     C_3   0.301944 0.801372 0.249818 -0.102170
C267  C     C_R   0.500011 0.999987 0.165636 0.896041
C268  C     C_3   0.698635 0.198244 0.750313 -0.107991
C269  C     C_3   0.698527 0.801767 0.749631 -0.102199
C270  C     C_3   0.301656 0.198396 0.250447 -0.109264
C271  C     C_3   0.198208 0.698501 0.749600 -0.101509
C272  C     C_3   0.801537 0.301652 0.250362 -0.108845
C273  C     C_3   0.301497 0.198208 0.749629 -0.101357
C274  C     C_3   0.698292 0.801494 0.250352 -0.108796
C275  C     C_3   0.801944 0.301372 0.749818 -0.102170
C276  C     C_3   0.198635 0.698244 0.250313 -0.107991
C277  C     C_3   0.250454 0.286229 0.277210 -0.055646
C278  C     C_R   0.500067 0.999837 0.130971 -0.389787
C279  C     C_3   0.749727 0.713978 0.722881 -0.054682
C280  C     C_3   0.713827 0.250306 0.277202 -0.055384
C281  C     C_3   0.285817 0.749853 0.722743 -0.053386
C282  C     C_3   0.749249 0.713603 0.277152 -0.055677
C283  C     C_3   0.250520 0.285997 0.722810 -0.053756
C284  C     C_3   0.284973 0.750412 0.277585 -0.055983
C285  C     C_3   0.715828 0.249204 0.722511 -0.051923
C286  C     C_3   0.750454 0.786229 0.777210 -0.055646
C287  C     C_3   0.249727 0.213978 0.222881 -0.054683
C288  C     C_3   0.213828 0.750306 0.777202 -0.055385
H1    H     H_    0.450391 0.196557 0.157056 0.189020
H2    H     H_    0.298608 0.867919 0.827775 0.226397
H3    H     H_    0.676348 0.068424 0.601466 0.166202
H4    H     H_    0.744775 0.032897 0.665187 0.247521
H5    H     H_    0.775457 0.993518 0.628788 0.239284
H6    H     H_    0.800694 0.120574 0.608020 0.267555
H7    H     H_    0.852086 0.101082 0.642915 0.284312
H8    H     H_    0.771351 0.159525 0.644800 0.274610
H9    H     H_    0.488310 0.144479 0.339848 0.127770
H10   H     H_    0.486119 0.181300 0.378901 0.108852
H11   H     H_    0.367884 0.201934 0.328091 0.226809
H12   H     H_    0.361155 0.236121 0.367429 0.237400
H13   H     H_    0.264296 0.859688 0.867071 0.238109
H14   H     H_    0.475673 0.311277 0.359405 0.264428
H15   H     H_    0.405844 0.333708 0.331104 0.279652
H16   H     H_    0.483007 0.276540 0.320013 0.274711
H17   H     H_    0.616738 0.164768 0.037607 0.172839
H18   H     H_    0.630795 0.073484 0.051964 0.118310
H19   H     H_    0.633223 0.216146 0.091904 0.247536
H20   H     H_    0.654046 0.124242 0.105458 0.239740
H21   H     H_    0.760443 0.117118 0.068358 0.266515
H22   H     H_    0.768859 0.193421 0.095005 0.279110
H23   H     H_    0.740715 0.210213 0.055354 0.270981
H24   H     H_    0.188140 0.973763 0.859682 0.264227
H25   H     H_    0.298089 0.921273 0.926632 0.154886
H26   H     H_    0.346185 0.996609 0.945223 0.114273
H27   H     H_    0.317166 0.843100 0.973809 0.237807
H28   H     H_    0.366533 0.917638 0.992122 0.223123
H29   H     H_    0.254111 0.997147 0.989489 0.272247
H30   H     H_    0.236636 0.912454 0.010314 0.267474
H31   H     H_    0.203994 0.922727 0.970873 0.269702
H32   H     H_    0.833875 0.616189 0.038122 0.172979
H33   H     H_    0.925860 0.628875 0.051844 0.118069
H34   H     H_    0.784617 0.633966 0.092740 0.248123
H35   H     H_    0.166404 0.904566 0.831021 0.279643
H36   H     H_    0.877313 0.653368 0.105648 0.239243
H37   H     H_    0.884988 0.759252 0.068324 0.266558
H38   H     H_    0.809911 0.769244 0.095540 0.279153
H39   H     H_    0.791041 0.741075 0.056062 0.271102
H40   H     H_    0.075018 0.296905 0.925907 0.154336
H41   H     H_    0.000650 0.345387 0.945115 0.115046
H42   H     H_    0.154240 0.312942 0.972823 0.237900
H43   H     H_    0.081070 0.363199 0.991746 0.223097
H44   H     H_    0.999353 0.252449 0.988975 0.272229
H45   H     H_    0.084297 0.232523 0.009151 0.267928
H46   H     H_    0.222938 0.982512 0.820325 0.275052
H47   H     H_    0.072163 0.201471 0.969586 0.269887
H48   H     H_    0.386221 0.834088 0.037587 0.172934
H49   H     H_    0.367878 0.921945 0.054617 0.115414
H50   H     H_    0.376547 0.773859 0.090831 0.246290
H51   H     H_    0.349414 0.862076 0.106589 0.243743
H52   H     H_    0.241122 0.865748 0.070694 0.267342
H53   H     H_    0.240199 0.784623 0.095103 0.279321
H54   H     H_    0.267737 0.776977 0.054866 0.269599
H55   H     H_    0.701133 0.079120 0.925869 0.155540
H56   H     H_    0.653975 0.002952 0.944407 0.113968
H57   H     H_    0.802005 0.451291 0.157759 0.189091
H58   H     H_    0.683035 0.155754 0.973520 0.237821
H59   H     H_    0.634609 0.080372 0.991763 0.222388
H60   H     H_    0.747361 0.001614 0.988096 0.272210
H61   H     H_    0.765251 0.085911 0.009075 0.268029
H62   H     H_    0.796497 0.076662 0.969376 0.269640
H63   H     H_    0.164341 0.379737 0.038181 0.172483
H64   H     H_    0.072520 0.366359 0.052076 0.117796
H65   H     H_    0.213946 0.364288 0.092812 0.247492
H66   H     H_    0.121538 0.344323 0.106019 0.237869
H67   H     H_    0.114957 0.237132 0.069271 0.266618
H68   H     H_    0.872335 0.400909 0.137986 0.109888
H69   H     H_    0.189944 0.228800 0.096571 0.279143
H70   H     H_    0.208793 0.255879 0.056922 0.270934
H71   H     H_    0.921425 0.700685 0.925865 0.155289
H72   H     H_    0.996450 0.652865 0.944883 0.114096
H73   H     H_    0.842883 0.683685 0.973069 0.238148
H74   H     H_    0.917028 0.634496 0.991778 0.222187
H75   H     H_    0.997181 0.746322 0.988567 0.271971
H76   H     H_    0.912240 0.765314 0.008980 0.268337
H77   H     H_    0.923473 0.796207 0.969328 0.269755
H78   H     H_    0.116737 0.664767 0.537606 0.172838
H79   H     H_    0.740769 0.477430 0.104997 0.253538
H80   H     H_    0.130794 0.573484 0.551964 0.118308
H81   H     H_    0.133221 0.716148 0.591903 0.247534
H82   H     H_    0.154045 0.624244 0.605458 0.239741
H83   H     H_    0.260442 0.617119 0.568357 0.266515
H84   H     H_    0.268858 0.693423 0.595004 0.279110
H85   H     H_    0.240713 0.710213 0.555353 0.270982
H86   H     H_    0.798088 0.421274 0.426632 0.154884
H87   H     H_    0.846185 0.496609 0.445224 0.114275
H88   H     H_    0.817163 0.343098 0.473808 0.237807
H89   H     H_    0.866533 0.417633 0.492122 0.223124
H90   H     H_    0.806083 0.413967 0.087910 0.247917
H91   H     H_    0.754113 0.497146 0.489490 0.272248
H92   H     H_    0.736636 0.412452 0.510314 0.267474
H93   H     H_    0.703994 0.422729 0.470873 0.269703
H94   H     H_    0.333877 0.116188 0.538122 0.172979
H95   H     H_    0.425861 0.128875 0.551844 0.118067
H96   H     H_    0.284615 0.133965 0.592739 0.248121
H97   H     H_    0.377311 0.153368 0.605647 0.239245
H98   H     H_    0.384988 0.259251 0.568324 0.266558
H99   H     H_    0.309909 0.269244 0.595539 0.279153
H100  H     H_    0.291042 0.241075 0.556061 0.271101
H101  H     H_    0.761492 0.314261 0.123917 0.275084
H102  H     H_    0.575018 0.796905 0.425907 0.154336
H103  H     H_    0.500651 0.845387 0.445115 0.115047
H104  H     H_    0.654241 0.812940 0.472822 0.237900
H105  H     H_    0.581073 0.863198 0.491746 0.223096
H106  H     H_    0.499354 0.752450 0.488976 0.272229
H107  H     H_    0.584299 0.732523 0.509151 0.267928
H108  H     H_    0.572163 0.701470 0.469586 0.269887
H109  H     H_    0.886220 0.334087 0.537587 0.172934
H110  H     H_    0.867878 0.421944 0.554617 0.115415
H111  H     H_    0.876547 0.273860 0.590832 0.246291
H112  H     H_    0.401026 0.125701 0.137226 0.109535
H113  H     H_    0.688878 0.350441 0.099602 0.274589
H114  H     H_    0.849413 0.362077 0.606589 0.243742
H115  H     H_    0.741121 0.365748 0.570695 0.267342
H116  H     H_    0.740198 0.284623 0.595104 0.279322
H117  H     H_    0.767736 0.276976 0.554867 0.269599
H118  H     H_    0.201132 0.579124 0.425869 0.155542
H119  H     H_    0.153976 0.502953 0.444405 0.113965
H120  H     H_    0.183031 0.655752 0.473522 0.237821
H121  H     H_    0.134609 0.580365 0.491763 0.222387
H122  H     H_    0.247364 0.501613 0.488093 0.272209
H123  H     H_    0.265250 0.585908 0.509075 0.268029
H124  H     H_    0.694348 0.377867 0.139881 0.279254
H125  H     H_    0.296497 0.576667 0.469376 0.269639
H126  H     H_    0.664341 0.879736 0.538181 0.172482
H127  H     H_    0.572520 0.866359 0.552076 0.117796
H128  H     H_    0.713946 0.864287 0.592813 0.247492
H129  H     H_    0.621538 0.844323 0.606019 0.237869
H130  H     H_    0.614958 0.737131 0.569271 0.266618
H131  H     H_    0.689943 0.728799 0.596571 0.279143
H132  H     H_    0.708794 0.755879 0.556923 0.270934
H133  H     H_    0.421421 0.200685 0.425865 0.155291
H134  H     H_    0.496450 0.152867 0.444881 0.114091
H135  H     H_    0.010614 0.355150 0.839657 0.127007
H136  H     H_    0.342886 0.183680 0.473072 0.238146
H137  H     H_    0.417038 0.134495 0.491779 0.222184
H138  H     H_    0.497184 0.246326 0.488564 0.271970
H139  H     H_    0.412246 0.265313 0.508980 0.268336
H140  H     H_    0.423468 0.296207 0.469327 0.269753
H141  H     H_    0.012613 0.317696 0.878619 0.109365
H142  H     H_    0.130822 0.297565 0.827659 0.226262
H143  H     H_    0.137618 0.262943 0.866939 0.238063
H144  H     H_    0.023098 0.187938 0.859007 0.264167
H145  H     H_    0.092696 0.165842 0.830500 0.279918
H146  H     H_    0.015449 0.223195 0.819701 0.273990
H147  H     H_    0.551710 0.804625 0.157600 0.189566
H148  H     H_    0.476924 0.257875 0.104302 0.252872
H149  H     H_    0.600295 0.874873 0.136967 0.108848
H150  H     H_    0.524483 0.741017 0.105402 0.250761
H151  H     H_    0.586634 0.806426 0.087502 0.249935
H152  H     H_    0.687955 0.764459 0.123130 0.275464
H153  H     H_    0.651851 0.690429 0.099570 0.274492
H154  H     H_    0.625677 0.697249 0.139982 0.279051
H155  H     H_    0.645100 0.012932 0.839751 0.127297
H156  H     H_    0.680939 0.014178 0.878965 0.108961
H157  H     H_    0.702854 0.133006 0.828431 0.226101
H158  H     H_    0.734680 0.140492 0.868084 0.238390
H159  H     H_    0.414424 0.191894 0.087104 0.248329
H160  H     H_    0.811850 0.027329 0.861267 0.263323
H161  H     H_    0.834638 0.096391 0.832628 0.279691
H162  H     H_    0.779001 0.018017 0.821689 0.276102
H163  H     H_    0.141934 0.595718 0.139413 0.138270
H164  H     H_    0.176348 0.568424 0.101466 0.166203
H165  H     H_    0.244775 0.532897 0.165187 0.247522
H166  H     H_    0.275457 0.493517 0.128788 0.239284
H167  H     H_    0.300694 0.620573 0.108020 0.267556
H168  H     H_    0.352086 0.601082 0.142915 0.284312
H169  H     H_    0.271351 0.659525 0.144800 0.274610
H170  H     H_    0.313621 0.235566 0.122782 0.276098
H171  H     H_    0.988309 0.644479 0.839848 0.127770
H172  H     H_    0.986120 0.681300 0.878900 0.108852
H173  H     H_    0.867883 0.701935 0.828091 0.226809
H174  H     H_    0.861156 0.736121 0.867429 0.237401
H175  H     H_    0.975673 0.811277 0.859405 0.264428
H176  H     H_    0.905845 0.833709 0.831104 0.279652
H177  H     H_    0.983007 0.776540 0.820013 0.274711
H178  H     H_    0.950391 0.696557 0.657057 0.189020
H179  H     H_    0.901026 0.625701 0.637226 0.109535
H180  H     H_    0.976924 0.757875 0.604302 0.252872
H181  H     H_    0.349437 0.308420 0.098434 0.274609
H182  H     H_    0.914424 0.691894 0.587104 0.248329
H183  H     H_    0.813621 0.735567 0.622782 0.276099
H184  H     H_    0.849437 0.808420 0.598435 0.274610
H185  H     H_    0.876246 0.803467 0.638796 0.279392
H186  H     H_    0.854930 0.488494 0.340215 0.127103
H187  H     H_    0.817810 0.484803 0.379236 0.109142
H188  H     H_    0.798608 0.367920 0.327775 0.226398
H189  H     H_    0.764296 0.359688 0.367071 0.238109
H190  H     H_    0.688140 0.473763 0.359682 0.264227
H191  H     H_    0.666404 0.404567 0.331021 0.279643
H192  H     H_    0.376245 0.303467 0.138796 0.279392
H193  H     H_    0.722938 0.482512 0.320325 0.275053
H194  H     H_    0.302005 0.951292 0.657759 0.189091
H195  H     H_    0.372334 0.900909 0.637986 0.109888
H196  H     H_    0.240769 0.977431 0.604997 0.253538
H197  H     H_    0.306083 0.913967 0.587910 0.247918
H198  H     H_    0.261491 0.814261 0.623917 0.275084
H199  H     H_    0.188878 0.850442 0.599602 0.274589
H200  H     H_    0.194348 0.877868 0.639881 0.279254
H201  H     H_    0.510614 0.855150 0.339657 0.127006
H202  H     H_    0.512614 0.817696 0.378619 0.109365
H203  H     H_    0.354930 0.988494 0.840216 0.127103
H204  H     H_    0.630821 0.797564 0.327659 0.226261
H205  H     H_    0.637617 0.762942 0.366939 0.238063
H206  H     H_    0.523098 0.687938 0.359007 0.264167
H207  H     H_    0.592696 0.665841 0.330499 0.279918
H208  H     H_    0.515449 0.723195 0.319701 0.273989
H209  H     H_    0.051710 0.304625 0.657600 0.189566
H210  H     H_    0.100295 0.374872 0.636966 0.108848
H211  H     H_    0.024482 0.241017 0.605402 0.250761
H212  H     H_    0.086634 0.306426 0.587502 0.249935
H213  H     H_    0.187955 0.264458 0.623129 0.275464
H214  H     H_    0.317810 0.984803 0.879237 0.109142
H215  H     H_    0.151850 0.190429 0.599570 0.274491
H216  H     H_    0.125677 0.197249 0.639982 0.279051
H217  H     H_    0.145100 0.512931 0.339751 0.127297
H218  H     H_    0.180939 0.514178 0.378966 0.108960
H219  H     H_    0.202853 0.633006 0.328431 0.226101
H220  H     H_    0.234680 0.640492 0.368084 0.238389
H221  H     H_    0.311850 0.527330 0.361268 0.263322
H222  H     H_    0.334637 0.596392 0.332628 0.279691
H223  H     H_    0.279001 0.518018 0.321690 0.276102
H224  H     H_    0.641934 0.095718 0.639413 0.138270
N1    N     N_R   0.519599 0.938141 0.014439 -0.141914
N2    N     N_R   0.980261 0.561105 0.483559 -0.152427
N3    N     N_R   0.560107 0.016514 0.514454 -0.139878
N4    N     N_R   0.436539 0.980054 0.483464 -0.152005
N5    N     N_R   0.980115 0.560876 0.514522 -0.142298
N6    N     N_R   0.019283 0.438125 0.483475 -0.153217
N7    N     N_R   0.436587 0.979502 0.514432 -0.142901
N8    N     N_R   0.560296 0.016596 0.483496 -0.151727
N9    N     N_1   0.053853 0.158324 0.237088 -0.171300
N10   N     N_1   0.946216 0.842883 0.761907 -0.186120
N11   N     N_1   0.841618 0.053964 0.236667 -0.171255
N12   N     N_R   0.480262 0.061106 0.983559 -0.152427
N13   N     N_1   0.156983 0.946083 0.762144 -0.186172
N14   N     N_1   0.946210 0.841753 0.237214 -0.171439
N15   N     N_1   0.053661 0.156882 0.761606 -0.185993
N16   N     N_1   0.159344 0.945511 0.234874 -0.171781
N17   N     N_1   0.842611 0.054134 0.763840 -0.187870
N18   N     N_1   0.553853 0.658324 0.737088 -0.171300
N19   N     N_1   0.446216 0.342882 0.261907 -0.186120
N20   N     N_1   0.341617 0.553964 0.736667 -0.171255
N21   N     N_1   0.656983 0.446083 0.262144 -0.186172
N22   N     N_1   0.446210 0.341752 0.737214 -0.171439
N23   N     N_R   0.060106 0.516515 0.014454 -0.139878
N24   N     N_1   0.553661 0.656882 0.261606 -0.185993
N25   N     N_1   0.659344 0.445511 0.734874 -0.171781
N26   N     N_1   0.342611 0.554134 0.263840 -0.187870
N27   N     N_1   0.207969 0.111244 0.319188 -0.139425
N28   N     N_1   0.792671 0.888758 0.680951 -0.215566
N29   N     N_1   0.889022 0.207619 0.318852 -0.139489
N30   N     N_1   0.109605 0.791399 0.681338 -0.190212
N31   N     N_1   0.791304 0.888424 0.319178 -0.139133
N32   N     N_1   0.209631 0.110074 0.681057 -0.190531
N33   N     N_1   0.107739 0.794488 0.317541 -0.139953
N34   N     N_R   0.936539 0.480056 0.983464 -0.152005
N35   N     N_1   0.896468 0.207975 0.683618 -0.191915
N36   N     N_1   0.707969 0.611244 0.819188 -0.139425
N37   N     N_1   0.292671 0.388758 0.180951 -0.215566
N38   N     N_1   0.389022 0.707619 0.818852 -0.139489
N39   N     N_1   0.609606 0.291399 0.181338 -0.190212
N40   N     N_1   0.291304 0.388424 0.819178 -0.139133
N41   N     N_1   0.709631 0.610074 0.181057 -0.190531
N42   N     N_1   0.607739 0.294487 0.817541 -0.139953
N43   N     N_1   0.396468 0.707975 0.183618 -0.191915
N44   N     N_1   0.248424 0.358370 0.330198 -0.227742
N45   N     N_R   0.480116 0.060876 0.014522 -0.142298
N46   N     N_1   0.750143 0.641660 0.669934 -0.229898
N47   N     N_1   0.641977 0.247774 0.330312 -0.227746
N48   N     N_1   0.357971 0.750517 0.669703 -0.230346
N49   N     N_1   0.750726 0.641422 0.330165 -0.227572
N50   N     N_1   0.250582 0.358547 0.669888 -0.229924
N51   N     N_1   0.354375 0.754475 0.331180 -0.226788
N52   N     N_1   0.646920 0.246944 0.668790 -0.228580
N53   N     N_1   0.748424 0.858370 0.830198 -0.227742
N54   N     N_1   0.250143 0.141660 0.169934 -0.229898
N55   N     N_1   0.141977 0.747774 0.830312 -0.227746
N56   N     N_R   0.519284 0.938126 0.983475 -0.153217
N57   N     N_1   0.857972 0.250517 0.169703 -0.230347
N58   N     N_1   0.250726 0.141422 0.830165 -0.227572
N59   N     N_1   0.750582 0.858548 0.169888 -0.229925
N60   N     N_1   0.854375 0.254475 0.831180 -0.226788
N61   N     N_1   0.146920 0.746944 0.168791 -0.228580
N62   N     N_R   0.936587 0.479503 0.014432 -0.142901
N63   N     N_R   0.060295 0.516597 0.983496 -0.151727
N64   N     N_R   0.019598 0.438141 0.514439 -0.141914
O1    O     O_3   0.500000 0.000000 0.250000 -0.506987
O2    O     O_R   0.438450 0.000020 0.680680 -0.625058
O3    O     O_R   0.000020 0.561550 0.319320 -0.609599
O4    O     O_R   0.999980 0.438450 0.680680 -0.620709
O5    O     O_R   0.938450 0.500020 0.819320 -0.610195
O6    O     O_R   0.061550 0.499980 0.180680 -0.603662
O7    O     O_R   0.499980 0.938450 0.819320 -0.609572
O8    O     O_R   0.500020 0.061550 0.180680 -0.621203
O9    O     O_R   0.061550 0.499980 0.819320 -0.609649
O10   O     O_R   0.938450 0.500020 0.180680 -0.625058
O11   O     O_R   0.500020 0.061550 0.819320 -0.609599
O12   O     O_3   0.500000 0.000000 0.750000 -0.508332
O13   O     O_R   0.499980 0.938450 0.180680 -0.620709
O14   O     O_R   0.648010 0.086580 0.268180 -0.633185
O15   O     O_R   0.351990 0.913420 0.731820 -0.648819
O16   O     O_R   0.913420 0.648010 0.268180 -0.633273
O17   O     O_R   0.086580 0.351990 0.731820 -0.648722
O18   O     O_R   0.351990 0.913420 0.268180 -0.633117
O19   O     O_R   0.648010 0.086580 0.731820 -0.643779
O20   O     O_R   0.086580 0.351990 0.268180 -0.633295
O21   O     O_R   0.913420 0.648010 0.731820 -0.648440
O22   O     O_R   0.148010 0.586580 0.768180 -0.633185
O23   O     O_3   0.000000 0.500000 0.250000 -0.508332
O24   O     O_R   0.851990 0.413420 0.231820 -0.648819
O25   O     O_R   0.413420 0.148010 0.768180 -0.633273
O26   O     O_R   0.586580 0.851990 0.231820 -0.648722
O27   O     O_R   0.851990 0.413420 0.768180 -0.633117
O28   O     O_R   0.148010 0.586580 0.231820 -0.643779
O29   O     O_R   0.586580 0.851990 0.768180 -0.633295
O30   O     O_R   0.413420 0.148010 0.231820 -0.648440
O31   O     O_R   0.413460 0.851950 0.231830 -0.638152
O32   O     O_R   0.586540 0.148050 0.768170 -0.636636
O33   O     O_R   0.148050 0.413460 0.231830 -0.639013
O34   O     O_3   0.000000 0.500000 0.750000 -0.506987
O35   O     O_R   0.851950 0.586540 0.768170 -0.635866
O36   O     O_R   0.586540 0.148050 0.231830 -0.638058
O37   O     O_R   0.413460 0.851950 0.768170 -0.635928
O38   O     O_R   0.851950 0.586540 0.231830 -0.637841
O39   O     O_R   0.148050 0.413460 0.768170 -0.635644
O40   O     O_R   0.913460 0.351950 0.731830 -0.638152
O41   O     O_R   0.086540 0.648050 0.268170 -0.636637
O42   O     O_R   0.648050 0.913460 0.731830 -0.639013
O43   O     O_R   0.351950 0.086540 0.268170 -0.635866
O44   O     O_R   0.086540 0.648050 0.731830 -0.638058
O45   O     O_R   0.438450 0.000020 0.319320 -0.610194
O46   O     O_R   0.913460 0.351950 0.268170 -0.635928
O47   O     O_R   0.351950 0.086540 0.731830 -0.637841
O48   O     O_R   0.648050 0.913460 0.268170 -0.635644
O49   O     O_3   0.516729 0.133564 0.129213 -0.604629
O50   O     O_3   0.401421 0.908332 0.868979 -0.573493
O51   O     O_3   0.865548 0.516489 0.129632 -0.604442
O52   O     O_3   0.090410 0.400503 0.868883 -0.573849
O53   O     O_3   0.484457 0.865924 0.129514 -0.607079
O54   O     O_3   0.598043 0.091729 0.868994 -0.573843
O55   O     O_3   0.132585 0.483873 0.129287 -0.596653
O56   O     O_R   0.561550 0.999980 0.680680 -0.603662
O57   O     O_3   0.908491 0.598522 0.868999 -0.573944
O58   O     O_3   0.016729 0.633563 0.629213 -0.604630
O59   O     O_3   0.901420 0.408332 0.368979 -0.573493
O60   O     O_3   0.365548 0.016490 0.629632 -0.604443
O61   O     O_3   0.590410 0.900502 0.368883 -0.573849
O62   O     O_3   0.984456 0.365924 0.629514 -0.607079
O63   O     O_3   0.098043 0.591729 0.368994 -0.573845
O64   O     O_3   0.632585 0.983873 0.629287 -0.596653
O65   O     O_3   0.408491 0.098521 0.369000 -0.573945
O66   O     O_3   0.533666 0.129636 0.066195 -0.615272
O67   O     O_R   0.999980 0.438450 0.319320 -0.609572
O68   O     O_3   0.408971 0.901429 0.933127 -0.582214
O69   O     O_3   0.868673 0.532777 0.066558 -0.615348
O70   O     O_3   0.096414 0.407292 0.933053 -0.581935
O71   O     O_3   0.468716 0.868932 0.066384 -0.616584
O72   O     O_3   0.590339 0.098116 0.933157 -0.582445
O73   O     O_3   0.128442 0.463587 0.066137 -0.609833
O74   O     O_3   0.901103 0.590127 0.933134 -0.582219
O75   O     O_3   0.033665 0.629636 0.566195 -0.615272
O76   O     O_3   0.908970 0.401429 0.433127 -0.582213
O77   O     O_3   0.368673 0.032776 0.566558 -0.615348
O78   O     O_R   0.000020 0.561550 0.680680 -0.621203
O79   O     O_3   0.596414 0.907291 0.433053 -0.581935
O80   O     O_3   0.968716 0.368932 0.566384 -0.616584
O81   O     O_3   0.090337 0.598117 0.433158 -0.582445
O82   O     O_3   0.628442 0.963587 0.566137 -0.609833
O83   O     O_3   0.401103 0.090126 0.433134 -0.582220
O84   O     O_R   0.561550 0.999980 0.319320 -0.609648
Zn1   Zn    Zn3+2 0.499980 0.087890 0.224030 0.977877
Zn2   Zn    Zn3+2 0.000020 0.412110 0.275970 0.998215
Zn3   Zn    Zn3+2 0.412110 0.999980 0.724030 0.976687
Zn4   Zn    Zn3+2 0.587890 0.000020 0.275970 0.998572
Zn5   Zn    Zn3+2 0.000020 0.412110 0.724030 0.977561
Zn6   Zn    Zn3+2 0.999980 0.587890 0.275970 0.998539
Zn7   Zn    Zn3+2 0.587890 0.000020 0.724030 0.984568
Zn8   Zn    Zn3+2 0.412110 0.999980 0.275970 0.998785
Zn9   Zn    Zn3+2 0.500020 0.912110 0.775970 0.998215
Zn10  Zn    Zn3+2 0.912110 0.499980 0.224030 0.976687
Zn11  Zn    Zn3+2 0.087890 0.500020 0.775970 0.998572
Zn12  Zn    Zn3+2 0.500020 0.912110 0.224030 0.977561
Zn13  Zn    Zn3+2 0.499980 0.087890 0.775970 0.998539
Zn14  Zn    Zn3+2 0.087890 0.500020 0.224030 0.984568
Zn15  Zn    Zn3+2 0.912110 0.499980 0.775970 0.998785
Zn16  Zn    Zn3+2 0.999980 0.587890 0.724030 0.977876

loop_
_geom_bond_atom_site_label_1
_geom_bond_atom_site_label_2
_ccdc_geom_bond_type
C143  H204  S    
C138  H193  S    
C81   N38   T    
C128  H168  S    
C126  C127  S    
C149  O63   S    
C8    C26   A    
C83   N40   T    
C41   C50   A    
C212  O67   A    
C198  O80   S    
C102  N59   T    
C107  H181  S    
C205  H126  S    
C66   C257  S    
C175  H56   S    
C251  C269  S    
C197  H108  S    
C114  C115  S    
C122  H155  S    
C15   C32   A    
C123  H158  S    
O44   Zn16  S    
C213  C268  S    
C154  H8    S    
C196  H105  S    
C182  O74   S    
C121  H152  S    
C105  O49   S    
C167  H38   S    
C214  O20   A    
C91   N48   T    
O1    Zn8   S    
C215  O35   A    
C193  H96   S    
N4    N7    A    
C171  H45   S    
C106  C107  S    
O28   Zn14  S    
C143  C144  S    
C95   N52   T    
N34   N62   A    
C1    C68   S    
C108  C109  S    
C187  H83   S    
C107  H192  S    
C32   C45   A    
C182  C183  S    
C218  O25   A    
C19   C37   A    
C243  C286  S    
C200  H116  S    
C179  C263  S    
C41   O82   S    
O23   Zn2   S    
C219  O48   A    
C161  H23   S    
C222  O29   A    
C195  H103  S    
O48   Zn4   S    
O24   Zn10  S    
C236  C253  S    
C141  H199  S    
C111  H57   S    
C64   N21   T    
C202  O81   S    
C64   C254  S    
C211  O31   A    
C62   C252  S    
C191  H92   S    
C47   C146  S    
C199  C200  S    
C27   O68   S    
C232  C275  S    
O27   Zn15  S    
C170  H43   S    
C201  C265  S    
C125  H162  S    
C158  H16   S    
C20   C68   A    
C145  H210  S    
O34   Zn15  S    
C125  H160  S    
C109  H2    S    
C28   C45   A    
C19   O60   S    
C202  C203  S    
C6    C250  S    
C129  H171  S    
C237  C254  S    
C140  C141  S    
C188  H87   S    
C189  H89   S    
N3    N8    A    
C206  C207  S    
C160  H20   S    
O12   Zn3   S    
C194  H98   S    
C225  C242  S    
C211  C266  S    
C28   O69   S    
C207  H131  S    
C176  H59   S    
C165  H33   S    
C117  H142  S    
C186  H81   S    
C252  C277  S    
N1    N56   A    
C115  H124  S    
C63   N20   T    
C8    C278  A    
C233  C286  S    
C125  H161  S    
C67   N25   T    
C7    C241  S    
C105  H112  S    
O23   Zn6   S    
C110  H24   S    
C259  C276  S    
C241  C266  S    
C189  H88   S    
C173  H51   S    
C71   N28   T    
C163  H27   S    
C169  O70   S    
C234  O5    A    
C230  C273  S    
C33   C47   A    
C30   C43   A    
C136  H186  S    
C17   C34   A    
C137  H189  S    
C148  H216  S    
C199  H114  S    
C134  H184  S    
C265  C283  S    
C233  C261  S    
C200  H117  S    
C266  C284  S    
C205  C206  S    
C154  H6    S    
C121  H154  S    
C239  C257  S    
C142  H201  S    
C196  C197  S    
O46   Zn2   S    
C139  C140  S    
O16   Zn6   S    
C21   C35   A    
O36   Zn1   S    
O12   Zn7   S    
C224  O30   A    
C23   C41   A    
C96   N53   T    
C219  O26   A    
C156  C158  S    
C130  C131  S    
C256  O7    A    
C37   C50   A    
C188  O76   S    
C131  H176  S    
C65   C255  S    
C224  C270  S    
O1    Zn1   S    
C155  O65   S    
C213  O32   A    
C105  H1    S    
C225  C270  S    
C135  N1    A    
C67   C258  S    
C24   C234  S    
C245  O6    A    
O13   Zn12  S    
C195  C196  S    
C99   N57   T    
C39   O80   S    
C236  C263  S    
C193  C194  S    
C255  C283  S    
C155  C156  S    
O21   Zn16  S    
C1    O84   A    
C115  H101  S    
C186  C187  S    
C109  C110  S    
C168  C262  S    
C158  H14   S    
C10   O51   S    
O20   Zn2   S    
C228  C281  S    
C82   C237  S    
C260  C277  S    
C209  H137  S    
C157  N23   A    
C240  C268  S    
C246  C288  S    
C69   N26   T    
C14   C31   A    
C215  O21   A    
C271  C288  S    
C155  H10   S    
C178  H64   S    
C37   O77   S    
C40   O81   S    
C29   C47   A    
C151  H222  S    
C4    C273  S    
C208  H134  S    
C16   C33   A    
C210  H140  S    
C198  H110  S    
O19   Zn7   S    
C170  C171  S    
C153  H4    S    
C40   C49   A    
C196  H104  S    
O17   Zn5   S    
O32   Zn13  S    
C162  H26   S    
C167  H39   S    
C92   C282  S    
C177  H61   S    
C27   C44   A    
C23   O64   S    
C235  C260  S    
C72   C227  S    
C77   N35   T    
C10   C13   A    
O40   Zn5   S    
C227  C280  S    
C115  H113  S    
O43   Zn8   S    
C26   O66   S    
C203  H120  S    
O18   Zn8   S    
O41   Zn6   S    
O34   Zn5   S    
C130  H173  S    
C90   N64   A    
C234  O9    A    
C79   N2    A    
C112  O2    A    
O12   Zn13  S    
C235  C252  S    
C172  O71   S    
O1    Zn12  S    
C2    C14   A    
C42   O83   S    
C213  O19   A    
C182  H72   S    
C88   C279  S    
C124  N56   A    
C128  H169  S    
C120  H151  S    
O12   Zn9   S    
C108  O50   S    
O31   Zn12  S    
C118  H145  S    
C269  C286  S    
C45   C157  S    
C199  H111  S    
C7    C276  S    
C101  N8    A    
C227  C244  S    
C133  H180  S    
C184  H76   S    
C38   C51   A    
C113  N3    A    
C208  O83   S    
C181  H69   S    
C168  O36   A    
C193  H97   S    
C16   O57   S    
C136  O59   S    
C188  H86   S    
C231  C284  S    
C54   N11   T    
C174  H53   S    
C209  C210  S    
C88   N46   T    
C150  H219  S    
C176  H58   S    
O29   Zn9   S    
C11   O52   S    
O35   Zn15  S    
C8    O49   S    
C218  C273  S    
C84   C239  S    
C244  C262  S    
C220  O40   A    
C183  H74   S    
C86   N43   T    
C231  C249  S    
C172  H48   S    
C120  C121  S    
C129  C130  S    
C23   C57   A    
C142  C143  S    
C126  H163  S    
O84   Zn4   S    
C31   O72   S    
O67   Zn2   S    
O47   Zn3   S    
C75   N32   T    
C197  H107  S    
O34   Zn16  S    
C210  H138  S    
C116  H135  S    
C55   N13   T    
C248  C265  S    
C123  H157  S    
C267  C278  S    
O23   Zn10  S    
C238  C255  S    
C192  H95   S    
C140  H197  S    
C58   C248  S    
C167  H37   S    
C250  C268  S    
C20   O61   S    
C110  H46   S    
C117  C118  S    
C22   O63   S    
C257  C282  S    
C142  O61   S    
C119  H147  S    
C106  H159  S    
C135  N45   A    
N23   N63   A    
C166  H36   S    
C231  C276  S    
C91   C281  S    
C3    C244  S    
C165  O69   S    
C146  N63   A    
C83   C238  S    
C103  N60   T    
C164  H29   S    
C229  C247  S    
C3    C99   S    
C227  C272  S    
C165  H32   S    
O34   Zn11  S    
C30   O71   S    
C161  H22   S    
C225  C277  S    
C150  C151  S    
C243  C261  S    
C240  C258  S    
C141  H198  S    
C2    C9    A    
C58   N15   T    
C144  H207  S    
C191  H91   S    
C268  C285  S    
C264  C282  S    
C38   O79   S    
C182  H71   S    
C156  H11   S    
C147  H211  S    
C270  C287  S    
C122  O54   S    
C25   O65   S    
C119  O53   S    
C145  H209  S    
C19   C57   A    
C257  C274  S    
C208  C209  S    
C218  O47   A    
C7    C249  S    
C258  C285  S    
C147  H212  S    
C139  H195  S    
C259  C284  S    
C194  H100  S    
C94   N51   T    
O78   Zn16  S    
C123  C125  S    
C169  H41   S    
C127  H166  S    
C18   C46   A    
C34   O75   S    
C223  O78   A    
C151  H223  S    
N6    N64   A    
C149  H218  S    
C186  H82   S    
C222  C269  S    
C254  C280  S    
C217  O46   A    
C147  C148  S    
C253  C281  S    
C114  H79   S    
C14   O54   S    
C55   C246  S    
C59   C249  S    
C96   C286  S    
C85   N42   T    
C267  O13   A    
C256  O11   A    
C216  C271  S    
C173  H50   S    
C69   C259  S    
C195  O79   S    
C128  H167  S    
O37   Zn9   S    
C146  N34   A    
C74   C229  S    
C25   C68   A    
C205  H127  S    
C73   N30   T    
C137  H188  S    
C206  H128  S    
C148  H213  S    
C145  C147  S    
O7    Zn9   S    
C56   C247  S    
C109  H13   S    
C154  H7    S    
C192  O77   S    
O10   Zn10  S    
C121  H153  S    
C114  H90   S    
C53   C243  S    
C80   N37   T    
C142  H202  S    
C98   N55   T    
C89   N47   T    
C157  N62   A    
C136  C137  S    
C159  H18   S    
C95   C285  S    
C120  H150  S    
C230  C283  S    
O25   Zn13  S    
O56   Zn7   S    
C166  H34   S    
C175  H55   S    
C187  H84   S    
C75   C230  S    
C36   C49   A    
C52   C242  S    
C200  H115  S    
C180  H65   S    
C204  H123  S    
C159  C160  S    
C261  C279  S    
C13   C15   A    
C61   C251  S    
C131  H175  S    
C94   C284  S    
C6    C103  S    
C141  H200  S    
C36   O76   S    
C216  O22   A    
C17   O58   S    
C159  H17   S    
C139  H194  S    
C87   N44   T    
C22   C46   A    
C194  H99   S    
C82   N39   T    
O3    Zn6   S    
C133  C134  S    
C71   C226  S    
C179  O15   A    
C170  H42   S    
C138  H190  S    
C53   N10   T    
C101  N4    A    
C108  H214  S    
C158  H15   S    
C180  C181  S    
C9    C27   A    
C162  C163  S    
C113  N7    A    
C10   C28   A    
C152  O64   S    
C90   N5    A    
O9    Zn11  S    
C5    C102  S    
C202  H118  S    
C5    C239  S    
C12   C30   A    
C258  C275  S    
C129  H172  S    
C184  H77   S    
C222  O42   A    
C190  O38   A    
C25   C42   A    
C73   C228  S    
C178  C180  S    
C61   N18   T    
C160  H19   S    
C51   C101  S    
C217  C272  S    
C105  C106  S    
C155  H9    S    
C185  H78   S    
C232  C285  S    
C207  H132  S    
C151  H221  S    
C50   C113  S    
C117  H143  S    
C52   N9    T    
C108  H203  S    
C118  H144  S    
C32   O73   S    
C149  C150  S    
C192  C193  S    
C252  C270  S    
C185  C186  S    
C132  H179  S    
C229  C282  S    
C253  C271  S    
C86   C241  S    
C111  H68   S    
C254  C272  S    
C15   O55   S    
C111  C114  S    
C192  H94   S    
C89   C280  S    
O26   Zn12  S    
C216  O44   A    
C145  O62   S    
C140  H196  S    
C211  O18   A    
C133  H182  S    
C60   N17   T    
C177  H60   S    
C49   C79   S    
O2    Zn3   S    
C228  C246  S    
C107  H170  S    
C44   C124  S    
C171  H44   S    
C152  H224  S    
C267  O8    A    
C111  O51   S    
C5    C274  S    
C17   C35   A    
C18   C36   A    
C229  C274  S    
C124  N12   A    
C148  H215  S    
C134  H183  S    
C39   C48   A    
C220  O27   A    
C203  C204  S    
C165  C166  S    
C130  H174  S    
C169  C170  S    
C215  C261  S    
C122  H156  S    
C163  C164  S    
C70   C225  S    
C183  C184  S    
O38   Zn10  S    
O14   Zn4   S    
C191  H93   S    
C173  C174  S    
O30   Zn1   S    
C76   N33   T    
C183  H73   S    
C255  C273  S    
C217  O24   A    
C9    O50   S    
C118  H146  S    
C201  O17   A    
C132  O58   S    
C169  H40   S    
C226  C269  S    
C174  H52   S    
C204  H125  S    
C57   C112  S    
C190  C264  S    
C245  O10   A    
C164  H31   S    
C11   C24   A    
O6    Zn14  S    
C195  H102  S    
C116  C117  S    
C221  C276  S    
C189  C191  S    
C84   N41   T    
C87   C277  S    
C190  O16   A    
C110  H35   S    
O45   Zn8   S    
C4    C248  S    
C1    O45   A    
C205  O82   S    
C72   N29   T    
C175  C176  S    
C132  C133  S    
C174  H54   S    
C235  C287  S    
C116  O52   S    
C78   N36   T    
C198  C199  S    
C236  C288  S    
C175  O72   S    
C134  H185  S    
O22   Zn11  S    
C203  H121  S    
C247  C264  S    
C42   C51   A    
C226  C279  S    
C29   O70   S    
C202  H119  S    
C178  O73   S    
C56   N14   T    
C16   C24   A    
C181  H67   S    
C60   C250  S    
C80   C235  S    
C214  C260  S    
C5    C247  S    
C97   C287  S    
C224  O43   A    
C98   C288  S    
C26   C43   A    
C159  O66   S    
C251  C279  S    
C62   N19   T    
C168  O14   A    
C178  H63   S    
C185  H80   S    
C31   C44   A    
C207  H130  S    
C171  H47   S    
C126  H164  S    
C208  H133  S    
C144  H206  S    
C185  O75   S    
O4    Zn5   S    
C65   N22   T    
C112  O56   A    
C79   N6    A    
C210  H139  S    
C198  H109  S    
C85   C240  S    
C153  H5    S    
C126  O55   S    
C180  H66   S    
C6    C240  S    
C219  C274  S    
C3    C272  S    
C188  C189  S    
C54   C244  S    
C249  C266  S    
C162  H25   S    
C93   N50   T    
O8    Zn1   S    
C35   C223  S    
C177  H62   S    
C179  O37   A    
C20   C38   A    
C143  H205  S    
C100  N58   T    
C21   C39   A    
C33   O74   S    
C22   C40   A    
C76   C231  S    
C81   C236  S    
C162  O68   S    
C187  H85   S    
C136  H187  S    
C152  C153  S    
C119  C120  S    
C43   C135  S    
C6    C275  S    
C116  H141  S    
C3    C237  S    
C221  O28   A    
C164  H30   S    
C104  N61   T    
C204  H122  S    
C176  C177  S    
C209  H136  S    
O42   Zn7   S    
C7    C104  S    
C4    C100  S    
C161  H21   S    
C166  C167  S    
C239  C264  S    
C152  H3    S    
C232  C250  S    
C92   N49   T    
C212  O3    A    
C70   N27   T    
C12   C278  A    
C262  C280  S    
C201  O39   A    
C230  C248  S    
C172  C173  S    
C144  H208  S    
C206  H129  S    
O15   Zn3   S    
C172  H49   S    
C119  H149  S    
C138  H191  S    
C21   O62   S    
C223  O4    A    
C77   C232  S    
C4    C238  S    
C241  C259  S    
C237  C262  S    
C242  C260  S    
C156  H12   S    
C238  C265  S    
O5    Zn15  S    
C163  H28   S    
C228  C271  S    
C2    C256  S    
C131  H177  S    
C184  H75   S    
C66   N24   T    
C137  C138  S    
C18   O59   S    
C139  O60   S    
C263  C281  S    
C181  H70   S    
O11   Zn13  S    
C221  O41   A    
C160  C161  S    
O1    Zn4   S    
C122  C123  S    
C97   N54   T    
C93   C283  S    
O39   Zn11  S    
C63   C253  S    
C78   C233  S    
C46   C212  S    
C127  H165  S    
C106  H148  S    
C13   C245  S    
C129  O57   S    
C149  H217  S    
C242  C287  S    
C150  H220  S    
C226  C243  S    
C12   O53   S    
C233  C251  S    
O23   Zn14  S    
C34   C48   A    
C11   C29   A    
O33   Zn14  S    
C74   N31   T    
N2    N5    A    
C214  O33   A    
N12   N45   A    
C48   C90   S    
C153  C154  S    
C197  H106  S    
C246  C263  S    
C127  C128  S    
C132  H178  S    
C59   N16   T    
C220  C275  S    
