data_mof_unit_18712.cif
_audit_creation_date              2013-03-05T15:40:45-0500
_audit_creation_method            fapswitch 2.2
_symmetry_space_group_name_H-M    P1
_symmetry_Int_Tables_number       1
_space_group_crystal_system       triclinic
_cell_length_a                    6.923193
_cell_length_b                    17.327135
_cell_length_c                    24.11177
_cell_angle_alpha                 104.623411
_cell_angle_beta                  90.571264
_cell_angle_gamma                 90.012812
_cell_volume                      2798.5789034

loop_
_atom_site_label
_atom_site_type_symbol
_atom_site_description
_atom_site_fract_x
_atom_site_fract_y
_atom_site_fract_z
_atom_type_partial_charge
O1    O     O_R   0.494290 0.391990 0.999150 -0.565271
O2    O     O_R   0.827170 0.534410 0.082350 -0.551222
O3    O     O_R   0.994360 0.608010 0.000850 -0.563569
C1    C     C_R   0.658943 0.548359 0.106283 0.845676
O4    O     O_R   0.824210 0.388010 0.004470 -0.526189
O5    O     O_R   0.991370 0.460560 0.922410 -0.528869
C2    C     C_R   0.654458 0.354900 0.001520 0.936022
O6    O     O_R   0.497270 0.539440 0.077590 -0.564761
O7    O     O_3   0.659770 0.523970 0.973170 -0.264681
V1    V     V_3+5 0.935840 0.495550 0.004980 1.221478
O8    O     O_R   0.320910 0.465590 0.917650 -0.553641
C3    C     C_R   0.151442 0.447651 0.894200 0.885274
O9    O     O_R   0.323870 0.611990 0.995530 -0.547358
C4    C     C_R   0.154264 0.644432 0.996940 0.802150
V2    V     V_3+5 0.435470 0.504450 0.995020 1.203578
O10   O     O_3   0.161670 0.476030 0.026830 -0.270868
C5    C     C_2   0.142281 0.726035 0.988701 -0.213463
C6    C     C_2   0.977747 0.769885 0.001817 -0.270231
H1    H     H_    0.853492 0.744160 0.017775 0.137677
C7    C     C_R   0.132193 0.243436 0.625128 0.589447
N1    N     N_R   0.107917 0.323434 0.648730 -0.454406
C8    C     C_R   0.069151 0.374651 0.614995 0.595608
C9    C     C_R   0.061210 0.346595 0.554342 -0.113055
C10   C     C_R   0.078219 0.263529 0.529980 -0.084514
C11   C     C_R   0.115059 0.211745 0.565549 -0.031272
C12   C     C_R   0.031450 0.397747 0.517216 0.347793
C13   C     C_R   0.006894 0.365075 0.458086 -0.096695
C14   C     C_R   0.020003 0.282685 0.434009 -0.080332
C15   C     C_R   0.058165 0.231812 0.469890 -0.042306
C16   C     C_R   0.076156 0.149078 0.445700 -0.029867
C17   C     C_R   0.114067 0.098477 0.481731 0.005000
C18   C     C_R   0.133679 0.129438 0.540862 0.058283
C19   C     C_R   0.000294 0.250006 0.374426 0.577085
N2    N     N_R   0.019335 0.169536 0.351509 -0.451914
C20   C     C_R   0.056555 0.119048 0.385866 0.565498
O11   O     O_2   0.172418 0.194545 0.659279 -0.495061
O12   O     O_2   0.031615 0.451713 0.640438 -0.462083
H2    H     H_    0.983725 0.405124 0.430659 0.169372
O13   O     O_2   0.964346 0.298412 0.339628 -0.529257
O14   O     O_2   0.074074 0.040052 0.362273 -0.533797
H3    H     H_    0.128881 0.034720 0.464391 0.134823
H4    H     H_    0.162974 0.088475 0.567202 0.170896
C21   C     C_R   0.823814 0.130422 0.262446 0.001596
H5    H     H_    0.693850 0.147422 0.287140 0.073811
C22   C     C_R   0.810180 0.101175 0.202773 -0.114566
H6    H     H_    0.668760 0.096310 0.182556 0.088981
C23   C     C_R   0.977504 0.079456 0.169682 -0.100342
C24   C     C_R   0.158331 0.087097 0.197986 -0.119441
H7    H     H_    0.290172 0.070882 0.174082 0.094905
C25   C     C_R   0.171400 0.115801 0.257626 -0.006680
H8    H     H_    0.311771 0.121538 0.278529 0.071059
C26   C     C_R   0.004487 0.137926 0.290213 0.281329
C27   C     C_R   0.269010 0.405224 0.735910 0.020840
H9    H     H_    0.378478 0.422359 0.709513 0.113093
C28   C     C_R   0.279455 0.434437 0.795547 -0.112076
H10   H     H_    0.396447 0.474568 0.813956 0.125863
C29   C     C_R   0.139432 0.413211 0.831042 -0.176197
C30   C     C_R   0.988695 0.360079 0.805201 0.306319
C31   C     C_R   0.978604 0.332281 0.745176 -0.041420
H11   H     H_    0.863899 0.291783 0.725405 0.137555
C32   C     C_R   0.118410 0.354071 0.710310 0.201412
C33   C     C_R   0.534421 0.890314 0.613250 0.643412
N3    N     N_R   0.511962 0.838926 0.647753 -0.437324
C34   C     C_R   0.514909 0.757995 0.625306 0.675933
C35   C     C_R   0.533645 0.725730 0.565943 -0.035406
C36   C     C_R   0.558534 0.777380 0.529749 -0.077489
C37   C     C_R   0.567033 0.860851 0.553479 -0.103638
C38   C     C_R   0.527958 0.642912 0.542081 0.050119
C39   C     C_R   0.541939 0.611428 0.482982 0.010131
C40   C     C_R   0.566129 0.661893 0.446237 -0.038846
C41   C     C_R   0.575498 0.745055 0.469691 -0.042353
C42   C     C_R   0.601471 0.795700 0.433106 -0.076678
C43   C     C_R   0.615298 0.878277 0.456860 -0.096598
C44   C     C_R   0.603014 0.911259 0.516279 0.344890
C45   C     C_R   0.581727 0.631083 0.386470 0.572504
N4    N     N_R   0.607424 0.681192 0.351201 -0.448082
C46   C     C_R   0.617542 0.762290 0.373491 0.577128
O15   O     O_2   0.518859 0.969346 0.636622 -0.462855
O16   O     O_2   0.498522 0.708765 0.660365 -0.484455
H12   H     H_    0.512217 0.602018 0.569060 0.178064
H13   H     H_    0.535023 0.547286 0.466269 0.147864
O17   O     O_2   0.569487 0.551620 0.363808 -0.527605
O18   O     O_2   0.645055 0.810551 0.338242 -0.539135
H14   H     H_    0.642147 0.917766 0.429353 0.168483
C47   C     C_R   0.483048 0.663884 0.252267 0.031278
H15   H     H_    0.362335 0.702273 0.268784 0.095649
C48   C     C_R   0.496013 0.630240 0.193250 -0.097837
H16   H     H_    0.385614 0.644988 0.165497 0.098025
C49   C     C_R   0.649560 0.579192 0.170020 -0.159429
C50   C     C_R   0.791068 0.561431 0.208321 -0.086554
C51   C     C_R   0.777719 0.597313 0.267558 -0.039875
H17   H     H_    0.884680 0.584130 0.296966 0.129812
C52   C     C_R   0.623841 0.647978 0.289931 0.249819
C53   C     C_R   0.314837 0.861418 0.737027 0.386263
C54   C     C_R   0.305350 0.888427 0.797306 -0.151226
H18   H     H_    0.171939 0.881464 0.818656 0.144253
C55   C     C_R   0.466241 0.923838 0.830127 -0.161051
C56   C     C_R   0.637556 0.932887 0.801605 -0.099128
H19   H     H_    0.763875 0.960314 0.825457 0.116803
C57   C     C_R   0.648168 0.907203 0.741915 0.000901
H20   H     H_    0.782041 0.914747 0.721054 0.154486
C58   C     C_R   0.489502 0.870496 0.709015 0.192800
C59   C     C_2   0.642845 0.269788 0.001888 -0.198348
H21   H     H_    0.777550 0.239039 0.005233 0.109385
C60   C     C_2   0.472680 0.230179 0.997944 -0.238414
H22   H     H_    0.337991 0.260931 0.994573 0.115178
O19   O     O_R   0.618210 0.960470 0.922400 -0.557736
O20   O     O_R   0.291310 0.111960 0.995450 -0.559665
O21   O     O_R   0.124210 0.039530 0.077580 -0.565695
C61   C     C_R   0.461050 0.145087 0.998403 0.859806
O22   O     O_R   0.288310 0.965490 0.917650 -0.546745
O23   O     O_R   0.121180 0.892010 0.999220 -0.553031
C62   C     C_R   0.456686 0.951378 0.893802 0.861536
O24   O     O_R   0.621230 0.107990 0.000760 -0.560390
O25   O     O_3   0.455770 0.976060 0.026840 -0.272026
V3    V     V_3+5 0.179680 0.004440 0.995020 1.171375
O26   O     O_R   0.791670 0.888040 0.004570 -0.535017
C63   C     C_R   0.961469 0.854495 0.000176 0.892507
O27   O     O_R   0.794680 0.034510 0.082370 -0.567782
C64   C     C_R   0.964499 0.049723 0.106134 0.825152
V4    V     V_3+5 0.680070 0.995560 0.005010 1.169742
O28   O     O_3   0.953840 0.023940 0.973160 -0.273286
C65   C     C_2   0.308285 0.753259 0.959854 0.914331
O29   O     O_2   0.471778 0.752387 0.979309 -0.603042
O30   O     O_R   0.277569 0.776682 0.909096 -0.737024
H23   H     H_    0.402626 0.789497 0.891797 0.302076
N5    N     N_R   0.851472 0.330235 0.838997 0.092802
O31   O     O_R   0.911512 0.300409 0.880477 -0.368394
O32   O     O_R   0.672143 0.319518 0.822097 -0.360661
N6    N     N_R   0.640519 0.995050 0.537734 0.112510
O33   O     O_R   0.782126 0.018648 0.573952 -0.314238
O34   O     O_R   0.566001 0.045373 0.511642 -0.386261
C66   C     C_2   0.948612 0.502969 0.189347 0.899548
O35   O     O_2   0.919111 0.441879 0.151754 -0.601907
O36   O     O_R   0.129330 0.516174 0.216556 -0.753504
H24   H     H_    0.224896 0.472140 0.200282 0.324655
N7    N     N_R   0.147254 0.825045 0.705160 0.093647
O37   O     O_R   0.113001 0.832665 0.653645 -0.365011
O38   O     O_R   0.021136 0.788168 0.728930 -0.332056
N8    N     N_R   0.037142 0.482983 0.537698 0.125423
O39   O     O_R   0.191108 0.517362 0.564135 -0.318903
O40   O     O_R   0.911148 0.526154 0.518839 -0.370613

loop_
_geom_bond_atom_site_label_1
_geom_bond_atom_site_label_2
_geom_bond_distance
_ccdc_geom_bond_type
C38   H12   1.082233 S    
C28   H10   1.083195 S    
O25   V4    1.705430 S    
C43   C44   1.405524 A    
C27   C28   1.399847 A    
O2    C1    1.300373 A    
C54   H18   1.083261 S    
C1    O6    1.298401 A    
C55   C56   1.405300 A    
C50   C51   1.410476 A    
O36   H24   1.013942 S    
C27   H9    1.082852 S    
N7    O38   1.301457 A    
C12   C13   1.403450 A    
C15   C16   1.410718 A    
V3    O28   1.705973 S    
C33   C37   1.422541 A    
C14   C15   1.405699 A    
C60   C61   1.479412 S    
N8    O40   1.300507 A    
C6    H1    1.086176 S    
C12   N8    1.434562 S    
O5    C3    1.295813 A    
C16   C17   1.404478 A    
C21   C26   1.403209 A    
C65   O30   1.397654 S    
C7    C11   1.406251 A    
C46   O18   1.349063 S    
C13   H2    1.083629 S    
O25   V3    2.155387 S    
N2    C20   1.371016 A    
C9    C12   1.423504 A    
O26   V4    2.014625 S    
C10   C15   1.419298 A    
O19   C62   1.296345 A    
O21   V3    1.970817 S    
O24   V4    2.017876 S    
O8    V2    1.974489 S    
C5    C65   1.486100 S    
C17   C18   1.396037 A    
C38   C39   1.395643 A    
C25   C26   1.402104 A    
C9    C10   1.415998 A    
O22   V3    1.973259 S    
O1    V2    2.017512 S    
O7    V1    2.155388 S    
C61   O24   1.289849 A    
C43   H14   1.083572 S    
N1    C32   1.446230 S    
C11   C18   1.406337 A    
O27   V4    1.974581 S    
C36   C37   1.415667 A    
C31   H11   1.083318 S    
C2    C59   1.479186 S    
O9    C4    1.298984 A    
C4    C5    1.478908 S    
C53   C54   1.412182 A    
C47   C52   1.399878 A    
N3    C58   1.449800 S    
O4    V1    2.014233 S    
C5    C6    1.364214 D    
C22   C23   1.409684 A    
N8    O39   1.300710 A    
C31   C32   1.400876 A    
C47   C48   1.398764 A    
C23   C24   1.409897 A    
C65   O29   1.222482 D    
C19   N2    1.370901 A    
N4    C46   1.373388 A    
O22   C62   1.300688 A    
C51   H17   1.083847 S    
O4    C2    1.301068 A    
C50   C66   1.483755 S    
C30   C31   1.406257 A    
C22   H6    1.083064 S    
C8    O12   1.347791 S    
N6    O34   1.301138 A    
C45   N4    1.372748 A    
N5    O32   1.301352 A    
C33   N3    1.373211 A    
N4    C52   1.449370 S    
C51   C52   1.403333 A    
C36   C41   1.420693 A    
O27   C64   1.300084 A    
C35   C38   1.405141 A    
C57   C58   1.402858 A    
C25   H8    1.083143 S    
C59   C60   1.353657 D    
C37   C44   1.424577 A    
C19   O13   1.349322 S    
C10   C11   1.410670 A    
C21   C22   1.401797 A    
V4    O28   2.154824 S    
C40   C41   1.410031 A    
O3    C4    1.290165 A    
C3    C29   1.490214 S    
C16   C20   1.409813 A    
C23   C64   1.489942 S    
C14   C19   1.410136 A    
C35   C36   1.410510 A    
O6    V2    1.971746 S    
C56   C57   1.397709 A    
C28   C29   1.408105 A    
C21   H5    1.083094 S    
C66   O35   1.222903 D    
C34   O16   1.349461 S    
O19   V4    1.972819 S    
C27   C32   1.401491 A    
N5    O31   1.301148 A    
O2    V1    1.973207 S    
C44   N6    1.435568 S    
O23   V3    2.017280 S    
C1    C49   1.496280 S    
C60   H22   1.086558 S    
C53   N7    1.439109 S    
C6    C63   1.480833 S    
C24   H7    1.083108 S    
C17   H3    1.083246 S    
O1    C2    1.289756 A    
C33   O15   1.347613 S    
C42   C43   1.403399 A    
C47   H15   1.082868 S    
O5    V1    1.971036 S    
C42   C46   1.413059 A    
O8    C3    1.300275 A    
C54   C55   1.407273 A    
C45   O17   1.349326 S    
N7    O37   1.301331 A    
N2    C26   1.443296 S    
C34   C35   1.406347 A    
O20   V3    2.014358 S    
O9    V2    2.014565 S    
C20   O14   1.349129 S    
O7    V2    1.705703 S    
C41   C42   1.405156 A    
O3    V1    2.017320 S    
V1    O10   1.705920 S    
O26   C63   1.304866 A    
O23   C63   1.285851 A    
C29   C30   1.421901 A    
O30   H23   1.013286 S    
C24   C25   1.399903 A    
C57   H20   1.082367 S    
O20   C61   1.301114 A    
N6    O33   1.301301 A    
C39   C40   1.404168 A    
C39   H13   1.083215 S    
N3    C34   1.369961 A    
C7    O11   1.349447 S    
C30   N5    1.435946 S    
C7    N1    1.370107 A    
C53   C58   1.418819 A    
C48   H16   1.083288 S    
C56   H19   1.083142 S    
C59   H21   1.086511 S    
C66   O36   1.398523 S    
C48   C49   1.410062 A    
C18   H4    1.083207 S    
C8    C9    1.420409 A    
C40   C45   1.409993 A    
C49   C50   1.425821 A    
N1    C8    1.371658 A    
C55   C62   1.490429 S    
V2    O10   2.154821 S    
O21   C64   1.296801 A    
C13   C14   1.402098 A    
