data_mof_unit_27124.cif
_audit_creation_date              2012-12-10T19:12:17-0500
_audit_creation_method            fapswitch 2.2
_symmetry_space_group_name_H-M    P1
_symmetry_Int_Tables_number       1
_space_group_crystal_system       triclinic
_cell_length_a                    7.806207
_cell_length_b                    9.088597
_cell_length_c                    17.117366
_cell_angle_alpha                 89.69688
_cell_angle_beta                  94.076566
_cell_angle_gamma                 90.063238
_cell_volume                      1211.34394009

loop_
_atom_site_label
_atom_site_type_symbol
_atom_type_description
_atom_site_fract_x
_atom_site_fract_y
_atom_site_fract_z
_atom_type_partial_charge
C1    C     C_R   0.499894 0.220106 0.499880 0.843529
C2    C     C_R   0.500065 0.779877 0.499986 0.823119
C3    C     C_R   0.521992 0.502435 0.651429 0.831876
C4    C     C_R   0.478469 0.503549 0.348932 0.818730
C5    C     C_R   0.536446 0.502994 0.737780 -0.166514
C6    C     C_R   0.464578 0.509486 0.263316 -0.159885
C7    C     C_R   0.393917 0.541199 0.777916 -0.319515
C8    C     C_R   0.587780 0.437271 0.222473 -0.309889
C9    C     C_R   0.402162 0.537786 0.858981 -0.215408
C10   C     C_R   0.575122 0.436677 0.141384 -0.207618
C11   C     C_R   0.546309 0.477391 0.901829 0.285627
C12   C     C_R   0.437970 0.508774 0.098849 0.281670
C13   C     C_R   0.689353 0.433131 0.861707 0.026981
C14   C     C_R   0.310892 0.580666 0.139612 0.041820
C15   C     C_R   0.691414 0.466101 0.781039 0.418325
C16   C     C_R   0.328564 0.585753 0.222169 0.398508
C17   C     C_1   0.499833 0.065374 0.499807 -0.182606
C18   C     C_1   0.500012 0.934573 0.499847 -0.187264
Cu1   Cu    Cu3+1 0.669080 0.500010 0.500000 1.000995
Cu2   Cu    Cu3+1 0.330920 0.499990 0.500000 1.000628
H1    H     H_    0.693235 0.379110 0.253466 0.187647
H2    H     H_    0.278165 0.579612 0.746634 0.195135
H3    H     H_    0.672868 0.378391 0.112123 0.173666
H4    H     H_    0.293581 0.579471 0.887767 0.168159
N1    N     N_1   0.076820 0.499970 0.500010 -0.053552
N2    N     N_1   0.923180 0.500030 0.499990 -0.050236
N3    N     N_2   0.555308 0.466740 0.984922 -0.253190
N4    N     N_2   0.425852 0.513264 0.015632 -0.256687
O1    O     O_R   0.642760 0.288400 0.500000 -0.572934
O2    O     O_R   0.357240 0.711600 0.500000 -0.582584
O3    O     O_R   0.357190 0.288380 0.500000 -0.577263
O4    O     O_R   0.642810 0.711620 0.500000 -0.593530
O5    O     O_R   0.658410 0.498660 0.613920 -0.541708
O6    O     O_R   0.341590 0.501340 0.386080 -0.540208
O7    O     O_R   0.372840 0.498650 0.613930 -0.598304
O8    O     O_R   0.627160 0.501350 0.386070 -0.587151
C19   C     C_3   0.829286 0.338131 0.902368 -0.362663
C20   C     C_3   0.002171 0.415122 0.913606 -0.813164
H5    H     H_    0.068406 0.409949 0.858582 0.278254
H6    H     H_    0.985861 0.531074 0.931679 0.243092
H7    H     H_    0.084752 0.357156 0.959436 0.246286
H8    H     H_    0.792769 0.300297 0.960694 0.203453
H9    H     H_    0.843987 0.236680 0.867486 0.202810
C21   C     C_3   0.157342 0.654266 0.096045 -0.376189
C22   C     C_3   0.991886 0.568857 0.106766 -0.782127
H10   H     H_    0.006155 0.452453 0.089016 0.242731
H11   H     H_    0.958544 0.571769 0.168681 0.287535
H12   H     H_    0.884430 0.619024 0.069846 0.242365
H13   H     H_    0.143256 0.768514 0.117239 0.205089
H14   H     H_    0.173590 0.663868 0.032387 0.200122
O9    O     O_3   0.845647 0.476217 0.746289 -0.558518
C23   C     C_3   0.902863 0.625192 0.750860 0.059019
H15   H     H_    0.005234 0.635225 0.798774 0.139537
H16   H     H_    0.801502 0.707126 0.763168 0.118488
C24   C     C_3   0.977032 0.672042 0.674644 -0.730657
H17   H     H_    0.052431 0.581010 0.651412 0.270736
H18   H     H_    0.872828 0.703718 0.630444 0.252159
H19   H     H_    0.061906 0.769173 0.685052 0.181533
O10   O     O_3   0.209316 0.662019 0.262390 -0.564893
C25   C     C_3   0.276551 0.802534 0.282131 0.066650
H20   H     H_    0.305698 0.865846 0.228780 0.121323
H21   H     H_    0.395704 0.793888 0.321636 0.124804
C26   C     C_3   0.144526 0.888083 0.324711 -0.734084
H22   H     H_    0.113731 0.828042 0.378643 0.264351
H23   H     H_    0.196555 0.998255 0.341270 0.195401
H24   H     H_    0.025155 0.902189 0.286084 0.236187

loop_
_geom_bond_atom_site_label_1
_geom_bond_atom_site_label_2
_ccdc_geom_bond_type
C21   H13   S    
C19   H9    S    
C24   H17   S    
C4    O8    A    
C9    H4    S    
C19   C20   S    
C3    O7    A    
C10   H3    S    
C2    C18   S    
C7    H2    S    
C11   C13   A    
C4    O6    A    
C14   C21   S    
C13   C19   S    
Cu1   Cu2   S    
C23   C24   S    
C11   N3    S    
C2    O2    A    
Cu2   O6    S    
C19   H8    S    
C26   H23   S    
C17   C18   T    
C26   H24   S    
C5    C7    A    
O10   C25   S    
C24   H18   S    
Cu2   O2    S    
C22   H10   S    
C21   C22   S    
C20   H6    S    
C9    C11   A    
C10   C12   A    
C12   N4    S    
C25   C26   S    
Cu1   O4    S    
C2    O4    A    
C1    O1    A    
C12   C14   A    
C8    H1    S    
C15   O9    S    
Cu1   O8    S    
C22   H11   S    
C13   C15   A    
C20   H5    S    
C14   C16   A    
C5    C15   A    
C4    C6    S    
Cu2   N1    S    
C3    O5    A    
C6    C16   A    
O9    C23   S    
Cu1   O1    S    
C1    O3    A    
C23   H15   S    
C20   H7    S    
C25   H21   S    
Cu1   O5    S    
C24   H19   S    
C21   H14   S    
N3    N4    D    
C7    C9    A    
Cu1   N2    S    
C6    C8    A    
C22   H12   S    
N1    N2    T    
Cu2   O7    S    
C1    C17   S    
Cu2   O3    S    
C8    C10   A    
C26   H22   S    
C23   H16   S    
C25   H20   S    
C3    C5    S    
C16   O10   S    
