data_mof_unit_31892.cif
_audit_creation_date              2013-03-05T16:04:39-0500
_audit_creation_method            fapswitch 2.2
_symmetry_space_group_name_H-M    P1
_symmetry_Int_Tables_number       1
_space_group_crystal_system       triclinic
_cell_length_a                    9.636454
_cell_length_b                    10.768748
_cell_length_c                    15.468216
_cell_angle_alpha                 87.888966
_cell_angle_beta                  73.77859
_cell_angle_gamma                 89.417255
_cell_volume                      1540.22701264

loop_
_atom_site_label
_atom_site_type_symbol
_atom_site_description
_atom_site_fract_x
_atom_site_fract_y
_atom_site_fract_z
_atom_type_partial_charge
O1    O     O_R   0.118740 0.319660 0.500000 -0.619694
O2    O     O_R   0.881260 0.680340 0.500000 -0.627259
O3    O     O_R   0.881170 0.319630 0.500010 -0.509180
O4    O     O_R   0.118830 0.680370 0.499990 -0.510250
C1    C     C_R   0.000717 0.262709 0.499200 0.838172
C2    C     C_R   0.999352 0.737284 0.500649 0.822103
O5    O     O_R   0.055570 0.500030 0.629830 -0.612298
O6    O     O_R   0.944430 0.499970 0.370170 -0.602833
O7    O     O_R   0.818000 0.500000 0.629840 -0.511985
O8    O     O_R   0.182000 0.500000 0.370160 -0.540587
C3    C     C_R   0.917189 0.502553 0.672420 0.813733
C4    C     C_R   0.082493 0.503618 0.327996 0.825305
Cu1   Cu    Cu3+1 0.140660 0.500020 0.500000 0.993916
Cu2   Cu    Cu3+1 0.859340 0.499980 0.500000 1.003286
C5    C     C_R   0.870603 0.508880 0.772011 -0.037372
C6    C     C_R   0.131057 0.534262 0.231063 -0.006325
C7    C     C_R   0.925610 0.469565 0.914043 -0.206399
C8    C     C_R   0.118142 0.677483 0.109699 -0.221820
C9    C     C_R   0.969423 0.477815 0.820558 -0.237102
C10   C     C_R   0.056204 0.624086 0.194598 -0.248770
C11   C     C_R   0.727550 0.543089 0.818829 0.118646
C12   C     C_R   0.267831 0.494114 0.180624 0.139368
C13   C     C_R   0.685971 0.546631 0.914760 0.024720
C14   C     C_R   0.341354 0.561426 0.100083 0.050771
C15   C     C_R   0.782860 0.498092 0.962007 0.086507
C16   C     C_R   0.261279 0.649283 0.062155 0.082788
C17   C     C_R   0.547089 0.587657 0.965575 -0.002347
C18   C     C_R   0.490971 0.544772 0.055892 0.009968
C19   C     C_R   0.589306 0.498528 0.101443 -0.158197
C20   C     C_R   0.468029 0.678175 0.931619 -0.195551
C21   C     C_R   0.733823 0.477668 0.056333 0.125235
C22   C     C_R   0.327611 0.709585 0.978500 0.144345
H1    H     H_    0.950803 0.655747 0.232586 0.160821
H2    H     H_    0.079677 0.452897 0.786091 0.170050
H3    H     H_    0.004232 0.437935 0.948023 0.149690
H4    H     H_    0.054798 0.745128 0.083795 0.153719
H5    H     H_    0.557866 0.485308 0.173643 0.188636
H6    H     H_    0.517381 0.731377 0.870592 0.168222
C23   C     C_R   0.937894 0.067050 0.440325 0.201664
C24   C     C_R   0.062523 0.932894 0.559268 0.196123
C25   C     C_R   0.936975 0.937883 0.442525 -0.277079
C26   C     C_R   0.063218 0.062037 0.557174 -0.276619
H7    H     H_    0.891387 0.889891 0.396510 0.143277
H8    H     H_    0.108685 0.109959 0.603259 0.145236
C27   C     C_R   0.998797 0.871167 0.501562 -0.011917
C28   C     C_R   0.001369 0.128791 0.498167 -0.014065
C29   C     C_R   0.554448 0.410585 0.547539 0.435035
C30   C     C_R   0.445912 0.588161 0.451321 0.424463
C31   C     C_R   0.407053 0.410532 0.547867 0.096175
C32   C     C_R   0.592491 0.589927 0.452676 0.102168
N1    N     N_R   0.352080 0.500030 0.499980 -0.277941
N2    N     N_R   0.647920 0.499970 0.500020 -0.275811
N3    N     N_3   0.826329 0.429830 0.107909 -0.587194
H9    H     H_    0.914136 0.489831 0.097989 0.233164
H10   H     H_    0.864413 0.342653 0.084286 0.223842
N4    N     N_3   0.254898 0.802646 0.938655 -0.588334
H11   H     H_    0.224665 0.875428 0.982998 0.227776
H12   H     H_    0.162224 0.763339 0.928427 0.219704
N5    N     N_3   0.316877 0.374824 0.205518 -0.609671
H13   H     H_    0.381098 0.330566 0.149218 0.229337
H14   H     H_    0.372773 0.384579 0.253763 0.245450
N6    N     N_3   0.622233 0.555727 0.768974 -0.531004
H15   H     H_    0.521498 0.519656 0.804850 0.250481
H16   H     H_    0.617359 0.647519 0.745797 0.210893
N7    N     N_3   0.878348 0.135277 0.377767 -0.557519
H17   H     H_    0.933294 0.108802 0.312763 0.213514
H18   H     H_    0.770132 0.109200 0.390203 0.256607
N8    N     N_3   0.122724 0.864655 0.621516 -0.566659
H19   H     H_    0.068490 0.891227 0.686620 0.210713
H20   H     H_    0.231104 0.890518 0.608550 0.256270
N9    N     N_R   0.604801 0.312493 0.595888 0.167370
O9    O     O_R   0.598563 0.326092 0.680012 -0.346650
O10   O     O_R   0.614283 0.200710 0.565555 -0.367277
N10   N     N_R   0.397473 0.681014 0.397962 0.167042
O11   O     O_R   0.410842 0.660687 0.313684 -0.376754
O12   O     O_R   0.384147 0.795049 0.424148 -0.357920
N11   N     N_3   0.320288 0.310357 0.596998 -0.533302
H21   H     H_    0.219954 0.341458 0.634562 0.253674
H22   H     H_    0.311650 0.243361 0.551781 0.253436
N12   N     N_3   0.678231 0.691529 0.405178 -0.531099
H23   H     H_    0.779968 0.661354 0.369640 0.251817
H24   H     H_    0.684089 0.757800 0.451566 0.249548

loop_
_geom_bond_atom_site_label_1
_geom_bond_atom_site_label_2
_geom_bond_distance
_ccdc_geom_bond_type
C15   C21   1.412020 A    
C16   C22   1.410353 A    
C2    C27   1.442283 S    
C25   H7    1.083119 S    
N3    H10   1.045402 S    
C8    C16   1.405996 A    
C23   C25   1.390185 A    
N11   H21   1.038500 S    
O5    C3    1.312530 A    
N10   O12   1.301138 A    
O1    C1    1.300917 A    
C18   C19   1.407118 A    
C14   C16   1.425452 A    
N4    H11   1.045447 S    
C20   H6    1.077201 S    
C26   C28   1.397115 A    
O4    Cu1   1.951374 S    
N6    H16   1.044120 S    
Cu1   N1    2.037252 S    
C3    C5    1.483240 S    
C30   N1    1.367263 A    
Cu2   N2    2.037253 S    
C4    C6    1.466530 S    
C31   N11   1.429441 S    
N8    H19   1.045609 S    
N7    H18   1.045583 S    
C32   N2    1.384123 A    
C13   C17   1.424771 A    
C6    C10   1.395361 A    
C24   C26   1.389943 A    
N5    H13   1.044996 S    
Cu1   Cu2   2.710933 S    
C17   C20   1.406141 A    
C23   N7    1.433429 S    
O2    C2    1.300841 A    
C26   H8    1.082875 S    
N11   H22   1.042861 S    
C24   C27   1.404992 A    
N5    H14   1.043828 S    
N10   O11   1.300217 A    
C30   N10   1.429656 S    
C29   C31   1.418964 A    
C12   N5    1.440406 S    
N9    O10   1.301145 A    
C31   N1    1.383631 A    
N3    H9    1.043210 S    
C9    H2    1.083208 S    
C6    C12   1.404114 A    
C5    C9    1.399000 A    
O7    Cu2   1.935295 S    
N6    H15   1.044980 S    
O5    Cu1   1.945604 S    
O6    C4    1.308220 A    
C21   N3    1.433242 S    
O7    C3    1.304524 A    
C29   N9    1.429925 S    
C11   N6    1.438723 S    
O3    Cu2   1.951374 S    
O8    C4    1.301206 A    
C23   C28   1.405189 A    
C10   H1    1.080475 S    
O4    C2    1.296484 A    
C11   C13   1.426742 A    
C12   C14   1.424869 A    
O1    Cu1   1.955839 S    
O6    Cu2   1.945604 S    
C14   C18   1.425237 A    
N12   H23   1.036578 S    
O3    C1    1.296596 A    
O8    Cu1   1.935296 S    
C32   N12   1.428141 S    
C29   N2    1.368852 A    
C1    C28   1.442739 S    
C7    C15   1.405379 A    
N9    O9    1.299413 A    
C19   C21   1.392498 A    
C20   C22   1.389896 A    
C30   C32   1.418821 A    
C7    C9    1.388302 A    
N12   H24   1.043333 S    
N4    H12   1.045601 S    
C8    C10   1.387413 A    
C13   C15   1.422036 A    
O2    Cu2   1.955839 S    
C5    C11   1.418466 A    
N8    H20   1.045629 S    
N7    H17   1.045597 S    
C24   N8    1.433496 S    
C19   H5    1.076779 S    
C17   C18   1.411694 A    
C25   C27   1.397104 A    
C7    H3    1.081822 S    
C8    H4    1.081618 S    
C22   N4    1.434102 S    
