data_mof_unit_26465.cif
_audit_creation_date              2012-12-11T17:41:34-0500
_audit_creation_method            fapswitch 2.2
_symmetry_space_group_name_H-M    P1
_symmetry_Int_Tables_number       1
_space_group_crystal_system       triclinic
_cell_length_a                    15.408341
_cell_length_b                    14.926014
_cell_length_c                    15.078699
_cell_angle_alpha                 109.833922
_cell_angle_beta                  120.991028
_cell_angle_gamma                 59.355997
_cell_volume                      2543.75492522

loop_
_atom_site_label
_atom_site_type_symbol
_atom_type_description
_atom_site_fract_x
_atom_site_fract_y
_atom_site_fract_z
_atom_type_partial_charge
C1    C     C_R   0.758909 0.990454 0.790740 -0.191503
C2    C     C_R   0.349051 0.322388 0.113868 -0.111126
C3    C     C_R   0.589664 0.685858 0.807595 -0.128243
C4    C     C_R   0.409214 0.216175 0.091077 -0.138862
C5    C     C_R   0.631068 0.736147 0.907965 0.128166
C6    C     C_R   0.355222 0.148870 0.037309 0.136694
C7    C     C_R   0.743870 0.687519 0.975646 -0.174700
C8    C     C_R   0.239906 0.189301 0.004922 -0.175376
C9    C     C_R   0.813902 0.591232 0.943070 -0.107826
C10   C     C_R   0.180381 0.295178 0.030106 -0.117196
C11   C     C_R   0.772126 0.542564 0.842932 -0.100906
C12   C     C_R   0.197524 0.060748 0.226952 -0.195086
C13   C     C_R   0.234960 0.361723 0.084588 -0.102864
C14   C     C_R   0.557847 0.859310 0.038649 -0.282407
C15   C     C_R   0.413863 0.018513 0.907852 -0.247014
C16   C     C_R   0.242157 0.290654 0.489903 -0.192050
C17   C     C_R   0.801726 0.726657 0.560457 -0.199896
C18   C     C_R   0.491456 0.958959 0.070993 0.089498
C19   C     C_R   0.485877 0.922375 0.877833 0.058837
C20   C     C_R   0.417674 0.038938 0.004712 0.025959
C21   C     C_R   0.557172 0.840037 0.941294 0.051889
C22   C     C_2   0.144716 0.400532 0.609747 -0.191522
C23   C     C_R   0.208226 0.301615 0.563972 -0.046361
C24   C     C_2   0.982523 0.655545 0.543598 -0.200989
C25   C     C_2   0.135213 0.491616 0.601416 -0.099747
C26   C     C_2   0.042256 0.586763 0.613289 -0.093550
C27   C     C_2   0.857870 0.110443 0.900830 -0.192014
C28   C     C_2   0.016045 0.044170 0.155005 -0.203115
C29   C     C_R   0.151101 0.756629 0.442479 -0.051405
C30   C     C_R   0.809309 0.117280 0.356124 -0.066826
C31   C     C_R   0.257836 0.683630 0.451281 -0.135560
C32   C     C_R   0.707976 0.203960 0.344694 -0.161178
C33   C     C_R   0.279577 0.641973 0.362484 0.091350
C34   C     C_R   0.866949 0.728774 0.524277 -0.052500
C35   C     C_R   0.703882 0.291358 0.419901 0.097220
C36   C     C_R   0.192727 0.672256 0.264703 -0.166588
C37   C     C_R   0.803346 0.290799 0.506123 -0.167435
C38   C     C_R   0.086034 0.745059 0.256258 -0.114542
C39   C     C_R   0.904486 0.203946 0.517206 -0.065754
C40   C     C_R   0.592702 0.213421 0.481698 -0.032938
C41   C     C_R   0.405088 0.770280 0.444222 -0.100528
C42   C     C_R   0.065210 0.787112 0.345033 -0.086013
C43   C     C_R   0.907422 0.117178 0.442440 -0.057176
C44   C     C_R   0.396258 0.458487 0.348760 -0.247642
C45   C     C_R   0.501848 0.292871 0.422159 0.004921
C46   C     C_R   0.589028 0.483104 0.420991 -0.241563
C47   C     C_R   0.499186 0.373499 0.384371 0.064023
C48   C     C_R   0.489433 0.571902 0.413578 0.075407
C49   C     C_R   0.595995 0.382781 0.408149 0.028517
C50   C     C_R   0.389814 0.558473 0.370496 0.018571
C51   C     C_2   0.865446 0.102426 0.990442 -0.102855
C52   C     C_2   0.957784 0.114313 0.086665 -0.092380
C53   C     C_R   0.406460 0.974233 0.705329 0.620057
C54   C     C_R   0.591430 0.963455 0.266951 0.533665
C55   C     C_R   0.409472 0.285013 0.406964 -0.120553
C56   C     C_R   0.494678 0.674018 0.457598 0.006860
C57   C     C_R   0.589951 0.692927 0.524905 -0.115617
C58   C     C_R   0.589273 0.909864 0.787124 -0.190362
C59   C     C_R   0.405788 0.031096 0.194205 -0.170061
C60   C     C_R   0.239882 0.200832 0.580598 0.543956
C61   C     C_R   0.805615 0.819439 0.475218 0.574417
C62   C     C_R   0.762387 0.080744 0.701395 0.535555
C63   C     C_R   0.194278 0.973599 0.318125 0.490608
C64   C     C_R   0.794070 0.064440 0.801762 -0.029388
C65   C     C_R   0.131954 0.024312 0.228654 -0.014052
C66   C     C_R   0.495397 0.921802 0.788360 -0.175097
C67   C     C_R   0.497467 0.978639 0.173031 -0.141480
C68   C     C_R   0.660094 0.589822 0.775265 -0.111365
H1    H     H_    0.771964 0.956165 0.851492 0.124865
H2    H     H_    0.496961 0.186763 0.112009 0.100749
H3    H     H_    0.778116 0.724862 0.052946 0.110180
H4    H     H_    0.196570 0.138763 0.960688 0.113880
H5    H     H_    0.900790 0.554579 0.995331 0.103644
H6    H     H_    0.091751 0.325925 0.006168 0.102637
H7    H     H_    0.610998 0.797809 0.090010 0.141569
H8    H     H_    0.361473 0.082570 0.859376 0.160782
H9    H     H_    0.011350 0.590035 0.665258 0.127504
H10   H     H_    0.181647 0.494494 0.568194 0.131172
H11   H     H_    0.014283 0.649315 0.490933 0.122395
H12   H     H_    0.171112 0.115764 0.177214 0.117929
H13   H     H_    0.095095 0.400208 0.640894 0.117746
H14   H     H_    0.982586 0.843466 0.338306 0.121740
H15   H     H_    0.985683 0.049818 0.451556 0.146640
H16   H     H_    0.229380 0.352015 0.456131 0.127620
H17   H     H_    0.828001 0.675643 0.614171 0.121338
H18   H     H_    0.134799 0.789039 0.511085 0.105303
H19   H     H_    0.811749 0.050080 0.298185 0.121574
H20   H     H_    0.323437 0.659264 0.526886 0.108584
H21   H     H_    0.632641 0.202687 0.277991 0.111629
H22   H     H_    0.207649 0.638975 0.195309 0.110250
H23   H     H_    0.983263 0.991213 0.147647 0.116311
H24   H     H_    0.802424 0.356769 0.565570 0.106578
H25   H     H_    0.019361 0.768567 0.180855 0.099618
H26   H     H_    0.980568 0.203734 0.584049 0.138362
H27   H     H_    0.319452 0.451113 0.318749 0.130735
H28   H     H_    0.663198 0.491749 0.442169 0.128041
H29   H     H_    0.678115 0.186813 0.497833 0.182659
H30   H     H_    0.319738 0.788725 0.391969 0.169190
H31   H     H_    0.324363 0.322860 0.352519 0.098818
H32   H     H_    0.675480 0.636230 0.553677 0.097347
H33   H     H_    0.674620 0.865027 0.837077 0.135508
H34   H     H_    0.908609 0.141638 0.901973 0.118842
H35   H     H_    0.319433 0.056937 0.139735 0.135735
H36   H     H_    0.989556 0.166808 0.091319 0.126525
H37   H     H_    0.817333 0.069692 0.991720 0.129095
H38   H     H_    0.300117 0.938305 0.701116 0.299267
H39   H     H_    0.699662 0.920577 0.214920 0.296273
H40   H     H_    0.184199 0.237812 0.683077 0.292453
H41   H     H_    0.928377 0.824682 0.474643 0.294774
H42   H     H_    0.825572 0.178429 0.738123 0.302075
H43   H     H_    0.073565 0.967866 0.321463 0.300295
H44   H     H_    0.826566 0.468223 0.817786 0.099831
H45   H     H_    0.188637 0.443953 0.102863 0.099311
H46   H     H_    0.627763 0.552058 0.697699 0.117272
H47   H     H_    0.390707 0.374374 0.152887 0.124080
H48   H     H_    0.502886 0.720947 0.754280 0.109117
N1    N     N_R   0.705410 0.966550 0.689210 -0.073852
N2    N     N_R   0.556610 0.796750 0.548620 -0.045901
N3    N     N_R   0.556610 0.951620 0.703500 -0.075487
N4    N     N_R   0.443390 0.048380 0.296500 -0.070704
N5    N     N_R   0.294590 0.131500 0.522480 -0.072271
N6    N     N_R   0.705410 0.868500 0.477520 -0.087288
N7    N     N_R   0.705410 0.023370 0.632390 -0.077537
N8    N     N_R   0.294590 0.976630 0.367610 -0.080349
N9    N     N_R   0.294590 0.033450 0.310790 -0.072413
N10   N     N_R   0.294590 0.188320 0.465660 -0.077079
N11   N     N_R   0.705410 0.811680 0.534340 -0.077409
N12   N     N_R   0.556610 0.157790 0.497330 -0.049872
N13   N     N_R   0.443390 0.842210 0.502670 -0.040236
N14   N     N_R   0.443390 0.997080 0.657540 -0.077423
N15   N     N_R   0.556610 0.002920 0.342460 -0.075388
N16   N     N_R   0.443390 0.203250 0.451380 -0.051053
Ni1   Ni    Ni4+2 0.629830 0.882720 0.617850 0.184653
Ni2   Ni    Ni4+2 0.370170 0.117280 0.382150 0.184547
Ni3   Ni    Ni4+2 0.629830 0.013030 0.487540 0.293686
Ni4   Ni    Ni4+2 0.370170 0.986970 0.512460 0.312478
O1    O     O_3   0.302627 0.973847 0.658141 -0.703744
O2    O     O_3   0.698614 0.932535 0.283093 -0.738187
O3    O     O_3   0.219847 0.173477 0.644355 -0.744155
O4    O     O_3   0.849609 0.871166 0.461062 -0.711028
O5    O     O_3   0.786507 0.141537 0.674024 -0.787830
O6    O     O_3   0.153107 0.952217 0.367011 -0.756959

loop_
_geom_bond_atom_site_label_1
_geom_bond_atom_site_label_2
_ccdc_geom_bond_type
N9    Ni2   S    
C41   N13   A    
C63   C65   A    
C59   N4    A    
C29   C42   A    
N4    N15   A    
C43   H15   S    
C14   C18   A    
C3    C68   A    
C42   H14   S    
N1    Ni1   S    
C33   C36   A    
C4    H2    S    
C63   N8    A    
C47   C49   A    
C15   C19   A    
C54   N15   A    
C46   C49   A    
N3    Ni1   S    
H41   O4    S    
C17   H17   S    
C14   C21   A    
C35   C37   A    
C24   C26   D    
C38   C42   A    
N15   Ni3   S    
C3    H48   S    
C7    H3    S    
C36   H22   S    
C40   N12   A    
C16   H16   S    
N3    N14   A    
C56   C57   A    
C19   C66   S    
C48   C56   S    
N6    N11   A    
C2    C13   A    
C62   C64   A    
C33   C50   S    
H43   O6    S    
C59   C67   A    
C58   C66   A    
C22   C25   D    
C35   C49   S    
C31   C33   A    
N4    Ni2   S    
C44   C47   A    
C51   H37   S    
C48   C50   A    
C15   H8    S    
C23   C60   A    
C9    H5    S    
N12   N16   A    
C62   N7    A    
C27   C51   D    
C45   C47   S    
C40   C45   A    
C37   C39   A    
C46   C48   A    
C8    H4    S    
C26   H9    S    
N8    Ni4   S    
C51   C52   S    
C22   H13   S    
C4    C6    A    
N12   Ni3   S    
C40   H29   S    
C5    C7    A    
C17   N11   A    
H38   O1    S    
C39   C43   A    
C12   N9    A    
C25   C26   S    
C57   H32   S    
C34   C61   A    
C24   C34   S    
C25   H10   S    
N7    Ni3   S    
C61   N6    A    
H42   O5    S    
C2    C4    A    
C32   C35   A    
C41   C56   A    
N13   Ni4   S    
C2    H47   S    
C24   H11   S    
C32   H21   S    
C15   C20   A    
C46   H28   S    
C58   H33   S    
C1    N1    A    
C53   C66   A    
C9    C11   A    
C45   C55   A    
C29   H18   S    
N2    Ni1   S    
C8    C10   A    
C39   H26   S    
C28   C52   D    
C53   O1    S    
C30   C43   A    
C17   C34   A    
C62   O5    S    
C1    C64   A    
C11   C68   A    
C44   C50   A    
C7    C9    A    
C52   H36   S    
C31   H20   S    
C37   H24   S    
C19   C21   A    
C11   H44   S    
C22   C23   S    
N14   Ni4   S    
N11   Ni1   S    
C3    C5    A    
C10   C13   A    
H40   O3    S    
C6    C8    A    
C61   O4    S    
C54   C67   A    
C16   C23   A    
C6    C20   S    
C12   C65   A    
C27   H34   S    
C59   H35   S    
C14   H7    S    
H39   O2    S    
C36   C38   A    
C28   C65   S    
C18   C67   S    
N5    N10   A    
C29   C31   A    
C44   H27   S    
C30   C32   A    
C10   H6    S    
C54   O2    S    
C12   H12   S    
C38   H25   S    
C58   N3    A    
C63   O6    S    
C28   H23   S    
C18   C20   A    
N5    Ni4   S    
N1    N7    A    
C60   N5    A    
C1    H1    S    
N6    Ni3   S    
C27   C64   S    
C60   O3    S    
C5    C21   S    
N10   Ni2   S    
N16   Ni2   S    
C55   N16   A    
C55   H31   S    
N2    N13   A    
C41   H30   S    
N8    N9    A    
C53   N14   A    
C30   H19   S    
C16   N10   A    
C13   H45   S    
C68   H46   S    
C57   N2    A    
