data_mof_unit_46657.cif
_audit_creation_date              2013-03-05T16:06:47-0500
_audit_creation_method            fapswitch 2.2
_symmetry_space_group_name_H-M    P1
_symmetry_Int_Tables_number       1
_space_group_crystal_system       triclinic
_cell_length_a                    10.978336
_cell_length_b                    9.651236
_cell_length_c                    19.584964
_cell_angle_alpha                 91.438886
_cell_angle_beta                  96.60566
_cell_angle_gamma                 92.851375
_cell_volume                      2057.7929247

loop_
_atom_site_label
_atom_site_type_symbol
_atom_site_description
_atom_site_fract_x
_atom_site_fract_y
_atom_site_fract_z
_atom_type_partial_charge
O1    O     O_R   0.319640 0.618740 0.500000 -0.559333
O2    O     O_R   0.680360 0.381260 0.500000 -0.559358
O3    O     O_R   0.680360 0.618740 0.500000 -0.562138
O4    O     O_R   0.319640 0.381260 0.500000 -0.562237
C1    C     C_R   0.871381 0.506914 0.496269 -0.375014
C2    C     C_R   0.128619 0.493093 0.503730 -0.375082
C3    C     C_R   0.262479 0.497043 0.500990 0.878428
C4    C     C_R   0.737521 0.502958 0.499009 0.878379
O5    O     O_R   0.500020 0.618830 0.400190 -0.600029
O6    O     O_R   0.499980 0.381170 0.599810 -0.600030
O7    O     O_R   0.499980 0.618830 0.599810 -0.590251
O8    O     O_R   0.500020 0.381170 0.400190 -0.590247
C5    C     C_R   0.509479 0.498795 0.368202 0.799260
C6    C     C_R   0.490522 0.501205 0.631799 0.799187
Cu1   Cu    Cu3+1 0.500000 0.640660 0.500000 0.980254
Cu2   Cu    Cu3+1 0.500000 0.359340 0.500000 0.980209
C7    C     C_R   0.050413 0.385086 0.471109 0.245537
C8    C     C_R   0.949585 0.614931 0.528884 0.245413
C9    C     C_R   0.923023 0.393583 0.465826 0.251682
C10   C     C_R   0.076977 0.606427 0.534173 0.251661
C11   C     C_R   0.456216 0.374614 0.741318 0.117432
C12   C     C_R   0.543793 0.625383 0.258683 0.117408
C13   C     C_R   0.527603 0.371086 0.252462 0.165639
C14   C     C_R   0.472405 0.628911 0.747540 0.165607
C15   C     C_R   0.464401 0.374379 0.813237 -0.160001
C16   C     C_R   0.535612 0.625617 0.186764 -0.159984
C17   C     C_R   0.517608 0.376642 0.180776 -0.181185
C18   C     C_R   0.482402 0.623354 0.819226 -0.181199
H1    H     H_    0.457908 0.276835 0.839175 0.136691
H2    H     H_    0.542107 0.723161 0.160826 0.136689
H3    H     H_    0.514159 0.280912 0.150146 0.143643
H4    H     H_    0.485852 0.719083 0.849857 0.143646
C19   C     C_R   0.481797 0.497731 0.852300 0.025301
C20   C     C_R   0.518215 0.502265 0.147701 0.025306
C21   C     C_R   0.420673 0.067162 0.453834 0.219367
C22   C     C_R   0.579327 0.932838 0.546166 0.219536
C23   C     C_R   0.581238 0.081282 0.545521 0.266606
C24   C     C_R   0.418762 0.918718 0.454479 0.266604
C25   C     C_R   0.472715 0.502697 0.706992 -0.034344
C26   C     C_R   0.527291 0.497302 0.293009 -0.034312
C27   C     C_R   0.580302 0.585438 0.967284 -0.175050
C28   C     C_R   0.419712 0.414556 0.032717 -0.175045
C29   C     C_R   0.588311 0.588234 0.038794 -0.167941
C30   C     C_R   0.411702 0.411759 0.961207 -0.167948
H5    H     H_    0.643909 0.651250 0.942616 0.137433
H6    H     H_    0.356104 0.348744 0.057386 0.137439
H7    H     H_    0.658548 0.655299 0.068103 0.137929
H8    H     H_    0.341465 0.344695 0.931898 0.137924
N1    N     N_R   0.500000 0.852070 0.500000 -0.189577
N2    N     N_R   0.500000 0.147930 0.500000 -0.189591
C31   C     C_R   0.508061 0.502777 0.072047 0.117521
C32   C     C_R   0.491953 0.497217 0.927955 0.117523
C33   C     C_3   0.337852 0.132143 0.398244 -0.652547
H9    H     H_    0.328575 0.243101 0.404942 0.283502
H10   H     H_    0.370636 0.111856 0.348168 0.170453
H11   H     H_    0.244288 0.083817 0.394695 0.270799
C34   C     C_3   0.662149 0.867857 0.601757 -0.652619
H12   H     H_    0.671437 0.756899 0.595060 0.283435
H13   H     H_    0.755709 0.916191 0.605306 0.270789
H14   H     H_    0.629364 0.888142 0.651832 0.170429
C35   C     C_3   0.680854 0.161095 0.593670 -0.738759
H15   H     H_    0.673485 0.272317 0.599380 0.263014
H16   H     H_    0.682408 0.124768 0.646980 0.175549
H17   H     H_    0.771626 0.145315 0.575734 0.257552
C36   C     C_3   0.319149 0.838906 0.406327 -0.738702
H18   H     H_    0.326514 0.727683 0.400620 0.263021
H19   H     H_    0.228375 0.854690 0.424259 0.257567
H20   H     H_    0.317602 0.875232 0.353017 0.175550
N3    N     N_R   0.098345 0.265738 0.442184 0.133341
O9    O     O_R   0.121317 0.161818 0.481899 -0.298854
O10   O     O_R   0.079245 0.243888 0.375865 -0.356799
N4    N     N_R   0.901650 0.734341 0.557753 0.133337
O11   O     O_R   0.878358 0.838036 0.517931 -0.298938
O12   O     O_R   0.920991 0.756514 0.624049 -0.356594
N5    N     N_R   0.846441 0.291106 0.424730 0.179782
O13   O     O_R   0.787093 0.326368 0.367052 -0.372526
O14   O     O_R   0.845530 0.161238 0.441056 -0.275219
N6    N     N_R   0.153563 0.708940 0.575241 0.179815
O15   O     O_R   0.212908 0.673739 0.632931 -0.372530
O16   O     O_R   0.154465 0.838792 0.558883 -0.275262
C37   C     C_3   0.421634 0.236860 0.703926 -0.762181
H21   H     H_    0.345427 0.248459 0.662316 0.266248
H22   H     H_    0.502161 0.195733 0.682944 0.237042
H23   H     H_    0.388733 0.157370 0.738591 0.214515
C38   C     C_3   0.578378 0.763136 0.296076 -0.762095
H24   H     H_    0.654585 0.751531 0.337687 0.266283
H25   H     H_    0.611281 0.842630 0.261410 0.214509
H26   H     H_    0.497848 0.804264 0.317059 0.237030
C39   C     C_3   0.548205 0.227177 0.278779 -0.752034
H27   H     H_    0.569628 0.218062 0.334549 0.292864
H28   H     H_    0.468038 0.156913 0.259419 0.190113
H29   H     H_    0.628889 0.186605 0.256882 0.246428
C40   C     C_3   0.451808 0.772821 0.721225 -0.752086
H30   H     H_    0.430388 0.781940 0.665456 0.292870
H31   H     H_    0.371124 0.813394 0.743121 0.246432
H32   H     H_    0.531975 0.843083 0.740587 0.190114

loop_
_geom_bond_atom_site_label_1
_geom_bond_atom_site_label_2
_geom_bond_distance
_ccdc_geom_bond_type
C7    N3    1.421521 S    
C40   H30   1.097193 S    
C21   C33   1.506198 S    
C37   H21   1.110683 S    
C24   N1    1.380910 A    
C33   H9    1.086857 S    
C19   C32   1.473191 S    
C20   C31   1.473191 S    
C22   C23   1.432179 A    
Cu2   N2    2.040369 S    
O7    C6    1.315668 A    
N6    O16   1.301143 A    
C34   H13   1.100784 S    
C13   C26   1.437687 A    
C14   C25   1.437690 A    
N3    O10   1.301770 A    
C28   H6    1.083225 S    
C12   C38   1.511602 S    
C35   H16   1.108231 S    
O5    C5    1.317515 A    
C5    C26   1.507515 S    
C6    C25   1.507519 S    
O7    Cu1   1.971371 S    
C16   C20   1.391789 A    
O8    Cu2   1.971373 S    
C36   H19   1.110225 S    
C13   C39   1.512029 S    
O1    Cu1   1.980830 S    
C13   C17   1.398198 A    
C39   H28   1.108664 S    
O2    Cu2   1.980830 S    
C27   C32   1.404289 A    
C28   C31   1.404289 A    
C30   C32   1.402591 A    
C33   H10   1.099211 S    
C40   H31   1.111445 S    
C15   H1    1.084012 S    
C27   C29   1.392642 A    
N3    O9    1.301444 A    
C28   C30   1.392642 A    
O4    C3    1.309331 A    
C37   H22   1.103749 S    
C38   H25   1.111323 S    
C17   C20   1.388961 A    
C8    N4    1.421557 S    
C17   H3    1.085527 S    
C18   H4    1.085527 S    
C21   C24   1.432174 A    
N4    O12   1.301866 A    
O3    C4    1.309317 A    
O6    C6    1.317515 A    
N6    O15   1.299389 A    
C34   H14   1.099201 S    
C1    C8    1.408286 A    
C38   H24   1.110702 S    
O4    Cu2   2.001759 S    
C35   H17   1.110225 S    
N5    O13   1.299396 A    
C11   C25   1.435380 A    
C24   C36   1.523500 S    
C36   H20   1.108231 S    
C12   C26   1.435375 A    
C21   N2    1.378214 A    
C39   H29   1.111449 S    
N5    O14   1.301131 A    
C11   C37   1.511601 S    
C18   C19   1.388960 A    
C22   C34   1.506213 S    
C40   H32   1.108662 S    
C37   H23   1.111288 S    
O3    Cu1   2.001759 S    
C38   H26   1.103786 S    
C2    C7    1.408271 A    
C11   C15   1.401107 A    
O1    C3    1.305486 A    
O2    C4    1.305499 A    
C14   C18   1.398197 A    
N4    O11   1.301535 A    
C1    C4    1.475333 S    
C23   C35   1.523498 S    
C16   H2    1.084011 S    
C2    C3    1.475333 S    
C1    C9    1.407119 A    
C2    C10   1.407132 A    
C10   N6    1.433324 S    
C9    N5    1.433326 S    
O5    Cu1   1.960856 S    
O6    Cu2   1.960854 S    
C14   C40   1.512022 S    
C23   N2    1.380909 A    
C29   C31   1.402590 A    
C34   H12   1.086868 S    
C7    C9    1.397100 A    
C8    C10   1.397116 A    
Cu1   N1    2.040368 S    
C35   H15   1.084431 S    
C33   H11   1.100792 S    
C30   H8    1.082986 S    
O8    C5    1.315665 A    
C36   H18   1.084433 S    
C12   C16   1.401109 A    
C27   H5    1.083225 S    
C39   H27   1.097196 S    
C29   H7    1.082986 S    
C22   N1    1.378215 A    
Cu1   Cu2   2.715086 S    
C15   C19   1.391788 A    
