data_mof_unit_45500.cif
_audit_creation_date              2012-12-10T18:17:11-0500
_audit_creation_method            fapswitch 2.2
_symmetry_space_group_name_H-M    P1
_symmetry_Int_Tables_number       1
_space_group_crystal_system       triclinic
_cell_length_a                    21.243862
_cell_length_b                    21.208228
_cell_length_c                    13.99749
_cell_angle_alpha                 89.943517
_cell_angle_beta                  90.014956
_cell_angle_gamma                 90.002381
_cell_volume                      6306.49121278

loop_
_atom_site_label
_atom_site_type_symbol
_atom_type_description
_atom_site_fract_x
_atom_site_fract_y
_atom_site_fract_z
_atom_type_partial_charge
C1    C     C_R   0.086899 0.413339 0.500012 0.902121
C2    C     C_R   0.913184 0.586744 0.499960 0.901875
C3    C     C_R   0.913256 0.413186 0.500018 0.902360
C4    C     C_R   0.086930 0.586625 0.499996 0.902284
C5    C     C_R   0.586977 0.913430 0.500030 0.902057
C6    C     C_R   0.413046 0.086602 0.499952 0.902340
C7    C     C_R   0.413095 0.913347 0.500026 0.902311
C8    C     C_R   0.586954 0.086605 0.499986 0.902296
C9    C     C_R   0.944634 0.493551 0.797625 -0.046558
C10   C     C_R   0.055471 0.505823 0.202470 -0.048799
C11   C     C_R   0.055438 0.506012 0.797579 -0.046952
C12   C     C_R   0.944567 0.494303 0.202302 -0.036238
C13   C     C_R   0.444343 0.996853 0.797563 -0.046742
C14   C     C_R   0.555681 0.002690 0.202449 -0.046009
C15   C     C_R   0.555654 0.003206 0.797598 -0.046710
C16   C     C_R   0.444318 0.997362 0.202410 -0.046947
C17   C     C_R   0.057397 0.505616 0.898532 -0.075073
C18   C     C_R   0.942856 0.493764 0.101423 -0.075055
C19   C     C_R   0.942816 0.493130 0.898583 -0.075718
C20   C     C_R   0.057314 0.506558 0.101509 -0.074604
C21   C     C_R   0.557552 0.002835 0.898550 -0.075398
C22   C     C_R   0.442481 0.996690 0.101469 -0.075117
C23   C     C_R   0.442444 0.997301 0.898510 -0.075172
C24   C     C_R   0.557517 0.003437 0.101508 -0.075089
C25   C     C_R   0.000118 0.499489 0.949347 0.011377
C26   C     C_R   0.000109 0.499906 0.050653 0.007877
C27   C     C_R   0.499999 0.000061 0.949343 0.011045
C28   C     C_R   0.499999 0.000060 0.050672 0.011024
C29   C     C_R   0.114655 0.512135 0.949640 0.173933
C30   C     C_R   0.885680 0.486825 0.050519 0.169529
C31   C     C_R   0.885594 0.486253 0.949741 0.174176
C32   C     C_R   0.114585 0.512789 0.050451 0.174012
C33   C     C_R   0.615079 0.006072 0.949660 0.173801
C34   C     C_R   0.384946 0.993661 0.050380 0.173169
C35   C     C_R   0.384912 0.994183 0.949581 0.174198
C36   C     C_R   0.615047 0.006582 0.050459 0.174089
C37   C     C_R   0.156545 0.658583 0.587057 -0.258205
C38   C     C_R   0.843307 0.341550 0.413019 -0.263523
C39   C     C_R   0.847404 0.662670 0.413482 -0.260085
C40   C     C_R   0.157151 0.341855 0.586954 -0.259813
C41   C     C_R   0.658079 0.157066 0.587044 -0.258088
C42   C     C_R   0.343626 0.841208 0.413110 -0.259945
C43   C     C_R   0.342350 0.157592 0.412786 -0.258473
C44   C     C_R   0.653811 0.838559 0.586565 -0.260612
C45   C     C_R   0.135143 0.634272 0.500046 -0.073846
C46   C     C_R   0.865558 0.365018 0.500034 -0.073377
C47   C     C_R   0.865400 0.634830 0.499903 -0.075203
C48   C     C_R   0.134952 0.365523 0.499962 -0.075357
C49   C     C_R   0.635328 0.134098 0.499990 -0.074194
C50   C     C_R   0.365003 0.865572 0.500077 -0.074296
C51   C     C_R   0.364762 0.134180 0.499847 -0.074936
C52   C     C_R   0.635416 0.866026 0.500090 -0.074729
C53   C     C_R   0.159697 0.655534 0.413104 -0.259981
C54   C     C_R   0.842409 0.342357 0.587051 -0.257997
C55   C     C_R   0.837946 0.653068 0.586365 -0.258127
C56   C     C_R   0.158503 0.343400 0.412894 -0.257925
C57   C     C_R   0.658768 0.156473 0.412962 -0.260347
C58   C     C_R   0.340577 0.844205 0.587069 -0.258188
C59   C     C_R   0.341139 0.156265 0.586855 -0.259784
C60   C     C_R   0.663262 0.848238 0.413683 -0.257008
C61   C     C_R   0.205669 0.701698 0.412490 0.118974
C62   C     C_R   0.796603 0.296028 0.587737 0.119755
C63   C     C_R   0.792187 0.699446 0.587087 0.118565
C64   C     C_R   0.204313 0.297069 0.412185 0.118102
C65   C     C_R   0.704947 0.202437 0.412329 0.119097
C66   C     C_R   0.294670 0.797963 0.587757 0.119220
C67   C     C_R   0.295130 0.202376 0.587497 0.118764
C68   C     C_R   0.709513 0.802338 0.413032 0.118801
C69   C     C_R   0.227145 0.726509 0.500132 0.061320
C70   C     C_R   0.773922 0.272420 0.500041 0.061906
C71   C     C_R   0.773965 0.727653 0.500037 0.061601
C72   C     C_R   0.226655 0.272985 0.499847 0.061640
C73   C     C_R   0.727731 0.225934 0.500034 0.061249
C74   C     C_R   0.273206 0.773127 0.500130 0.061455
C75   C     C_R   0.272703 0.226357 0.499817 0.061592
C76   C     C_R   0.727848 0.774222 0.500099 0.061476
C77   C     C_R   0.202520 0.704747 0.587760 0.119132
C78   C     C_R   0.797401 0.295329 0.412347 0.120044
C79   C     C_R   0.801755 0.709187 0.412909 0.118327
C80   C     C_R   0.202983 0.295556 0.587553 0.118610
C81   C     C_R   0.704254 0.203026 0.587727 0.119107
C82   C     C_R   0.297789 0.794917 0.412486 0.118398
C83   C     C_R   0.296374 0.203764 0.412124 0.118444
C84   C     C_R   0.699939 0.792550 0.587209 0.118409
C85   C     C_R   0.230322 0.723484 0.325804 -0.216316
C86   C     C_R   0.773190 0.273005 0.674500 -0.219532
C87   C     C_R   0.764403 0.717967 0.673278 -0.216391
C88   C     C_R   0.227989 0.274434 0.325416 -0.216658
C89   C     C_R   0.728506 0.225330 0.325580 -0.216119
C90   C     C_R   0.270041 0.776148 0.674461 -0.217815
C91   C     C_R   0.271394 0.224941 0.674250 -0.216974
C92   C     C_R   0.737486 0.784009 0.326880 -0.217324
C93   C     C_R   0.774676 0.271725 0.325586 -0.218957
C94   C     C_R   0.224054 0.729558 0.674466 -0.218452
C95   C     C_R   0.225382 0.271479 0.674277 -0.216728
C96   C     C_R   0.783520 0.737463 0.326816 -0.216195
C97   C     C_R   0.276299 0.770063 0.325801 -0.216085
C98   C     C_R   0.727109 0.226515 0.674495 -0.217859
C99   C     C_R   0.718351 0.764471 0.673342 -0.216579
C100  C     C_R   0.273908 0.227780 0.325383 -0.217067
H1    H     H_    0.137334 0.641859 0.654237 0.158060
H2    H     H_    0.861709 0.359079 0.345803 0.160133
H3    H     H_    0.869017 0.648412 0.346700 0.161236
H4    H     H_    0.138765 0.359270 0.654236 0.161056
H5    H     H_    0.639810 0.139416 0.654296 0.158239
H6    H     H_    0.362704 0.858027 0.345870 0.158893
H7    H     H_    0.360743 0.140149 0.345523 0.159552
H8    H     H_    0.632025 0.852598 0.653327 0.161169
H9    H     H_    0.143066 0.636320 0.345875 0.156216
H10   H     H_    0.860017 0.360624 0.654237 0.156971
H11   H     H_    0.851963 0.631122 0.653105 0.159026
H12   H     H_    0.141214 0.362061 0.345637 0.160266
H13   H     H_    0.641081 0.138313 0.345684 0.157889
H14   H     H_    0.357250 0.863410 0.654255 0.157764
H15   H     H_    0.358553 0.137762 0.654136 0.159763
H16   H     H_    0.649042 0.870033 0.346932 0.157824
H17   H     H_    0.214016 0.704570 0.258273 0.144208
H18   H     H_    0.790470 0.290941 0.742078 0.148059
H19   H     H_    0.778227 0.696473 0.740373 0.145557
H20   H     H_    0.210999 0.292776 0.257852 0.145981
H21   H     H_    0.711191 0.207428 0.257999 0.144256
H22   H     H_    0.286336 0.795077 0.741990 0.147150
H23   H     H_    0.288436 0.206665 0.741820 0.144802
H24   H     H_    0.723668 0.805529 0.259791 0.146591
H25   H     H_    0.792536 0.289167 0.258012 0.148126
H26   H     H_    0.205317 0.713000 0.742000 0.147371
H27   H     H_    0.207355 0.288630 0.741867 0.145252
H28   H     H_    0.804766 0.723535 0.259674 0.145933
H29   H     H_    0.295032 0.786621 0.258265 0.144873
H30   H     H_    0.709293 0.209032 0.742073 0.146826
H31   H     H_    0.697086 0.778380 0.740483 0.145788
H32   H     H_    0.291892 0.210566 0.257796 0.146025
H33   H     H_    0.902288 0.488673 0.755592 0.137979
H34   H     H_    0.097904 0.509443 0.244593 0.137797
H35   H     H_    0.097677 0.511463 0.755490 0.138164
H36   H     H_    0.902040 0.489837 0.244041 0.142911
H37   H     H_    0.401866 0.993739 0.755449 0.137199
H38   H     H_    0.598254 0.003960 0.244570 0.136553
H39   H     H_    0.598131 0.006309 0.755507 0.138315
H40   H     H_    0.401747 0.996079 0.244499 0.137774
N1    N     N_R   0.000000 0.500000 0.750030 -0.104690
N2    N     N_R   0.000000 0.500000 0.249970 -0.106908
N3    N     N_R   0.500000 1.000000 0.750030 -0.104877
N4    N     N_R   0.500000 1.000000 0.249970 -0.104641
O1    O     O_R   0.066090 0.433930 0.580280 -0.628814
O2    O     O_R   0.933910 0.566070 0.419720 -0.629736
O3    O     O_R   0.933910 0.566070 0.580280 -0.628037
O4    O     O_R   0.066090 0.433930 0.419720 -0.627857
O5    O     O_R   0.933910 0.433930 0.419720 -0.630930
O6    O     O_R   0.066090 0.566070 0.580280 -0.631400
O7    O     O_R   0.066090 0.566070 0.419720 -0.632594
O8    O     O_R   0.933910 0.433930 0.580280 -0.631880
O9    O     O_R   0.566090 0.933930 0.580280 -0.629728
O10   O     O_R   0.433910 0.066070 0.419720 -0.629023
O11   O     O_R   0.433910 0.066070 0.580280 -0.629628
O12   O     O_R   0.566090 0.933930 0.419720 -0.628403
O13   O     O_R   0.433910 0.933930 0.419720 -0.631049
O14   O     O_R   0.566090 0.066070 0.580280 -0.630451
O15   O     O_R   0.566090 0.066070 0.419720 -0.631585
O16   O     O_R   0.433910 0.933930 0.580280 -0.630805
Zn1   Zn    Zn3+2 1.000000 0.500000 0.607200 0.941076
Zn2   Zn    Zn3+2 0.000000 0.500000 0.392800 0.940669
Zn3   Zn    Zn3+2 0.500000 1.000000 0.607200 0.940876
Zn4   Zn    Zn3+2 0.500000 1.000000 0.392800 0.941213
N5    N     N_2   0.173394 0.517955 0.901273 -0.285251
H41   H     H_    0.179967 0.487065 0.845367 0.209340
C101  C     C_3   0.191486 0.582114 0.879460 -0.771766
H42   H     H_    0.157504 0.603649 0.828673 0.216450
H43   H     H_    0.238983 0.582412 0.846387 0.239788
H44   H     H_    0.193261 0.610769 0.945817 0.253533
N6    N     N_2   0.827001 0.482810 0.099400 -0.279193
H45   H     H_    0.818140 0.518976 0.146729 0.212459
C102  C     C_3   0.809519 0.420858 0.134249 -0.786086
H46   H     H_    0.809760 0.420355 0.213579 0.217990
H47   H     H_    0.842107 0.383556 0.108268 0.234062
H48   H     H_    0.761247 0.409542 0.109332 0.254496
N7    N     N_2   0.826780 0.481023 0.901398 -0.279328
H49   H     H_    0.819876 0.513894 0.848112 0.208537
C103  C     C_3   0.810127 0.417562 0.873168 -0.775956
H50   H     H_    0.762645 0.417673 0.840007 0.238196
H51   H     H_    0.809022 0.385866 0.936234 0.256195
H52   H     H_    0.844517 0.398962 0.820582 0.215497
N8    N     N_2   0.173125 0.520276 0.098865 -0.287359
H53   H     H_    0.172661 0.551977 0.154627 0.205944
C104  C     C_3   0.204976 0.461796 0.121025 -0.764186
H54   H     H_    0.251576 0.472197 0.153288 0.239608
H55   H     H_    0.212609 0.433850 0.054928 0.252883
H56   H     H_    0.176884 0.433588 0.172629 0.218561
N9    N     N_2   0.674050 0.008676 0.901307 -0.285268
H57   H     H_    0.678963 0.977411 0.845485 0.209881
C105  C     C_3   0.695559 0.071743 0.879326 -0.770417
H58   H     H_    0.662907 0.094953 0.828211 0.216585
H59   H     H_    0.743093 0.069451 0.846561 0.239915
H60   H     H_    0.698678 0.100400 0.945568 0.253046
N10   N     N_2   0.326061 0.989698 0.098758 -0.286706
H61   H     H_    0.324634 0.958039 0.154629 0.207909
C106  C     C_3   0.297725 0.049976 0.120659 -0.765237
H62   H     H_    0.327432 0.076490 0.172177 0.217968
H63   H     H_    0.250591 0.042384 0.152923 0.239957
H64   H     H_    0.291759 0.078299 0.054446 0.252561
N11   N     N_2   0.325932 0.991772 0.901188 -0.285332
H65   H     H_    0.321138 0.023008 0.845206 0.208322
C107  C     C_3   0.304168 0.928773 0.879516 -0.771520
H66   H     H_    0.256672 0.931228 0.846607 0.239329
H67   H     H_    0.300872 0.900211 0.945916 0.253771
H68   H     H_    0.336767 0.905362 0.828635 0.216342
N12   N     N_2   0.673922 0.010705 0.098876 -0.286037
H69   H     H_    0.675243 0.042312 0.154729 0.207091
C108  C     C_3   0.702473 0.950506 0.120834 -0.769263
H70   H     H_    0.749529 0.958227 0.153310 0.239223
H71   H     H_    0.708645 0.922322 0.054620 0.253842
H72   H     H_    0.672796 0.923786 0.172192 0.216681

loop_
_geom_bond_atom_site_label_1
_geom_bond_atom_site_label_2
_ccdc_geom_bond_type
C34   N10   S    
C107  H66   S    
N1    Zn1   S    
N5    H41   S    
C70   C78   A    
C43   C83   A    
N11   H65   S    
C32   N8    S    
C1    O1    A    
C42   C82   A    
C48   C56   A    
N6    H45   S    
C8    O14   A    
C76   C84   A    
C71   C79   A    
C67   C75   A    
C49   C57   A    
C101  H43   S    
C102  H46   S    
C65   C89   A    
O2    Zn2   S    
C96   H28   S    
C3    O8    A    
C24   C36   A    
C41   H5    S    
O9    Zn3   S    
O10   Zn4   S    
C16   N4    A    
C29   C32   A    
C73   C81   A    
N8    C104  S    
C71   C76   A    
C104  H55   S    
C21   C33   A    
C81   C98   A    
C78   C93   A    
C53   H9    S    
C66   C74   A    
C77   C94   A    
C92   C96   A    
C33   C36   A    
C17   C29   A    
N12   C108  S    
C62   C70   A    
C33   N9    S    
C34   C35   A    
C10   N2    A    
C14   C24   A    
C63   C71   A    
N9    C105  S    
C44   C84   A    
C52   C60   A    
C59   C67   A    
C43   C51   A    
C53   C61   A    
C58   C66   A    
C14   H38   S    
C10   C20   A    
N7    C103  S    
C55   C63   A    
C90   H22   S    
C40   C80   A    
C5    C52   S    
C18   C30   A    
C13   N3    A    
C23   C27   A    
C6    C51   S    
C88   H20   S    
C15   H39   S    
O8    Zn1   S    
C2    O2    A    
C103  H52   S    
C55   H11   S    
C44   C52   A    
C44   H8    S    
C21   C27   A    
C19   C31   A    
N5    C101  S    
C22   C28   A    
N4    Zn4   S    
N11   C107  S    
C46   C54   A    
C16   H40   S    
C74   C82   A    
C72   C75   A    
C86   C98   A    
N3    Zn3   S    
C13   C23   A    
C9    C19   A    
C90   C94   A    
C101  H44   S    
C87   C99   A    
C4    C45   S    
C102  H47   S    
C22   C34   A    
C107  H68   S    
C14   N4    A    
C3    O5    A    
C67   C91   A    
C105  H58   S    
C50   C58   A    
O16   Zn3   S    
C24   C28   A    
C66   C90   A    
O3    Zn1   S    
C65   C73   A    
C101  H42   S    
C9    N1    A    
C35   N11   S    
C104  H56   S    
C57   H13   S    
C7    O16   A    
C38   C78   A    
O11   Zn3   S    
C25   C26   A    
C39   C47   A    
C37   C77   A    
N12   H69   S    
C54   H10   S    
C13   H37   S    
C106  H64   S    
N8    H53   S    
C105  H59   S    
C87   H19   S    
C11   H35   S    
C40   H4    S    
C107  H67   S    
C12   N2    A    
O7    Zn2   S    
C41   C81   A    
C18   C26   A    
C98   H30   S    
C70   C73   A    
C56   C64   A    
C108  H70   S    
C6    O11   A    
C69   C74   A    
C86   H18   S    
C43   H7    S    
C80   C95   A    
C85   H17   S    
C11   N1    A    
O13   Zn4   S    
C60   C68   A    
C88   C100  A    
C103  H50   S    
C61   C85   A    
O14   Zn3   S    
C42   C50   A    
C15   N3    A    
C59   H15   S    
C31   N7    S    
C106  H63   S    
C23   C35   A    
C83   C100  A    
C12   H36   S    
C82   C97   A    
C60   H16   S    
C68   C76   A    
C37   C45   A    
C5    O12   A    
C75   C83   A    
C62   C86   A    
C47   C55   A    
C20   C32   A    
C102  H48   S    
C61   C69   A    
N9    H57   S    
C40   C48   A    
O6    Zn1   S    
C11   C17   A    
C16   C22   A    
C63   C87   A    
C84   C99   A    
C10   H34   S    
C7    C50   S    
C57   C65   A    
C20   C26   A    
N2    Zn2   S    
C100  H32   S    
C1    C48   S    
C39   H3    S    
C7    O13   A    
C2    C47   S    
N6    C102  S    
C41   C49   A    
C4    O6    A    
C3    C46   S    
C99   H31   S    
O1    Zn1   S    
C17   C25   A    
C92   H24   S    
C2    O3    A    
C105  H60   S    
C97   H29   S    
C79   C96   A    
C72   C80   A    
C37   H1    S    
C6    O10   A    
C69   C77   A    
C104  H54   S    
C30   C31   A    
C89   H21   S    
C4    O7    A    
C5    O9    A    
C8    C49   S    
O4    Zn2   S    
C68   C92   A    
C56   H12   S    
C29   N5    S    
C64   C72   A    
C89   C93   A    
C106  H62   S    
C19   C25   A    
C93   H25   S    
C30   N6    S    
C38   C46   A    
C85   C97   A    
C45   C53   A    
N10   H61   S    
C42   H6    S    
C95   H27   S    
C15   C21   A    
C51   C59   A    
O12   Zn4   S    
C91   C95   A    
C38   H2    S    
N7    H49   S    
C94   H26   S    
C12   C18   A    
C27   C28   A    
C58   H14   S    
C108  H71   S    
O15   Zn4   S    
C54   C62   A    
C1    O4    A    
C91   H23   S    
O5    Zn2   S    
N10   C106  S    
C64   C88   A    
C8    O15   A    
C108  H72   S    
C36   N12   S    
C39   C79   A    
C103  H51   S    
C9    H33   S    
