data_mof_unit_55858.cif
_audit_creation_date              2013-03-05T16:48:20-0500
_audit_creation_method            fapswitch 2.2
_symmetry_space_group_name_H-M    P1
_symmetry_Int_Tables_number       1
_space_group_crystal_system       triclinic
_cell_length_a                    15.104315
_cell_length_b                    11.065864
_cell_length_c                    13.846605
_cell_angle_alpha                 90.430825
_cell_angle_beta                  89.986253
_cell_angle_gamma                 88.996547
_cell_volume                      2313.932844

loop_
_atom_site_label
_atom_site_type_symbol
_atom_site_description
_atom_site_fract_x
_atom_site_fract_y
_atom_site_fract_z
_atom_type_partial_charge
O1    O     O_R   0.500000 0.319630 0.582270 -0.515239
O2    O     O_R   0.500000 0.680370 0.417730 -0.517907
O3    O     O_R   0.499990 0.319660 0.417730 -0.594611
O4    O     O_R   0.500010 0.680340 0.582270 -0.586802
C1    C     C_R   0.500111 0.262241 0.499515 0.883606
C2    C     C_R   0.501540 0.737685 0.500514 0.917644
O5    O     O_R   0.370260 0.499960 0.582280 -0.517623
O6    O     O_R   0.629740 0.500040 0.417720 -0.551810
O7    O     O_R   0.370250 0.499990 0.417740 -0.583792
O8    O     O_R   0.629750 0.500010 0.582260 -0.563389
C3    C     C_R   0.329647 0.492597 0.499302 0.939790
C4    C     C_R   0.670928 0.501784 0.499668 0.910558
Cu1   Cu    Cu3+1 0.500010 0.499980 0.597420 1.097768
Cu2   Cu    Cu3+1 0.499990 0.500020 0.402580 1.081520
C5    C     C_R   0.813230 0.600140 0.460386 0.264269
C6    C     C_R   0.188066 0.386972 0.527910 0.271601
C7    C     C_R   0.767656 0.500577 0.497876 -0.266355
C8    C     C_R   0.233436 0.489466 0.495606 -0.291146
C9    C     C_R   0.814071 0.397566 0.530940 0.216778
C10   C     C_R   0.187641 0.590692 0.458041 0.215113
C11   C     C_R   0.907372 0.396989 0.534074 -0.073831
C12   C     C_R   0.094166 0.594057 0.458325 -0.090676
C13   C     C_R   0.953734 0.494504 0.493447 -0.046183
C14   C     C_R   0.047722 0.492125 0.491603 -0.043077
C15   C     C_R   0.906576 0.595584 0.456440 -0.057509
C16   C     C_R   0.094717 0.390473 0.528319 -0.012077
C17   C     C_R   0.956092 0.303954 0.580588 0.460594
C18   C     C_R   0.045060 0.698687 0.430932 0.483560
C19   C     C_R   0.047466 0.299206 0.573464 -0.226793
C20   C     C_R   0.953986 0.692695 0.419712 -0.222345
H1    H     H_    0.080480 0.227528 0.612255 0.198608
H2    H     H_    0.921015 0.770529 0.388619 0.219990
C21   C     C_R   0.372969 0.206894 0.197107 -0.378486
C22   C     C_R   0.611831 0.792091 0.814312 -0.365887
H3    H     H_    0.308545 0.246155 0.182248 0.185719
H4    H     H_    0.671974 0.746303 0.837348 0.193910
C23   C     C_R   0.387558 0.162647 0.290265 0.370684
C24   C     C_R   0.604109 0.829688 0.718218 0.369028
C25   C     C_R   0.472349 0.118413 0.315837 0.000319
C26   C     C_R   0.523599 0.882013 0.685893 0.007486
C27   C     C_R   0.538418 0.110876 0.244898 -0.235694
C28   C     C_R   0.454661 0.901675 0.752444 -0.238600
H5    H     H_    0.602535 0.072936 0.264268 0.225218
H6    H     H_    0.393933 0.945146 0.728035 0.220452
C29   C     C_R   0.520430 0.139818 0.148059 0.338867
C30   C     C_R   0.466787 0.879323 0.851232 0.332152
C31   C     C_R   0.437173 0.191705 0.123124 0.420623
C32   C     C_R   0.545653 0.821470 0.882565 0.387412
C33   C     C_R   0.492628 0.934673 0.413083 0.358977
C34   C     C_R   0.515148 0.065232 0.586483 0.353073
C35   C     C_R   0.503788 0.871618 0.501172 -0.189723
C36   C     C_R   0.501056 0.128202 0.498818 -0.193894
C37   C     C_R   0.514799 0.938402 0.588472 -0.064398
C38   C     C_R   0.489855 0.061379 0.411618 -0.064305
C39   C     C_R   0.563792 0.438180 0.793337 0.051926
C40   C     C_R   0.434986 0.560342 0.207646 0.035241
N1    N     N_R   0.499960 0.499900 0.743810 -0.235286
N2    N     N_R   0.500040 0.500100 0.256190 -0.238710
C41   C     C_R   0.433168 0.562627 0.793881 0.578194
C42   C     C_R   0.567915 0.442052 0.205603 0.585867
C43   C     C_R   0.436156 0.569969 0.898524 -0.179353
C44   C     C_R   0.565719 0.435757 0.102269 -0.186141
C45   C     C_R   0.499884 0.501192 0.948605 0.060047
C46   C     C_R   0.499920 0.500152 0.052176 0.055968
C47   C     C_R   0.565497 0.437108 0.895764 -0.114205
C48   C     C_R   0.434124 0.563530 0.105508 -0.105897
C49   C     C_R   0.378851 0.644397 0.955403 -0.223606
C50   C     C_R   0.628897 0.369230 0.047873 -0.214123
C51   C     C_R   0.371614 0.633432 0.055400 0.384739
C52   C     C_R   0.631526 0.373209 0.946863 0.426056
H7    H     H_    0.612408 0.387377 0.752235 0.240741
H8    H     H_    0.385459 0.609284 0.249313 0.231686
H9    H     H_    0.337206 0.712260 0.924775 0.187990
H10   H     H_    0.679401 0.315855 0.083166 0.214949
N3    N     N_R   0.765235 0.707904 0.431473 0.111458
O9    O     O_R   0.706671 0.704422 0.362822 -0.367840
O10   O     O_R   0.785661 0.812313 0.467883 -0.283480
N4    N     N_R   0.236363 0.281710 0.562759 0.105973
O11   O     O_R   0.301082 0.292228 0.623900 -0.376383
O12   O     O_R   0.212299 0.173554 0.538165 -0.310985
N5    N     N_R   0.479880 0.870857 0.323437 0.131548
O13   O     O_R   0.400799 0.861212 0.287353 -0.254981
O14   O     O_R   0.548064 0.833997 0.273123 -0.346568
N6    N     N_R   0.530419 0.129145 0.675739 0.138262
O15   O     O_R   0.607218 0.120589 0.717835 -0.260898
O16   O     O_R   0.463388 0.173086 0.724314 -0.352217
O17   O     O_3   0.366662 0.620334 0.739304 -0.571934
C53   C     C_3   0.279956 0.615973 0.780284 0.034468
H11   H     H_    0.260183 0.708918 0.803258 0.192357
H12   H     H_    0.273834 0.549404 0.839681 0.139435
C54   C     C_3   0.210859 0.581112 0.707130 -0.348121
H13   H     H_    0.216441 0.641176 0.644037 0.239837
H14   H     H_    0.223310 0.485601 0.688195 0.248071
C55   C     C_3   0.117183 0.592625 0.748421 -0.929869
H15   H     H_    0.109569 0.531911 0.811277 0.267649
H16   H     H_    0.068319 0.566887 0.692446 0.260502
H17   H     H_    0.102715 0.687161 0.771535 0.270904
O18   O     O_3   0.633953 0.380693 0.256213 -0.583989
C56   C     C_3   0.718785 0.431309 0.239686 0.030515
H18   H     H_    0.730776 0.506059 0.290334 0.213087
H19   H     H_    0.727754 0.471981 0.167463 0.118915
C57   C     C_3   0.790418 0.334214 0.255717 -0.334227
H20   H     H_    0.788157 0.304214 0.331926 0.256481
H21   H     H_    0.777770 0.254640 0.208684 0.261527
C58   C     C_3   0.882522 0.381521 0.233752 -0.852646
H22   H     H_    0.887634 0.405781 0.156259 0.261138
H23   H     H_    0.933076 0.310469 0.249871 0.282314
H24   H     H_    0.896342 0.462386 0.278771 0.257922
N7    N     N_R   0.297422 0.689071 0.104001 0.135155
O19   O     O_R   0.273907 0.799938 0.084656 -0.235800
O20   O     O_R   0.242129 0.620851 0.149456 -0.343843
N8    N     N_R   0.706556 0.321457 0.897892 0.115577
O21   O     O_R   0.737847 0.215974 0.922837 -0.308404
O22   O     O_R   0.754698 0.391110 0.844963 -0.438647
N9    N     N_R   0.766314 0.290229 0.553211 0.137939
O23   O     O_R   0.715001 0.287624 0.628369 -0.313385
O24   O     O_R   0.778986 0.192240 0.502180 -0.299337
N10   N     N_R   0.237179 0.690258 0.421216 0.147229
O25   O     O_R   0.292191 0.747513 0.476700 -0.393201
O26   O     O_R   0.228859 0.722088 0.331470 -0.197480
O27   O     O_3   0.916608 0.219371 0.638773 -0.577463
C59   C     C_3   0.902947 0.269436 0.732210 0.182841
H25   H     H_    0.850554 0.215808 0.767013 0.265586
H26   H     H_    0.878426 0.364939 0.729396 0.179253
C60   C     C_3   0.986605 0.261625 0.795325 -0.501800
H27   H     H_    0.013494 0.167696 0.795218 0.244130
H28   H     H_    0.037988 0.322150 0.766601 0.219988
C61   C     C_3   0.966917 0.300272 0.899280 -0.761865
H29   H     H_    0.940245 0.394457 0.901503 0.271903
H30   H     H_    0.028820 0.296245 0.942431 0.245879
H31   H     H_    0.918307 0.238857 0.932344 0.294910
O28   O     O_3   0.082945 0.811017 0.420419 -0.541458
C62   C     C_3   0.099890 0.861487 0.513098 0.126074
H32   H     H_    0.152368 0.929708 0.504885 0.254495
H33   H     H_    0.126596 0.793492 0.564929 0.123066
C63   C     C_3   0.017491 0.925100 0.555841 -0.347948
H34   H     H_    0.001080 0.007146 0.513152 0.267995
H35   H     H_    0.959846 0.864524 0.553678 0.257033
C64   C     C_3   0.032828 0.960406 0.661077 -0.812964
H36   H     H_    0.048280 0.879002 0.704683 0.245144
H37   H     H_    0.971722 0.003360 0.690810 0.300459
H38   H     H_    0.088504 0.024126 0.667184 0.260982
O29   O     O_3   0.423513 0.227341 0.027247 -0.554625
C65   C     C_3   0.333578 0.249517 0.003672 0.061160
H39   H     H_    0.310674 0.336220 0.037407 0.134630
H40   H     H_    0.291735 0.173138 0.027309 0.200321
C66   C     C_3   0.323117 0.260914 0.894514 -0.194028
H41   H     H_    0.362907 0.337110 0.867983 0.215006
H42   H     H_    0.347549 0.176664 0.859032 0.301345
C67   C     C_3   0.226089 0.281930 0.867377 -0.919932
H43   H     H_    0.186029 0.203530 0.889372 0.277061
H44   H     H_    0.219739 0.292762 0.788206 0.292755
H45   H     H_    0.199476 0.364955 0.903292 0.242132
O30   O     O_3   0.552136 0.782600 0.977522 -0.587823
C68   C     C_3   0.631916 0.818337 0.022163 0.197414
H46   H     H_    0.613614 0.869421 0.088582 0.243045
H47   H     H_    0.673395 0.879234 0.977708 0.177004
C69   C     C_3   0.685545 0.706812 0.053037 -0.436887
H48   H     H_    0.646821 0.656796 0.107256 0.242759
H49   H     H_    0.698146 0.646497 0.989847 0.228349
C70   C     C_3   0.773667 0.741716 0.098289 -0.784252
H50   H     H_    0.814502 0.790976 0.045288 0.264798
H51   H     H_    0.810637 0.658977 0.120691 0.245780
H52   H     H_    0.762198 0.799835 0.163027 0.297273
N11   N     N_R   0.313619 0.153538 0.354604 0.154107
O31   O     O_R   0.246807 0.228676 0.346542 -0.339830
O32   O     O_R   0.303082 0.054548 0.403071 -0.261352
N12   N     N_R   0.680715 0.824724 0.657384 0.139564
O33   O     O_R   0.737327 0.735295 0.665011 -0.356126
O34   O     O_R   0.704436 0.922046 0.612862 -0.240880
N13   N     N_R   0.586406 0.111653 0.075611 0.117020
O35   O     O_R   0.565381 0.103773 0.984670 -0.266673
O36   O     O_R   0.667777 0.087158 0.100816 -0.411972
N14   N     N_R   0.400380 0.920718 0.919164 0.139922
O37   O     O_R   0.419350 0.934628 0.010166 -0.259213
O38   O     O_R   0.320615 0.947916 0.889996 -0.397371

loop_
_geom_bond_atom_site_label_1
_geom_bond_atom_site_label_2
_geom_bond_distance
_ccdc_geom_bond_type
C5    N3    1.443920 S    
N13   O35   1.301388 A    
C45   C47   1.409821 A    
C3    C8    1.455126 S    
N11   O31   1.301630 A    
C17   C19   1.383689 A    
C66   H41   1.108776 S    
O7    Cu2   1.970799 S    
C61   H29   1.110995 S    
C10   N10   1.439071 S    
N5    O13   1.300668 A    
C17   O27   1.382558 S    
C34   N6    1.439986 S    
C25   C27   1.401077 A    
C24   N12   1.431091 S    
N13   O36   1.302237 A    
O1    C1    1.305890 A    
C18   O28   1.386123 S    
C12   C14   1.418494 A    
C19   H1    1.076562 S    
C9    C11   1.409844 A    
N6    O16   1.300539 A    
C42   O18   1.389533 S    
N7    O20   1.300961 A    
C57   H21   1.110563 S    
C64   H38   1.109706 S    
N4    O12   1.299868 A    
C5    C15   1.410981 A    
C25   C38   1.494691 S    
C68   H47   1.116406 S    
C50   H10   1.076255 S    
C33   C38   1.402306 A    
C31   O29   1.402023 S    
C57   C58   1.526298 S    
C42   C44   1.432424 A    
C28   C30   1.403360 A    
C33   N5    1.438151 S    
O4    Cu1   2.008403 S    
C43   C45   1.403297 A    
N14   O37   1.300911 A    
C44   C46   1.399853 A    
C69   C70   1.525851 S    
C70   H51   1.110297 S    
N10   O25   1.301345 A    
C51   N7    1.434212 S    
O28   C62   1.420789 S    
N9    O24   1.301101 A    
C67   H45   1.110436 S    
C4    C7    1.461037 S    
C62   C63   1.535403 S    
C34   C36   1.418433 A    
C13   C14   1.419626 A    
C30   N14   1.441411 S    
C1    C36   1.483029 S    
C49   H9    1.061999 S    
C2    C35   1.483022 S    
C20   H2    1.079745 S    
C6    N4    1.449362 S    
N12   O34   1.300629 A    
C11   C17   1.414173 A    
N11   O32   1.301055 A    
C12   C18   1.418178 A    
Cu1   Cu2   2.697877 S    
C68   C69   1.528088 S    
C69   H49   1.110821 S    
C27   H5    1.083360 S    
O2    C2    1.306278 A    
C28   H6    1.083571 S    
C65   C66   1.525679 S    
O2    Cu2   2.005156 S    
C29   N13   1.442376 S    
N8    O22   1.299164 A    
N8    O21   1.300771 A    
N5    O14   1.301164 A    
C36   C38   1.422790 A    
C70   H50   1.110739 S    
N14   O38   1.301767 A    
C29   C31   1.417113 A    
C6    C16   1.409847 A    
Cu2   N2    2.027011 S    
C58   H24   1.109554 S    
C30   C32   1.412369 A    
C41   C43   1.451383 A    
C34   C37   1.404059 A    
C57   H20   1.109289 S    
C66   C67   1.527329 S    
N6    O15   1.300630 A    
C41   O17   1.404671 S    
C65   H40   1.115216 S    
C54   H13   1.105795 S    
N4    O11   1.299522 A    
C22   C24   1.401359 A    
C23   N11   1.433825 S    
C55   H17   1.109712 S    
C33   C35   1.418375 A    
C21   C23   1.399303 A    
C49   C51   1.395267 A    
C46   C48   1.411491 A    
C47   C52   1.406574 A    
O17   C53   1.428890 S    
O5    C3    1.305275 A    
N3    O9    1.299457 A    
C54   H14   1.100004 S    
C62   H32   1.110557 S    
C58   H23   1.110305 S    
C43   C49   1.418712 A    
C26   C28   1.403342 A    
C56   H18   1.097931 S    
C53   C54   1.507583 S    
C9    N9    1.435832 S    
O6    C4    1.294368 A    
O30   C68   1.415598 S    
C55   H16   1.109450 S    
O7    C3    1.288825 A    
O27   C59   1.417208 S    
O3    Cu2   2.008403 S    
O8    C4    1.302119 A    
O4    C2    1.302319 A    
N12   O33   1.301392 A    
C56   H19   1.108980 S    
C53   H12   1.113141 S    
C26   C37   1.495509 S    
C39   N1    1.360381 A    
C60   H27   1.109279 S    
C21   C31   1.417505 A    
C67   H44   1.107680 S    
O1    Cu1   2.005156 S    
C10   C12   1.411728 A    
C59   H26   1.114664 S    
C61   H31   1.110199 S    
C70   H52   1.111089 S    
C63   H35   1.108372 S    
C60   H28   1.109578 S    
C15   C20   1.400439 A    
C5    C7    1.411435 A    
C32   O30   1.389418 S    
O6    Cu2   1.971019 S    
C40   H8    1.080137 S    
C39   C47   1.418634 A    
C14   C16   1.417196 A    
C63   H34   1.111486 S    
O3    C1    1.302670 A    
O8    Cu1   1.970799 S    
C61   H30   1.110153 S    
C64   H36   1.109663 S    
C66   H42   1.108029 S    
C58   H22   1.111027 S    
C22   C32   1.407673 A    
C44   C50   1.409463 A    
C65   H39   1.113530 S    
C59   C60   1.538100 S    
C11   C13   1.416572 A    
C23   C25   1.409278 A    
N7    O19   1.301070 A    
C63   C64   1.524603 S    
C54   C55   1.528823 S    
C24   C26   1.412048 A    
C64   H37   1.108510 S    
N9    O23   1.298235 A    
C69   H48   1.108805 S    
C60   C61   1.526222 S    
C40   C48   1.415019 A    
C18   C20   1.387072 A    
C21   H3    1.079172 S    
C22   H4    1.081739 S    
C40   N2    1.358612 A    
C8    C10   1.409086 A    
C13   C15   1.414899 A    
C55   H15   1.110657 S    
C52   N8    1.429378 S    
N10   O26   1.299694 A    
N1    C41   1.395763 A    
C45   C46   1.434242 A    
C48   C51   1.397857 A    
C7    C9    1.407296 A    
O5    Cu1   1.971019 S    
C56   C57   1.528840 S    
Cu1   N1    2.027010 S    
C53   H11   1.110190 S    
C16   C19   1.398082 A    
C6    C8    1.410946 A    
O18   C56   1.426464 S    
N3    O10   1.299253 A    
C68   H46   1.108314 S    
C62   H33   1.114250 S    
C50   C52   1.400245 A    
C27   C29   1.406398 A    
C67   H43   1.110776 S    
C35   C37   1.423378 A    
C59   H25   1.109598 S    
N2    C42   1.387126 A    
C39   H7    1.076883 S    
O29   C65   1.414839 S    
