data_mof_unit_11382.cif
_audit_creation_date              2012-12-10T16:54:05-0500
_audit_creation_method            fapswitch 2.2
_symmetry_space_group_name_H-M    P1
_symmetry_Int_Tables_number       1
_space_group_crystal_system       triclinic
_cell_length_a                    9.750712
_cell_length_b                    10.989404
_cell_length_c                    13.370096
_cell_angle_alpha                 90.655467
_cell_angle_beta                  72.059974
_cell_angle_gamma                 91.301576
_cell_volume                      1362.64258108

loop_
_atom_site_label
_atom_site_type_symbol
_atom_type_description
_atom_site_fract_x
_atom_site_fract_y
_atom_site_fract_z
_atom_type_partial_charge
C1    C     C_R   0.499963 0.733808 0.503256 0.914327
C2    C     C_R   0.441012 0.502737 0.980107 0.076957
C3    C     C_R   0.465418 0.466206 0.874260 0.080118
C4    C     C_R   0.547483 0.480961 0.030050 0.050089
C5    C     C_R   0.655956 0.395292 0.983783 0.136064
C6    C     C_R   0.669427 0.347696 0.884268 -0.232531
C7    C     C_R   0.577818 0.384422 0.829445 -0.163985
C8    C     C_R   0.549258 0.538859 0.125273 0.091302
C9    C     C_R   0.727376 0.394946 0.141233 -0.245032
C10   C     C_R   0.373756 0.508955 0.817691 -0.135387
C11   C     C_2   0.586051 0.065541 0.524317 0.078831
C12   C     C_R   0.421606 0.501125 0.700920 0.771749
C13   C     C_2   0.511417 0.135099 0.475700 -0.067107
C14   C     C_2   0.608488 0.937505 0.495566 0.444819
C15   C     C_2   0.493106 0.862882 0.523377 -0.464519
C16   C     C_2   0.067220 0.593630 0.523549 -0.081833
C17   C     C_2   0.906022 0.583608 0.545870 0.467111
C18   C     C_R   0.500472 0.265676 0.497090 0.826525
C19   C     C_R   0.577921 0.499118 0.300083 0.790487
C20   C     C_R   0.747614 0.355632 0.038746 -0.218645
C21   C     C_R   0.624043 0.482362 0.186237 -0.039892
C22   C     C_R   0.244079 0.569065 0.874275 0.145662
C23   C     C_R   0.208713 0.580917 0.983506 -0.160819
C24   C     C_R   0.305243 0.548753 0.035546 -0.255190
Cu1   Cu    Cu3+1 0.361370 0.499980 0.499980 0.919357
Cu2   Cu    Cu3+1 0.638630 0.500020 0.500020 0.997146
H1    H     H_    0.788470 0.353645 0.186785 0.165454
H2    H     H_    0.387365 0.899493 0.563409 0.121798
H3    H     H_    0.112720 0.683172 0.529918 0.169664
H4    H     H_    0.914860 0.460609 0.436087 0.183316
H5    H     H_    0.751628 0.282005 0.848318 0.138077
H6    H     H_    0.828924 0.288569 0.004827 0.148321
H7    H     H_    0.271519 0.558852 0.120123 0.156043
H8    H     H_    0.107008 0.619667 0.028804 0.155105
H9    H     H_    0.591877 0.342111 0.753993 0.151783
N1    N     N_2   0.152660 0.501340 0.501130 -0.164287
N2    N     N_2   0.846520 0.501370 0.501160 -0.316060
O1    O     O_R   0.382960 0.678040 0.499980 -0.606789
O2    O     O_R   0.617100 0.678080 0.500020 -0.467357
O3    O     O_R   0.325800 0.499940 0.650950 -0.591197
O4    O     O_R   0.559930 0.499980 0.650990 -0.532623
O5    O     O_R   0.382900 0.321920 0.499980 -0.593036
O6    O     O_R   0.617040 0.321960 0.500020 -0.594843
O7    O     O_R   0.440070 0.500020 0.349010 -0.577130
O8    O     O_R   0.674200 0.500060 0.349050 -0.576430
C25   C     C_3   0.451194 0.087301 0.389352 -0.427341
C26   C     C_3   0.523386 0.150016 0.284398 -0.797013
H10   H     H_    0.496324 0.247724 0.289419 0.244358
H11   H     H_    0.642254 0.140691 0.261757 0.261942
H12   H     H_    0.484216 0.107407 0.222280 0.240576
H13   H     H_    0.464505 0.988522 0.374257 0.221083
H14   H     H_    0.333667 0.102805 0.413461 0.214040
Cl1   Cl    Cl    0.783024 0.893179 0.419824 -0.609169
C27   C     C_3   0.091195 0.379209 0.533470 -0.120209
C28   C     C_3   0.119475 0.291517 0.439578 -0.785584
H15   H     H_    0.042335 0.302400 0.394828 0.215758
H16   H     H_    0.106813 0.196482 0.468720 0.220093
H17   H     H_    0.229441 0.305440 0.384073 0.277115
H18   H     H_    0.140905 0.343579 0.590916 0.200515
H19   H     H_    0.975983 0.375182 0.580660 0.123984
Cl2   Cl    Cl    0.800026 0.685927 0.637924 -0.614359
C29   C     C_3   0.491694 0.666960 0.155436 -0.446106
C30   C     C_3   0.607455 0.755451 0.170529 -0.779501
H20   H     H_    0.638607 0.732096 0.240952 0.256325
H21   H     H_    0.704521 0.754502 0.100059 0.257888
H22   H     H_    0.564824 0.849193 0.181883 0.241512
H23   H     H_    0.455941 0.707702 0.092457 0.224224
H24   H     H_    0.398363 0.664356 0.228355 0.223791
C31   C     C_3   0.140710 0.624308 0.823559 -0.377542
C32   C     C_3   0.025231 0.531536 0.816149 -0.766537
H25   H     H_    0.074150 0.448740 0.772696 0.243540
H26   H     H_    0.954726 0.572416 0.774988 0.269294
H27   H     H_    0.957852 0.504832 0.896270 0.249110
H28   H     H_    0.085315 0.702537 0.871574 0.190895
H29   H     H_    0.197747 0.664638 0.745865 0.217277
C33   C     C_3   0.638228 0.114660 0.614139 -0.420901
C34   C     C_3   0.677907 0.017189 0.680779 -0.745114
H30   H     H_    0.585971 0.952434 0.712633 0.260111
H31   H     H_    0.773937 0.967012 0.633495 0.307525
H32   H     H_    0.704407 0.061384 0.747836 0.220234
H33   H     H_    0.734331 0.175069 0.581971 0.237563
H34   H     H_    0.550356 0.168033 0.668235 0.175209

loop_
_geom_bond_atom_site_label_1
_geom_bond_atom_site_label_2
_ccdc_geom_bond_type
C28   H15   S    
C30   H21   S    
C4    C8    A    
C26   H11   S    
C5    C20   A    
C27   H19   S    
C34   H30   S    
C10   C22   A    
C12   O4    A    
C29   H23   S    
C19   C21   S    
C3    C7    A    
C11   C33   S    
C18   O5    A    
Cu1   O3    S    
C5    C6    A    
C11   C14   S    
Cu2   O2    S    
C25   H14   S    
Cu2   O8    S    
C17   Cl2   S    
C27   C28   S    
C16   C17   S    
C23   C24   A    
C32   H25   S    
C1    C15   S    
C22   C31   S    
C6    H5    S    
C30   H22   S    
Cu1   O5    S    
Cu1   O7    S    
Cu2   O6    S    
C26   H12   S    
C27   H18   S    
C34   H31   S    
C33   C34   S    
C33   H34   S    
C16   H3    S    
C25   H13   S    
H4    N2    S    
C12   O3    A    
C2    C4    A    
C29   C30   S    
Cu1   O1    S    
C9    C20   A    
C26   H10   S    
C23   H8    S    
C32   H27   S    
C8    C21   A    
C31   H28   S    
C17   N2    D    
C10   C12   S    
C1    O1    A    
C13   C18   S    
C28   H16   S    
C2    C24   A    
C19   O7    A    
C9    H1    S    
C20   H6    S    
C34   H32   S    
C25   C26   S    
C14   C15   D    
C7    H9    S    
C4    C5    A    
C33   H33   S    
C19   O8    A    
Cu2   N2    S    
C6    C7    A    
C24   H7    S    
C29   H24   S    
C2    C3    A    
Cu1   Cu2   S    
C3    C10   A    
C18   O6    A    
C16   N1    D    
C11   C13   D    
C9    C21   A    
C15   H2    S    
C13   C25   S    
C31   H29   S    
C31   C32   S    
N1    C27   S    
C1    O2    A    
Cu1   N1    S    
C30   H20   S    
C14   Cl1   S    
C28   H17   S    
C22   C23   A    
C32   H26   S    
Cu2   O4    S    
C8    C29   S    
