data_mof_unit_50482.cif
_audit_creation_date              2012-12-11T16:34:11-0500
_audit_creation_method            fapswitch 2.2
_symmetry_space_group_name_H-M    P1
_symmetry_Int_Tables_number       1
_space_group_crystal_system       triclinic
_cell_length_a                    8.356615
_cell_length_b                    17.406983
_cell_length_c                    27.032662
_cell_angle_alpha                 95.483858
_cell_angle_beta                  92.673393
_cell_angle_gamma                 83.669953
_cell_volume                      3887.81128397

loop_
_atom_site_label
_atom_site_type_symbol
_atom_type_description
_atom_site_fract_x
_atom_site_fract_y
_atom_site_fract_z
_atom_type_partial_charge
Ba1   Ba    Ba6+2 0.856110 0.463800 0.523550 1.822215
Ba2   Ba    Ba6+2 0.333710 0.536130 0.476450 1.858843
C1    C     C_3   0.712622 0.176166 0.661977 0.617522
C2    C     C_3   0.635025 0.259713 0.659784 0.325374
C3    C     C_3   0.505632 0.676791 0.633744 0.870563
C4    C     C_3   0.492469 0.724476 0.684921 -0.045328
C5    C     C_3   0.066216 0.702476 0.340480 0.288229
C6    C     C_3   0.085504 0.725336 0.287879 0.630248
C7    C     C_3   0.510434 0.747568 0.357978 0.939542
C8    C     C_3   0.455188 0.826489 0.338403 -0.086896
C9    C     C_R   0.006401 0.444329 0.180143 0.591152
C10   C     C_R   0.913175 0.579063 0.178094 0.733140
C11   C     C_2   0.759496 0.554459 0.272999 -0.123871
C12   C     C_3   0.146175 0.294361 0.657980 0.414800
C13   C     C_3   0.740422 0.580079 0.327448 -0.043654
C14   C     C_1   0.983668 0.491995 0.344150 -0.046535
C15   C     C_2   0.023819 0.489472 0.296519 -0.047498
C16   C     C_2   0.902828 0.518679 0.257262 0.250525
C17   C     C_R   0.022699 0.506937 0.103120 -0.163707
C18   C     C_R   0.046150 0.439963 0.129322 -0.004995
C19   C     C_R   0.108776 0.369816 0.104143 -0.042787
C20   C     C_R   0.959131 0.577344 0.128151 -0.164163
C21   C     C_2   0.848956 0.531004 0.360917 -0.218990
C22   C     C_2   0.347509 0.475867 0.640305 -0.318544
C23   C     C_3   0.137226 0.269209 0.709959 -0.264393
C24   C     C_R   0.177026 0.429578 0.976845 0.002833
C25   C     C_R   0.057597 0.564294 0.973170 0.049420
C26   C     C_R   0.135916 0.494900 0.949458 0.062767
C27   C     C_R   0.262984 0.363406 0.952566 -0.128114
C28   C     C_R   0.301164 0.359481 0.902416 0.170507
C29   C     C_R   0.253685 0.423039 0.873992 -0.033676
C30   C     C_R   0.171258 0.490693 0.897744 -0.117434
C31   C     C_R   0.122383 0.554195 0.869756 -0.029399
C32   C     C_R   0.163667 0.551475 0.819309 0.610931
C33   C     C_R   0.285918 0.420850 0.822565 0.680444
C34   C     C_3   0.235895 0.289164 0.392885 0.419144
C35   C     C_2   0.435671 0.452281 0.728211 0.577183
C36   C     C_3   0.455587 0.426620 0.673765 -0.143202
C37   C     C_1   0.208429 0.510952 0.656676 0.049591
C38   C     C_2   0.165802 0.510260 0.703795 -0.205718
C39   C     C_2   0.287355 0.482662 0.743456 0.127530
C40   C     C_R   0.130736 0.432261 0.027378 0.055821
C41   C     C_R   0.062901 0.503496 0.051908 0.032884
C42   C     C_R   0.037165 0.571452 0.025868 -0.084613
C43   C     C_R   0.149454 0.365857 0.054447 -0.096297
C44   C     C_R   0.950374 0.645515 0.103600 0.686723
C45   C     C_3   0.315869 0.241155 0.347585 -0.080390
C46   C     C_R   0.994025 0.622500 0.942584 -0.107874
C47   C     C_R   0.029630 0.618747 0.892529 -0.039591
C48   C     C_R   0.996333 0.643896 0.054398 0.060401
C49   C     C_R   0.415331 0.278069 0.520393 -0.365232
C50   C     C_R   0.554101 0.252687 0.493976 0.031001
C51   C     C_R   0.607618 0.172004 0.487644 0.017636
C52   C     C_R   0.519335 0.118972 0.508146 -0.053193
C53   C     C_R   0.376136 0.145530 0.532778 0.495417
C54   C     C_R   0.323163 0.225177 0.538167 -0.061703
C55   C     C_R   0.584327 0.833687 0.505681 -0.245995
C56   C     C_3   0.019065 0.700340 0.580515 0.838688
C57   C     C_R   0.633124 0.754135 0.499268 0.138951
C58   C     C_R   0.866783 0.778153 0.455897 -0.147310
C59   C     C_R   0.818034 0.858621 0.461888 0.482789
C60   C     C_R   0.673662 0.886258 0.485984 -0.084709
C61   C     C_1   0.619998 0.968291 0.493884 0.157443
C62   C     C_1   0.572385 0.036542 0.500884 0.157244
C63   C     C_R   0.767435 0.726485 0.471520 0.363239
C64   C     C_3   0.021924 0.788495 0.590064 -0.100285
C65   C     C_3   0.703750 0.365759 0.375357 0.787195
C66   C     C_3   0.731990 0.339281 0.320779 0.537347
H1    H     H_    0.570461 0.263877 0.622961 -0.055797
H2    H     H_    0.382383 0.279906 0.327799 0.109276
H3    H     H_    0.221008 0.220234 0.320967 0.169016
H4    H     H_    0.105161 0.679290 0.551297 0.053531
H5    H     H_    0.986343 0.815837 0.555211 0.051228
H6    H     H_    0.146569 0.801799 0.600321 0.087333
H7    H     H_    0.818230 0.379804 0.393994 -0.032590
H8    H     H_    0.779722 0.385512 0.302229 -0.059960
H9    H     H_    0.617044 0.326287 0.301260 0.017860
H10   H     H_    0.547566 0.273155 0.690001 -0.047870
H11   H     H_    0.453040 0.688430 0.712994 0.080693
H12   H     H_    0.613089 0.741598 0.697572 0.084844
H13   H     H_    0.787725 0.171865 0.696817 0.042867
H14   H     H_    0.143825 0.320139 0.737496 0.100608
H15   H     H_    0.149053 0.649152 0.345722 0.090241
H16   H     H_    0.940556 0.689667 0.344589 -0.110413
H17   H     H_    0.190537 0.758484 0.286976 0.071978
H18   H     H_    0.644083 0.737526 0.356453 -0.239241
H19   H     H_    0.513208 0.872359 0.361965 0.094923
H20   H     H_    0.323341 0.840497 0.341913 0.145721
H21   H     H_    0.062303 0.348107 0.655176 0.057733
H22   H     H_    0.143978 0.465789 0.285665 0.125948
H23   H     H_    0.126323 0.317012 0.122844 0.130764
H24   H     H_    0.306605 0.313502 0.971923 0.071871
H25   H     H_    0.192277 0.308973 0.037945 0.074465
H26   H     H_    0.666302 0.574762 0.246558 0.109447
H27   H     H_    0.911266 0.670721 0.956255 0.077585
H28   H     H_    0.271520 0.306469 0.652462 -0.177594
H29   H     H_    0.981571 0.666520 0.871422 0.126385
H30   H     H_    0.042798 0.529626 0.713839 0.156350
H31   H     H_    0.823608 0.535674 0.400072 0.160130
H32   H     H_    0.369898 0.468166 0.600839 0.084975
H33   H     H_    0.480386 0.854686 0.527586 0.123338
H34   H     H_    0.372216 0.339214 0.524125 0.078827
H35   H     H_    0.021441 0.245372 0.714199 0.140759
H36   H     H_    0.238290 0.224234 0.717259 0.113190
H37   H     H_    0.325597 0.322251 0.414694 0.014915
N1    N     N_R   0.941100 0.513647 0.204381 -0.428322
N2    N     N_R   0.245786 0.485409 0.795984 -0.419355
O1    O     O_2   0.910880 0.540430 0.617910 -0.430282
O2    O     O_3   0.642755 0.306273 0.397334 -0.664862
O3    O     O_3   0.100918 0.235003 0.623077 -0.505184
O4    O     O_2   0.278810 0.459550 0.382060 -0.422213
O5    O     O_3   0.046820 0.459570 0.442260 -0.466228
O6    O     O_3   0.514050 0.597710 0.411540 -0.364781
O7    O     O_3   0.107466 0.337113 0.373485 -0.614408
O8    O     O_3   0.627090 0.591350 0.524530 -0.367566
O9    O     O_3   0.103080 0.636600 0.435820 -0.443452
O10   O     O_2   0.198998 0.774754 0.468709 -0.414607
O11   O     O_3   0.105643 0.763035 0.375437 -0.601346
O12   O     O_3   0.142880 0.540370 0.557740 -0.465448
O13   O     O_3   0.562610 0.408580 0.475460 -0.443016
O14   O     O_2   0.365880 0.685750 0.523280 -0.460933
O15   O     O_3   0.569798 0.722235 0.600763 -0.646057
O16   O     O_2   0.420651 0.537235 0.321904 -0.445551
O17   O     O_3   0.435427 0.687795 0.330209 -0.644145
O18   O     O_2   0.027692 0.386019 0.202460 -0.575765
O19   O     O_2   0.348189 0.360795 0.801229 -0.538914
O20   O     O_2   0.848770 0.639498 0.198291 -0.496406
O21   O     O_2   0.128179 0.608565 0.796438 -0.587107
O22   O     O_3   0.675650 0.402220 0.588450 -0.484864
O23   O     O_2   0.784796 0.459635 0.676827 -0.465539
O24   O     O_3   0.055637 0.664190 0.624216 -0.597342
O25   O     O_3   0.754725 0.311031 0.666766 -0.574177
O26   O     O_2   0.823810 0.314230 0.476690 -0.461026
O27   O     O_3   0.086630 0.363340 0.564170 -0.522015
O28   O     O_2   0.989449 0.226204 0.531873 -0.401095
P1    P     P_3+3 0.078810 0.562990 0.610370 1.147305
P2    P     P_3+3 0.645380 0.325580 0.462150 1.029502
P3    P     P_3+3 0.125573 0.262236 0.563543 1.115082
P4    P     P_3+3 0.110900 0.436950 0.389630 1.029082
P5    P     P_3+3 0.068560 0.738150 0.434620 1.132219
P6    P     P_3+3 0.667602 0.402801 0.652770 1.032742
P7    P     P_3+3 0.548312 0.688466 0.537420 1.178422
P8    P     P_3+3 0.527157 0.598188 0.347216 1.098585
N3    N     N_3   0.426670 0.174318 0.360342 -0.468343
H38   H     H_    0.496196 0.189609 0.391949 0.195509
H39   H     H_    0.360121 0.129852 0.368347 0.192908
F1    F     F_    0.870692 0.683691 0.563469 -0.759841
N4    N     N_3   0.913841 0.823050 0.629082 -0.462355
H40   H     H_    0.795887 0.812839 0.618214 0.220448
H41   H     H_    0.944439 0.796678 0.661879 0.208790
F2    F     F_    0.594191 0.430915 0.378324 -0.743405
F3    F     F_    0.810764 0.155720 0.621947 -0.635293
F4    F     F_    0.840879 0.273323 0.316771 -0.682896
N5    N     N_3   0.590691 0.121878 0.660928 -0.462764
H42   H     H_    0.519628 0.136294 0.691993 0.131368
H43   H     H_    0.515377 0.128172 0.629288 0.192547
F5    F     F_    0.355390 0.658573 0.617509 -0.790992
N6    N     N_3   0.612301 0.605700 0.639193 -0.430456
H44   H     H_    0.589943 0.565529 0.609207 0.194463
H45   H     H_    0.580523 0.580642 0.670451 0.105220
N7    N     N_3   0.378745 0.794416 0.683649 -0.469947
H46   H     H_    0.403355 0.825399 0.654106 0.205314
H47   H     H_    0.262374 0.777868 0.678028 0.219566
F6    F     F_    0.114607 0.659226 0.255703 -0.689194
N8    N     N_3   0.942892 0.772816 0.270466 -0.398112
H48   H     H_    0.924235 0.822887 0.295042 0.145656
H49   H     H_    0.843123 0.741888 0.271751 0.200527
F7    F     F_    0.465697 0.752196 0.406712 -0.727298
N9    N     N_3   0.496058 0.829300 0.286678 -0.482431
H50   H     H_    0.462144 0.780269 0.265072 0.218219
H51   H     H_    0.620662 0.828712 0.285232 0.190420
F8    F     F_    0.558016 0.434086 0.761484 -0.670798
N10   N     N_3   0.390314 0.290107 0.880953 -0.424124
H52   H     H_    0.324567 0.243340 0.884623 0.179279
H53   H     H_    0.499244 0.281274 0.901308 0.183238
F9    F     F_    0.907800 0.715999 0.128416 -0.615349
N11   N     N_3   0.026483 0.717199 0.038424 -0.433696
H54   H     H_    0.919681 0.745673 0.024471 0.202088
H55   H     H_    0.118595 0.710971 0.013050 0.186938
F10   F     F_    0.286430 0.093991 0.550011 -0.669238
F11   F     F_    0.912586 0.909391 0.446166 -0.666750
N12   N     N_3   0.744144 0.141207 0.458496 -0.462764
H56   H     H_    0.786354 0.181974 0.438063 0.211270
H57   H     H_    0.837383 0.121594 0.482783 0.254957
F12   F     F_    0.811278 0.649065 0.464781 -0.703908
N13   N     N_3   0.168152 0.239275 0.425295 -0.479272
H58   H     H_    0.259322 0.200408 0.439089 0.099809
H59   H     H_    0.086592 0.206492 0.404495 0.217239

loop_
_geom_bond_atom_site_label_1
_geom_bond_atom_site_label_2
_ccdc_geom_bond_type
C25   C46   A    
O28   P3    D    
C5    H15   S    
C53   C54   A    
O26   P2    D    
N8    H48   S    
C46   H27   S    
C53   F10   S    
C21   H31   S    
C17   C18   A    
C5    O11   S    
C43   H25   S    
C22   C37   D    
C35   F8    S    
N7    H46   S    
O4    P4    D    
C55   C60   A    
C2    O25   S    
C10   O20   D    
C51   C52   A    
C8    N9    S    
Ba2   O5    S    
C1    F3    S    
C27   C28   A    
C11   C16   D    
C3    C4    S    
Ba2   P4    S    
C9    O18   D    
N4    H41   S    
O1    P1    D    
Ba1   O22   S    
Ba1   O5    S    
C38   H30   S    
C28   C29   A    
Ba2   O6    S    
O11   P5    S    
C55   C57   A    
O22   P6    S    
C31   C47   A    
C64   H6    S    
C10   C20   A    
O25   P6    S    
C7    O17   S    
C34   C45   S    
O2    P2    S    
C6    H17   S    
Ba1   O12   S    
O23   P6    D    
N12   H56   S    
C45   H2    S    
Ba2   O9    S    
C25   C42   A    
C65   O2    S    
C57   P7    S    
C14   C15   D    
N11   H55   S    
C15   C16   S    
C1    H13   S    
C22   C36   S    
O17   P8    S    
Ba1   P1    S    
C7    C8    S    
C28   N10   S    
N5    H43   S    
C13   C21   S    
C5    H16   S    
O8    P7    S    
C34   O7    S    
N8    H49   S    
N6    H45   S    
N9    H51   S    
O5    P4    S    
C9    N1    Am   
Ba1   O26   S    
C12   H28   S    
C2    H1    S    
N7    H47   S    
C17   C41   A    
C31   C32   A    
C19   C43   A    
C37   P1    S    
N10   H53   S    
Ba2   O4    S    
C63   F12   S    
C9    C18   A    
C65   F2    S    
C49   C50   A    
N9    H50   S    
O3    P3    S    
C48   N11   S    
C33   N2    Am   
N4    H40   S    
N3    H39   S    
C66   F4    S    
C6    F6    S    
C37   C38   D    
Ba2   O13   S    
C56   F1    S    
C23   H35   S    
C59   F11   S    
N10   H52   S    
C64   H5    S    
C45   N3    S    
C1    N5    S    
C65   C66   S    
C58   C59   A    
C49   H34   S    
C40   C43   A    
C33   O19   D    
C41   C42   A    
C16   N1    S    
C12   H21   S    
C2    H10   S    
C35   C36   S    
C7    H18   S    
C54   P3    S    
Ba2   O8    S    
C4    H12   S    
C29   C30   A    
C4    N7    S    
C26   C30   A    
C56   O24   S    
C8    H20   S    
C17   C20   A    
C60   C61   S    
C50   P2    S    
C8    H19   S    
O7    P4    S    
C45   H3    S    
N5    H42   S    
C58   P5    S    
C13   P8    S    
C46   C47   A    
C20   C44   A    
C58   C63   A    
O24   P1    S    
C14   C21   D    
C3    F5    S    
C11   C13   S    
N6    H44   S    
C36   P6    S    
C44   F9    S    
C14   P4    S    
C65   H7    S    
C40   C41   A    
C32   N2    Am   
N13   H59   S    
Ba1   O27   S    
Ba1   P2    S    
C50   C51   A    
C24   C40   A    
C56   C64   S    
C19   H23   S    
Ba2   O14   S    
C42   C48   A    
C66   H9    S    
C12   O3    S    
C52   C53   A    
C38   C39   S    
C39   N2    S    
C34   H37   S    
C22   H32   S    
C64   N4    S    
O14   P7    D    
C7    F7    S    
C15   H22   S    
C49   C54   A    
N3    H38   S    
O27   P3    S    
Ba2   O12   S    
C23   H36   S    
C66   H8    S    
C55   H33   S    
C44   C48   A    
C24   C26   A    
O12   P1    S    
C11   H26   S    
C30   C31   A    
C51   N12   S    
C57   C63   A    
C10   N1    Am   
C56   H4    S    
C4    H11   S    
C23   H14   S    
C52   C62   S    
Ba1   O13   S    
Ba1   Ba2   S    
C29   C33   A    
C34   N13   S    
C12   C23   S    
C35   C39   D    
C59   C60   A    
N12   H57   S    
C5    C6    S    
C6    N8    S    
N11   H54   S    
Ba1   O1    S    
C47   H29   S    
C61   C62   T    
O10   P5    D    
O6    P8    S    
C18   C19   A    
C24   C27   A    
C32   O21   D    
C3    N6    S    
O16   P8    D    
C25   C26   A    
O15   P7    S    
O13   P2    S    
Ba1   O8    S    
N13   H58   S    
C3    O15   S    
C27   H24   S    
C1    C2    S    
O9    P5    S    
