data_mof_unit_22500.cif
_audit_creation_date              2012-12-10T19:04:11-0500
_audit_creation_method            fapswitch 2.2
_symmetry_space_group_name_H-M    P1
_symmetry_Int_Tables_number       1
_space_group_crystal_system       triclinic
_cell_length_a                    10.636036
_cell_length_b                    10.815088
_cell_length_c                    9.58954
_cell_angle_alpha                 90.18162
_cell_angle_beta                  90.810603
_cell_angle_gamma                 90.234819
_cell_volume                      1102.9561735

loop_
_atom_site_label
_atom_site_type_symbol
_atom_type_description
_atom_site_fract_x
_atom_site_fract_y
_atom_site_fract_z
_atom_type_partial_charge
C1    C     C_R   0.497516 0.262485 0.499711 0.794583
C2    C     C_3   0.958151 0.604176 0.436795 -0.172161
C3    C     C_3   0.038138 0.503391 0.365733 -0.179038
C4    C     C_3   0.122967 0.499981 0.496675 -0.022814
C5    C     C_R   0.478649 0.064202 0.623737 0.128695
C6    C     C_R   0.484489 0.129365 0.498733 -0.103636
C7    C     C_R   0.471540 0.064013 0.372331 -0.225878
C8    C     C_R   0.471367 0.935110 0.372609 -0.223761
C9    C     C_R   0.484157 0.870736 0.499269 -0.097252
C10   C     C_R   0.478069 0.937006 0.624074 0.126764
C11   C     C_3   0.559414 0.931362 0.752027 -0.482241
C12   C     C_R   0.259611 0.499865 0.498921 0.778306
C13   C     C_3   0.560738 0.071747 0.751112 -0.464759
C14   C     C_R   0.602627 0.463722 0.074432 0.246764
C15   C     C_R   0.395023 0.531780 0.072674 -0.104702
C16   C     C_R   0.395637 0.533656 0.924330 -0.081556
C17   C     C_R   0.600256 0.456399 0.927994 0.223115
C18   C     C_3   0.733777 0.497088 0.918661 -0.515666
C19   C     C_3   0.733425 0.517232 0.075688 -0.095627
C20   C     C_R   0.497424 0.737577 0.500006 0.793165
C21   C     C_R   0.740679 0.501154 0.500855 0.780431
C22   C     C_3   0.041796 0.398959 0.560673 0.199322
C23   C     C_3   0.955373 0.400923 0.430396 -0.173616
C24   C     C_3   0.877799 0.501840 0.501878 -0.001544
C25   C     C_3   0.962883 0.498797 0.632630 -0.154597
C26   C     C_3   0.045304 0.600747 0.567236 -0.200299
Cu1   Cu    Cu3+1 0.499990 0.499980 0.640670 0.928002
Cu2   Cu    Cu3+1 0.500010 0.500020 0.359330 0.925989
H1    H     H_    0.915925 0.319014 0.374792 0.121838
H2    H     H_    0.652971 0.889736 0.732275 0.196805
H3    H     H_    0.511195 0.113236 0.841092 0.196230
H4    H     H_    0.654950 0.111949 0.729786 0.197534
H5    H     H_    0.310976 0.559710 0.126140 0.140124
H6    H     H_    0.312211 0.563749 0.868793 0.141296
H7    H     H_    0.793864 0.417950 0.888387 0.152802
H8    H     H_    0.747752 0.581487 0.855236 0.223569
H9    H     H_    0.801687 0.455976 0.130477 0.133885
H10   H     H_    0.936034 0.498462 0.743269 0.128085
H11   H     H_    0.084809 0.682662 0.622780 0.131336
H12   H     H_    0.922503 0.690060 0.387578 0.116843
H13   H     H_    0.071157 0.505597 0.256453 0.132668
H14   H     H_    0.467938 0.111696 0.273215 0.165433
H15   H     H_    0.467476 0.886736 0.273642 0.163327
H16   H     H_    0.507876 0.892448 0.841925 0.200918
N1    N     N_R   0.500800 0.500930 0.147930 -0.183230
N2    N     N_R   0.500800 0.500890 0.852020 -0.176587
O1    O     O_R   0.500000 0.319640 0.618810 -0.575264
O2    O     O_R   0.500010 0.319680 0.381230 -0.584854
O3    O     O_R   0.316850 0.499950 0.618770 -0.597219
O4    O     O_R   0.316860 0.499990 0.381190 -0.590075
O5    O     O_R   0.499990 0.680320 0.618770 -0.576832
O6    O     O_R   0.500000 0.680360 0.381190 -0.585530
O7    O     O_R   0.683140 0.500010 0.618810 -0.584731
O8    O     O_R   0.683150 0.500050 0.381230 -0.595467
C27   C     C_3   0.749612 0.655347 0.118389 -0.302460
C28   C     C_3   0.652107 0.745897 0.059283 -0.814849
H17   H     H_    0.642986 0.738259 0.944599 0.245602
H18   H     H_    0.559049 0.730725 0.106468 0.264518
H19   H     H_    0.681883 0.841915 0.085009 0.220917
H20   H     H_    0.749036 0.664522 0.233050 0.220023
H21   H     H_    0.844266 0.686079 0.084756 0.176223
C29   C     C_3   0.092581 0.282330 0.630762 -0.411463
C30   C     C_3   0.986029 0.199825 0.681512 -0.858460
H22   H     H_    0.928254 0.249985 0.758752 0.243961
H23   H     H_    0.925032 0.170107 0.592488 0.247918
H24   H     H_    0.025990 0.116274 0.732112 0.243457
H25   H     H_    0.150259 0.230198 0.555036 0.195578
H26   H     H_    0.153588 0.309251 0.720905 0.210143

loop_
_geom_bond_atom_site_label_1
_geom_bond_atom_site_label_2
_ccdc_geom_bond_type
C8    C9    A    
C12   O4    A    
C23   C24   S    
Cu1   O7    S    
C1    O2    A    
C29   C30   S    
C2    H12   S    
C25   H10   S    
C22   C29   S    
C4    C22   S    
C18   H7    S    
C9    C20   S    
C5    C13   S    
Cu1   O1    S    
C8    H15   S    
C29   H26   S    
C27   C28   S    
C16   H6    S    
C30   H23   S    
C12   O3    A    
C30   H24   S    
C5    C10   A    
C2    C26   S    
C27   H20   S    
C28   H17   S    
C21   O7    A    
Cu2   O6    S    
C14   C17   A    
C6    C7    A    
C26   H11   S    
C18   H8    S    
C29   H25   S    
Cu1   O3    S    
C5    C6    A    
C27   H21   S    
Cu1   N2    S    
C24   C25   S    
C28   H18   S    
Cu1   O5    S    
C17   C18   S    
C20   O5    A    
C2    C3    S    
C11   H16   S    
C2    C24   S    
C21   O8    A    
Cu2   N1    S    
C4    C26   S    
C21   C24   S    
C7    C8    A    
C10   C11   S    
C15   N1    A    
C16   N2    A    
C1    C6    S    
C23   H1    S    
C11   C13   S    
C17   N2    A    
C3    H13   S    
C20   O6    A    
C18   C19   S    
C9    C10   A    
C7    H14   S    
C19   C27   S    
Cu1   Cu2   S    
C28   H19   S    
Cu2   O8    S    
C22   C23   S    
Cu2   O2    S    
C3    C23   S    
C19   H9    S    
C14   N1    A    
C25   C26   S    
C4    C12   S    
C13   H4    S    
Cu2   O4    S    
C14   C19   S    
C13   H3    S    
C1    O1    A    
C3    C4    S    
C15   C16   A    
C11   H2    S    
C15   H5    S    
C30   H22   S    
C22   C25   S    
