data_mof_unit_60138.cif
_audit_creation_date              2012-12-10T21:03:01-0500
_audit_creation_method            fapswitch 2.2
_symmetry_space_group_name_H-M    P1
_symmetry_Int_Tables_number       1
_space_group_crystal_system       triclinic
_cell_length_a                    15.872622
_cell_length_b                    15.049306
_cell_length_c                    19.303427
_cell_angle_alpha                 89.973621
_cell_angle_beta                  90.004406
_cell_angle_gamma                 90.075463
_cell_volume                      4611.04266082

loop_
_atom_site_label
_atom_site_type_symbol
_atom_type_description
_atom_site_fract_x
_atom_site_fract_y
_atom_site_fract_z
_atom_type_partial_charge
C1    C     C_R   0.338930 0.499953 0.500025 0.904519
C2    C     C_R   0.661065 0.500047 0.499975 0.910884
C3    C     C_1   0.823903 0.500158 0.499964 -0.066609
C4    C     C_1   0.176073 0.499864 0.500011 0.037280
C5    C     C_1   0.250757 0.499865 0.500021 -0.175159
C6    C     C_1   0.749226 0.500141 0.499968 -0.191759
C7    C     C_R   0.500008 0.953120 0.437443 -0.166938
C8    C     C_R   0.500018 0.046880 0.562558 -0.166869
C9    C     C_R   0.499920 0.953044 0.562558 -0.166858
C10   C     C_R   0.500107 0.046956 0.437444 -0.166706
C11   C     C_R   0.499930 0.905043 0.500000 0.085358
C12   C     C_R   0.500093 0.094956 0.500001 0.085228
C13   C     C_1   0.499953 0.807210 0.500000 0.028692
C14   C     C_1   0.500058 0.192790 0.500000 0.029116
C15   C     C_R   0.500017 0.500020 0.365339 0.911557
C16   C     C_R   0.500007 0.499981 0.634663 0.911223
C17   C     C_R   0.455270 0.566166 0.253492 0.158190
C18   C     C_R   0.544844 0.433796 0.746485 0.157756
C19   C     C_R   0.455190 0.566086 0.746459 0.157968
C20   C     C_R   0.545163 0.434058 0.253586 0.158239
C21   C     C_R   0.454802 0.564756 0.181462 -0.229114
C22   C     C_R   0.545464 0.435257 0.818515 -0.229337
C23   C     C_R   0.454679 0.564655 0.818489 -0.229372
C24   C     C_R   0.545822 0.435539 0.181554 -0.229148
C25   C     C_R   0.500339 0.500152 0.145335 0.021966
C26   C     C_R   0.500114 0.499976 0.854675 0.022110
C27   C     C_R   0.500139 0.500073 0.289942 -0.122411
C28   C     C_R   0.500006 0.499946 0.710065 -0.122799
C29   C     C_R   0.500206 0.500031 0.930163 0.319543
C30   C     C_R   0.500345 0.500137 0.069847 0.319592
C31   C     C_R   0.956373 0.572809 0.528620 0.039685
C32   C     C_R   0.043989 0.427420 0.471398 0.067897
C33   C     C_R   0.044285 0.572545 0.528561 0.068371
C34   C     C_R   0.956075 0.427327 0.471302 0.040015
C35   C     C_R   0.912921 0.500106 0.499958 0.033162
C36   C     C_R   0.087089 0.499934 0.499998 0.055376
H1    H     H_    0.418964 0.614883 0.154034 0.159930
H2    H     H_    0.581263 0.385077 0.845920 0.159843
H3    H     H_    0.418913 0.614842 0.845873 0.159890
H4    H     H_    0.581739 0.385450 0.154194 0.159797
H5    H     H_    0.500184 0.082087 0.388450 0.129723
H6    H     H_    0.499843 0.917912 0.611552 0.129485
H7    H     H_    0.500024 0.081952 0.611552 0.129626
H8    H     H_    0.500000 0.918047 0.388449 0.129560
N1    N     N_R   0.543064 0.436955 0.034368 -0.185205
N2    N     N_R   0.457499 0.563219 0.965643 -0.185106
N3    N     N_R   0.542998 0.436904 0.965695 -0.185204
N4    N     N_R   0.457565 0.563269 0.034313 -0.185085
N5    N     N_1   0.500000 0.270550 0.500000 -0.085330
N6    N     N_1   0.500000 0.729450 0.500000 -0.085447
O1    O     O_R   0.378020 0.573650 0.500020 -0.597849
O2    O     O_R   0.621980 0.426350 0.499980 -0.602213
O3    O     O_R   0.621980 0.573650 0.499980 -0.619871
O4    O     O_R   0.378020 0.426350 0.500020 -0.615275
O5    O     O_R   0.499990 0.573690 0.398140 -0.598790
O6    O     O_R   0.500010 0.426310 0.601860 -0.598389
O7    O     O_R   0.500010 0.573690 0.601860 -0.598781
O8    O     O_R   0.499990 0.426310 0.398140 -0.598339
Zn1   Zn    Zn3+2 0.500000 0.598370 0.500000 0.985102
Zn2   Zn    Zn3+2 0.500000 0.401630 0.500000 0.985630
N7    N     N_2   0.407286 0.631744 0.288973 -0.290709
H9    H     H_    0.346170 0.636221 0.271126 0.220235
C37   C     C_3   0.447430 0.718045 0.292398 -0.735250
H10   H     H_    0.451967 0.747813 0.239822 0.219788
H11   H     H_    0.511586 0.712486 0.315009 0.255744
H12   H     H_    0.409569 0.762782 0.325853 0.230177
N8    N     N_2   0.592660 0.368113 0.710968 -0.291741
H13   H     H_    0.653795 0.363523 0.728752 0.218947
C38   C     C_3   0.552360 0.281890 0.707597 -0.735214
H14   H     H_    0.547844 0.252149 0.760184 0.220022
H15   H     H_    0.590097 0.237069 0.674116 0.229008
H16   H     H_    0.488184 0.287567 0.685045 0.256521
N9    N     N_2   0.407297 0.631735 0.710918 -0.289896
H17   H     H_    0.346164 0.636250 0.728709 0.220561
C39   C     C_3   0.447508 0.718005 0.707498 -0.734953
H18   H     H_    0.452009 0.747738 0.760067 0.219511
H19   H     H_    0.409716 0.762792 0.673993 0.230529
H20   H     H_    0.511684 0.712407 0.684945 0.255319
N10   N     N_2   0.593128 0.368511 0.289174 -0.292583
H21   H     H_    0.654307 0.364149 0.271464 0.217723
C40   C     C_3   0.553095 0.282145 0.292526 -0.735701
H22   H     H_    0.548754 0.252422 0.239945 0.220184
H23   H     H_    0.488865 0.287585 0.314999 0.256929
H24   H     H_    0.590920 0.237437 0.326068 0.228821
N11   N     N_3   0.090669 0.645667 0.557367 -0.448398
H25   H     H_    0.073340 0.703518 0.530976 0.203154
H26   H     H_    0.073229 0.652753 0.609303 0.200563
N12   N     N_3   0.911705 0.353115 0.442022 -0.469740
H27   H     H_    0.873212 0.325462 0.480358 0.198819
H28   H     H_    0.873243 0.376390 0.401973 0.194435
N13   N     N_3   0.912310 0.647109 0.557866 -0.469685
H29   H     H_    0.873762 0.623911 0.597916 0.194783
H30   H     H_    0.873934 0.674797 0.519509 0.198125
N14   N     N_3   0.090063 0.354232 0.442576 -0.448811
H31   H     H_    0.072617 0.347249 0.390628 0.201311
H32   H     H_    0.072453 0.296400 0.468923 0.203116

loop_
_geom_bond_atom_site_label_1
_geom_bond_atom_site_label_2
_ccdc_geom_bond_type
C16   C28   S    
C7    C10   A    
C32   N14   S    
C37   H11   S    
O5    Zn1   S    
N9    H17   S    
C30   N1    A    
C8    H7    S    
C1    O4    A    
C3    C6    T    
C4    C36   S    
C40   H22   S    
O3    Zn1   S    
O4    Zn2   S    
N11   H25   S    
C7    C11   A    
C9    H6    S    
N5    Zn2   S    
C29   N3    A    
C1    C5    S    
N6    Zn1   S    
C32   C36   A    
C30   N4    A    
C38   H14   S    
O7    Zn1   S    
C14   N5    T    
O8    Zn2   S    
C22   H2    S    
C33   C36   A    
N7    C37   S    
C34   C35   A    
C23   C26   A    
C38   H15   S    
C33   N11   S    
O2    Zn2   S    
C17   N7    S    
C20   C24   A    
C8    C9    A    
C31   C33   A    
N11   H26   S    
C37   H12   S    
C10   H5    S    
N9    C39   S    
C2    C6    S    
C10   C12   A    
C40   H23   S    
N1    N3    A    
N2    N4    A    
N8    H13   S    
C17   C27   A    
C19   N9    S    
C18   C28   A    
C24   C25   A    
N13   H29   S    
N10   C40   S    
C18   N8    S    
C37   H10   S    
C17   C21   A    
N10   H21   S    
N8    C38   S    
C15   O5    A    
C38   H16   S    
C19   C23   A    
C39   H18   S    
C16   O6    A    
N13   H30   S    
C1    O1    A    
C15   C27   S    
C3    C35   S    
C8    C12   A    
N14   H31   S    
C34   N12   S    
C7    H8    S    
N14   H32   S    
C19   C28   A    
C9    C11   A    
C2    O2    A    
N12   H28   S    
C31   N13   S    
C15   O8    A    
C31   C35   A    
O1    Zn1   S    
C40   H24   S    
C25   C30   S    
C21   C25   A    
C20   N10   S    
C18   C22   A    
C12   C14   S    
C4    C5    T    
C2    O3    A    
C20   C27   A    
C29   N2    A    
C11   C13   S    
C23   H3    S    
C24   H4    S    
C16   O7    A    
N7    H9    S    
C39   H20   S    
C13   N6    T    
O6    Zn2   S    
C21   H1    S    
N12   H27   S    
C26   C29   S    
C22   C26   A    
C39   H19   S    
C32   C34   A    
