data_mof_unit_23984.cif
_audit_creation_date              2012-12-10T22:16:27-0500
_audit_creation_method            fapswitch 2.2
_symmetry_space_group_name_H-M    P1
_symmetry_Int_Tables_number       1
_space_group_crystal_system       triclinic
_cell_length_a                    26.688237
_cell_length_b                    26.680542
_cell_length_c                    26.688182
_cell_angle_alpha                 89.988386
_cell_angle_beta                  89.997594
_cell_angle_gamma                 90.220031
_cell_volume                      19003.3563513

loop_
_atom_site_label
_atom_site_type_symbol
_atom_type_description
_atom_site_fract_x
_atom_site_fract_y
_atom_site_fract_z
_atom_type_partial_charge
C1    C     C_R   0.571363 0.297190 0.297298 0.952745
C2    C     C_R   0.428151 0.296741 0.297044 0.956697
C3    C     C_R   0.179717 0.884915 0.321654 -0.239618
C4    C     C_R   0.320399 0.115136 0.821581 -0.242488
C5    C     C_R   0.672850 0.892183 0.172737 -0.228175
C6    C     C_R   0.185227 0.121153 0.314597 -0.226850
C7    C     C_R   0.821613 0.884868 0.679722 -0.244693
C8    C     C_R   0.673158 0.891639 0.826923 -0.239295
C9    C     C_R   0.320330 0.115244 0.178486 -0.235726
C10   C     C_R   0.820764 0.885147 0.322050 -0.244455
C11   C     C_R   0.185324 0.121039 0.685479 -0.243021
C12   C     C_R   0.322082 0.885198 0.179274 -0.242559
C13   C     C_R   0.703007 0.702890 0.428385 0.955489
C14   C     C_R   0.678227 0.115216 0.820404 -0.238844
C15   C     C_R   0.172862 0.892166 0.672766 -0.226783
C16   C     C_R   0.820413 0.115053 0.321651 -0.238558
C17   C     C_R   0.878872 0.814794 0.685373 -0.228011
C18   C     C_R   0.115161 0.178409 0.320248 -0.240924
C19   C     C_R   0.885048 0.321772 0.820363 -0.241474
C20   C     C_R   0.114787 0.677897 0.179255 -0.243017
C21   C     C_R   0.884942 0.179584 0.321650 -0.238767
C22   C     C_R   0.114779 0.822139 0.679144 -0.241333
C23   C     C_R   0.884902 0.679616 0.178355 -0.241193
C24   C     C_R   0.299335 0.299339 0.568542 0.939376
C25   C     C_R   0.115147 0.320384 0.821574 -0.238817
C26   C     C_R   0.121027 0.185319 0.685466 -0.244675
C27   C     C_R   0.885054 0.820730 0.321968 -0.236464
C28   C     C_R   0.120947 0.685005 0.814734 -0.231038
C29   C     C_R   0.879335 0.315185 0.184951 -0.237894
C30   C     C_R   0.115515 0.820076 0.321283 -0.229487
C31   C     C_R   0.885226 0.177856 0.679139 -0.244341
C32   C     C_R   0.107864 0.327128 0.172766 -0.227030
C33   C     C_R   0.884775 0.679705 0.821543 -0.236130
C34   C     C_R   0.184932 0.315126 0.879305 -0.238446
C35   C     C_R   0.428075 0.703010 0.296671 0.957895
C36   C     C_R   0.815074 0.684870 0.120669 -0.239800
C37   C     C_R   0.678235 0.179554 0.884780 -0.232564
C38   C     C_R   0.322009 0.820817 0.114878 -0.240783
C39   C     C_R   0.814954 0.684983 0.879214 -0.240721
C40   C     C_R   0.177806 0.320873 0.114676 -0.241041
C41   C     C_R   0.326803 0.826804 0.891508 -0.235881
C42   C     C_R   0.679644 0.178482 0.115222 -0.240262
C43   C     C_R   0.821520 0.320357 0.115219 -0.237270
C44   C     C_R   0.178777 0.679861 0.884441 -0.239469
C45   C     C_R   0.315167 0.185013 0.120697 -0.239681
C46   C     C_R   0.571600 0.297019 0.702877 0.957547
C47   C     C_R   0.673257 0.826738 0.891526 -0.240725
C48   C     C_R   0.179178 0.677979 0.114870 -0.242397
C49   C     C_R   0.820107 0.321179 0.884401 -0.228997
C50   C     C_R   0.679183 0.822164 0.114748 -0.237197
C51   C     C_R   0.315147 0.184929 0.879311 -0.238801
C52   C     C_R   0.172948 0.608070 0.173067 -0.228088
C53   C     C_R   0.814970 0.379028 0.814706 -0.235088
C54   C     C_R   0.820453 0.614988 0.178282 -0.241574
C55   C     C_R   0.179549 0.385050 0.821756 -0.242826
C56   C     C_R   0.820341 0.615065 0.821682 -0.240228
C57   C     C_R   0.293846 0.706138 0.574760 0.956140
C58   C     C_R   0.177821 0.385320 0.179028 -0.244467
C59   C     C_R   0.178208 0.614923 0.820397 -0.246469
C60   C     C_R   0.821696 0.384995 0.179579 -0.242662
C61   C     C_R   0.391888 0.827024 0.173096 -0.227058
C62   C     C_R   0.608151 0.173016 0.826895 -0.226680
C63   C     C_R   0.391439 0.826742 0.826660 -0.237770
C64   C     C_R   0.615001 0.178298 0.179576 -0.244710
C65   C     C_R   0.385072 0.179529 0.821778 -0.245177
C66   C     C_R   0.614738 0.822168 0.179092 -0.243934
C67   C     C_R   0.385123 0.179526 0.178176 -0.245660
C68   C     C_R   0.705935 0.294065 0.425437 0.944909
C69   C     C_R   0.608377 0.826831 0.826914 -0.236504
C70   C     C_R   0.185408 0.814754 0.378848 -0.230134
C71   C     C_R   0.820817 0.177836 0.614759 -0.243818
C72   C     C_R   0.179910 0.178742 0.384465 -0.237955
C73   C     C_R   0.821291 0.820125 0.615497 -0.239313
C74   C     C_R   0.815103 0.184897 0.379302 -0.239546
C75   C     C_R   0.179209 0.822138 0.614789 -0.240415
C76   C     C_R   0.827126 0.827125 0.392028 -0.221268
C77   C     C_R   0.185835 0.185842 0.621611 -0.238155
C78   C     C_R   0.679269 0.614944 0.678035 -0.236201
C79   C     C_R   0.702759 0.428734 0.702624 0.952877
C80   C     C_R   0.320978 0.385333 0.322161 -0.246071
C81   C     C_R   0.320402 0.614911 0.678169 -0.244762
C82   C     C_R   0.679564 0.384965 0.321679 -0.246429
C83   C     C_R   0.327159 0.607823 0.327254 -0.223985
C84   C     C_R   0.679624 0.385053 0.678210 -0.239403
C85   C     C_R   0.685002 0.620939 0.314738 -0.232835
C86   C     C_R   0.320871 0.385241 0.677883 -0.245149
C87   C     C_R   0.385236 0.320871 0.677883 -0.244358
C88   C     C_R   0.614923 0.678194 0.320395 -0.245774
C89   C     C_R   0.385337 0.320949 0.322171 -0.244974
C90   C     C_R   0.299389 0.568462 0.299389 0.940898
C91   C     C_R   0.614861 0.679242 0.677953 -0.244121
C92   C     C_R   0.385149 0.677911 0.320773 -0.242107
C93   C     C_R   0.615511 0.320114 0.678713 -0.234816
C94   C     C_R   0.384507 0.679865 0.678688 -0.236351
C95   C     C_R   0.615023 0.320436 0.321692 -0.243326
C96   C     C_R   0.684867 0.315119 0.379338 -0.237420
C97   C     C_R   0.314712 0.685087 0.620987 -0.231638
C98   C     C_R   0.679867 0.678780 0.384434 -0.236009
C99   C     C_R   0.327110 0.327116 0.607972 -0.220400
C100  C     C_R   0.320694 0.677966 0.385081 -0.238240
C101  C     C_R   0.706108 0.574701 0.293900 0.952798
C102  C     C_R   0.685314 0.314884 0.621024 -0.233826
C103  C     C_R   0.327140 0.327128 0.392035 -0.222529
C104  C     C_R   0.672874 0.672876 0.607973 -0.221470
C105  C     C_R   0.707666 0.144323 0.144132 0.278521
C106  C     C_R   0.307284 0.871696 0.871686 0.292585
C107  C     C_R   0.871627 0.128305 0.692198 0.291515
C108  C     C_R   0.130669 0.869365 0.309232 0.290561
C109  C     C_R   0.292294 0.144010 0.855712 0.280844
C110  C     C_R   0.692482 0.871676 0.128385 0.303469
C111  C     C_R   0.143930 0.144209 0.292073 0.283333
C112  C     C_R   0.428406 0.702971 0.702867 0.954984
C113  C     C_R   0.296705 0.428103 0.702992 0.957103
C114  C     C_R   0.855802 0.856081 0.707903 0.283076
C115  C     C_R   0.692850 0.871767 0.871765 0.299435
C116  C     C_R   0.292223 0.144218 0.144417 0.275404
C117  C     C_R   0.855197 0.855278 0.295565 0.272468
C118  C     C_R   0.143747 0.143745 0.708483 0.290964
C119  C     C_R   0.295658 0.855452 0.144613 0.270163
C120  C     C_R   0.704810 0.145511 0.854542 0.265874
C121  C     C_R   0.128376 0.871687 0.692189 0.289232
C122  C     C_R   0.869465 0.130525 0.309140 0.291646
C123  C     C_R   0.869329 0.309043 0.869274 0.285556
C124  C     C_R   0.297235 0.571266 0.702626 0.953585
C125  C     C_R   0.144544 0.704336 0.144605 0.265651
C126  C     C_R   0.856150 0.707662 0.144037 0.277833
C127  C     C_R   0.143995 0.292278 0.855734 0.284784
C128  C     C_R   0.145167 0.708127 0.855096 0.266428
C129  C     C_R   0.855717 0.292343 0.144099 0.281292
C130  C     C_R   0.128357 0.307484 0.128412 0.301162
C131  C     C_R   0.855878 0.707840 0.855656 0.274144
C132  C     C_R   0.192346 0.628531 0.128566 0.281251
C133  C     C_R   0.791841 0.354770 0.855044 0.273348
C134  C     C_R   0.869467 0.630529 0.190851 0.282622
C135  C     C_R   0.702816 0.428636 0.297294 0.952182
C136  C     C_R   0.130541 0.369499 0.809160 0.284499
C137  C     C_R   0.792271 0.643763 0.856020 0.279852
C138  C     C_R   0.204189 0.355673 0.144331 0.272064
C139  C     C_R   0.143601 0.643378 0.792396 0.290429
C140  C     C_R   0.856262 0.356454 0.207527 0.289159
C141  C     C_R   0.207559 0.356439 0.856198 0.285971
C142  C     C_R   0.792415 0.643631 0.143902 0.285390
C143  C     C_R   0.856615 0.356415 0.792375 0.291938
C144  C     C_R   0.128542 0.628493 0.192648 0.295391
C145  C     C_R   0.809022 0.369407 0.130615 0.277327
C146  C     C_R   0.296742 0.428144 0.297038 0.955401
C147  C     C_R   0.190899 0.630622 0.869321 0.276527
C148  C     C_R   0.128320 0.371650 0.192150 0.279077
C149  C     C_R   0.869388 0.630577 0.809173 0.281280
C150  C     C_R   0.371461 0.871429 0.192683 0.304972
C151  C     C_R   0.628641 0.128646 0.807335 0.294621
C152  C     C_R   0.371725 0.807319 0.871725 0.277043
C153  C     C_R   0.630590 0.190962 0.130601 0.277610
C154  C     C_R   0.369517 0.130508 0.809193 0.283922
C155  C     C_R   0.628336 0.871721 0.192127 0.280365
C156  C     C_R   0.356642 0.207534 0.143618 0.290364
C157  C     C_R   0.703372 0.572005 0.703081 0.958271
C158  C     C_R   0.628251 0.807118 0.871751 0.299977
C159  C     C_R   0.643546 0.143743 0.207539 0.289639
C160  C     C_R   0.371600 0.871609 0.806980 0.293625
C161  C     C_R   0.628640 0.192434 0.871353 0.292311
C162  C     C_R   0.371437 0.807628 0.128590 0.279472
C163  C     C_R   0.628074 0.871935 0.807540 0.275479
C164  C     C_R   0.369479 0.130551 0.190837 0.283605
C165  C     C_R   0.644516 0.795748 0.144553 0.272909
C166  C     C_R   0.356478 0.207547 0.856230 0.287753
C167  C     C_R   0.144809 0.791709 0.354896 0.272356
C168  C     C_R   0.071589 0.797025 0.297134 0.961372
C169  C     C_R   0.855444 0.204269 0.644590 0.269735
C170  C     C_R   0.208224 0.145154 0.355139 0.268040
C171  C     C_R   0.809198 0.869361 0.630663 0.276989
C172  C     C_R   0.856215 0.207641 0.355949 0.281765
C173  C     C_R   0.144584 0.795709 0.644636 0.265580
C174  C     C_R   0.807715 0.871552 0.371584 0.280499
C175  C     C_R   0.209345 0.145171 0.645226 0.273294
C176  C     C_R   0.854884 0.791801 0.644819 0.270922
C177  C     C_R   0.130689 0.190848 0.369293 0.276715
C178  C     C_R   0.807566 0.128303 0.628377 0.290636
C179  C     C_R   0.928100 0.202987 0.703299 0.953404
C180  C     C_R   0.207936 0.856158 0.355808 0.281202
C181  C     C_R   0.145140 0.209338 0.645193 0.274675
C182  C     C_R   0.871465 0.807621 0.371499 0.292916
C183  C     C_R   0.192477 0.871665 0.628405 0.291221
C184  C     C_R   0.792362 0.143786 0.355949 0.286994
C185  C     C_R   0.692357 0.628521 0.628499 0.292636
C186  C     C_R   0.307717 0.371560 0.371590 0.281139
C187  C     C_R   0.369388 0.630557 0.690723 0.277036
C188  C     C_R   0.630504 0.369501 0.309181 0.276211
C189  C     C_R   0.307536 0.628363 0.371587 0.292530
C190  C     C_R   0.703258 0.797040 0.071880 0.955034
C191  C     C_R   0.707743 0.356457 0.643841 0.284056
C192  C     C_R   0.643360 0.643561 0.292408 0.291198
C193  C     C_R   0.355591 0.355590 0.704240 0.276687
C194  C     C_R   0.707608 0.356231 0.355984 0.280002
C195  C     C_R   0.292298 0.643487 0.643771 0.288134
C196  C     C_R   0.355834 0.355807 0.295840 0.277462
C197  C     C_R   0.644732 0.644807 0.704440 0.271223
C198  C     C_R   0.307650 0.371518 0.628433 0.290944
C199  C     C_R   0.708127 0.645179 0.355086 0.271593
C200  C     C_R   0.630637 0.369413 0.690755 0.284705
C201  C     C_R   0.294055 0.205946 0.925423 0.944306
C202  C     C_R   0.371655 0.628295 0.307860 0.281366
C203  C     C_R   0.371528 0.307640 0.371577 0.295337
C204  C     C_R   0.628463 0.692308 0.628421 0.281749
C205  C     C_R   0.355201 0.708204 0.645070 0.272101
C206  C     C_R   0.643728 0.292388 0.356026 0.283308
C207  C     C_R   0.630636 0.690899 0.369314 0.277084
C208  C     C_R   0.371504 0.307648 0.628436 0.291405
C209  C     C_R   0.644815 0.291775 0.645101 0.275160
C210  C     C_R   0.355179 0.704435 0.355063 0.268121
C211  C     C_R   0.925205 0.793806 0.706187 0.953460
C212  C     C_R   0.706168 0.293845 0.574778 0.952472
C213  C     C_R   0.071407 0.202732 0.297142 0.952883
C214  C     C_R   0.298891 0.798894 0.930757 0.945250
C215  C     C_R   0.702890 0.202762 0.071447 0.953257
C216  C     C_R   0.074121 0.205529 0.705515 0.947238
C217  C     C_R   0.927992 0.796632 0.296920 0.958610
C218  C     C_R   0.703168 0.203440 0.927929 0.961073
C219  C     C_R   0.296956 0.796699 0.071916 0.957513
C220  C     C_R   0.928639 0.202805 0.297300 0.952362
C221  C     C_R   0.071877 0.797032 0.703279 0.953701
C222  C     C_R   0.294008 0.206012 0.074615 0.950994
C223  C     C_R   0.296680 0.703034 0.428027 0.956229
C224  C     C_R   0.701108 0.798895 0.930737 0.946681
C225  C     C_R   0.203305 0.703041 0.071916 0.955675
C226  C     C_R   0.796990 0.297107 0.928381 0.960376
C227  C     C_R   0.200622 0.931527 0.700623 0.938125
C228  C     C_R   0.797193 0.071358 0.297301 0.953102
C229  C     C_R   0.205948 0.294053 0.925424 0.946989
C230  C     C_R   0.794003 0.705980 0.074601 0.947729
C231  C     C_R   0.206205 0.074804 0.293801 0.951144
C232  C     C_R   0.797275 0.928604 0.702847 0.949249
C233  C     C_R   0.797233 0.297109 0.071451 0.954181
C234  C     C_R   0.428101 0.296706 0.702993 0.955786
C235  C     C_R   0.202888 0.703001 0.928390 0.952398
C236  C     C_R   0.799384 0.068465 0.700616 0.945450
C237  C     C_R   0.202816 0.928660 0.297311 0.957699
C238  C     C_R   0.793938 0.706059 0.925334 0.946308
C239  C     C_R   0.202932 0.296771 0.071835 0.954275
C240  C     C_R   0.796666 0.928066 0.296979 0.955078
C241  C     C_R   0.205536 0.074125 0.705520 0.946878
C242  C     C_R   0.297008 0.928137 0.203275 0.957611
C243  C     C_R   0.703172 0.072087 0.796569 0.957569
C244  C     C_R   0.068491 0.299374 0.200628 0.940405
C245  C     C_R   0.571296 0.702643 0.297218 0.953591
C246  C     C_R   0.928559 0.702862 0.797251 0.950658
C247  C     C_R   0.705980 0.074574 0.205975 0.950520
C248  C     C_R   0.298849 0.930695 0.798854 0.943024
C249  C     C_R   0.928596 0.702840 0.202726 0.953561
C250  C     C_R   0.071410 0.297168 0.797265 0.951861
C251  C     C_R   0.701067 0.930805 0.798928 0.942742
C252  C     C_R   0.297132 0.071457 0.202761 0.950593
C253  C     C_R   0.928690 0.297345 0.797206 0.956231
C254  C     C_R   0.071858 0.702981 0.203266 0.956393
C255  C     C_R   0.297171 0.071404 0.797267 0.949505
C256  C     C_R   0.299331 0.299334 0.431448 0.939358
C257  C     C_R   0.700616 0.931533 0.200614 0.940001
C258  C     C_R   0.074701 0.706103 0.793902 0.951335
C259  C     C_R   0.925435 0.294029 0.205967 0.951880
C260  C     C_R   0.569205 0.798933 0.798924 0.945163
C261  C     C_R   0.428723 0.202760 0.202640 0.955759
C262  C     C_R   0.203268 0.797028 0.571896 0.952402
C263  C     C_R   0.794056 0.205944 0.425423 0.947407
C264  C     C_R   0.431388 0.799300 0.200708 0.943314
C265  C     C_R   0.568605 0.200696 0.799300 0.941970
C266  C     C_R   0.799338 0.799343 0.431463 0.942359
C267  C     C_R   0.700661 0.700657 0.568537 0.942357
C268  C     C_R   0.205824 0.205822 0.574422 0.949412
C269  C     C_R   0.571363 0.202698 0.202814 0.952102
C270  C     C_R   0.430698 0.798860 0.798862 0.942222
C271  C     C_R   0.202997 0.202867 0.428416 0.952211
C272  C     C_R   0.797144 0.797019 0.571568 0.954392
C273  C     C_R   0.428689 0.202780 0.797336 0.952885
C274  C     C_R   0.571878 0.797029 0.203280 0.955336
C275  C     C_R   0.796742 0.202956 0.571880 0.953116
C276  C     C_R   0.206226 0.793793 0.425164 0.952429
C277  C     C_R   0.202957 0.428150 0.203256 0.955597
C278  C     C_R   0.571938 0.703331 0.703022 0.955572
C279  C     C_R   0.797164 0.571373 0.797293 0.954300
C280  C     C_R   0.202651 0.571296 0.797217 0.951048
C281  C     C_R   0.797295 0.428635 0.202819 0.953977
C282  C     C_R   0.797225 0.571313 0.202664 0.952664
C283  C     C_R   0.202791 0.428683 0.797330 0.955670
C284  C     C_R   0.793878 0.425285 0.793888 0.951086
C285  C     C_R   0.200695 0.568595 0.200699 0.939742
C286  C     C_R   0.684823 0.120684 0.184970 -0.236286
C287  C     C_R   0.326728 0.891434 0.826648 -0.241662
C288  C     C_R   0.827158 0.107815 0.672755 -0.221780
Cl1   Cl    Cl    0.773532 0.137114 0.135992 -0.453348
Cl2   Cl    Cl    0.226249 0.136272 0.137479 -0.457172
Cl3   Cl    Cl    0.856829 0.857227 0.229026 -0.461124
Cl4   Cl    Cl    0.128213 0.128208 0.771885 -0.405305
Cl5   Cl    Cl    0.229171 0.858017 0.142279 -0.459771
Cl6   Cl    Cl    0.771503 0.145277 0.854945 -0.514561
Cl7   Cl    Cl    0.088155 0.910488 0.728214 -0.486404
Cl8   Cl    Cl    0.911457 0.088517 0.279439 -0.491066
Cl9   Cl    Cl    0.911299 0.279496 0.911447 -0.495845
Cl10  Cl    Cl    0.141992 0.770844 0.142286 -0.465296
Cl11  Cl    Cl    0.865062 0.773444 0.135980 -0.453752
Cl12  Cl    Cl    0.265649 0.908487 0.908497 -0.490090
Cl13  Cl    Cl    0.135549 0.226380 0.862944 -0.416821
Cl14  Cl    Cl    0.140267 0.774452 0.861403 -0.508989
Cl15  Cl    Cl    0.863024 0.226480 0.135882 -0.448748
Cl16  Cl    Cl    0.089678 0.270779 0.088415 -0.477183
Cl17  Cl    Cl    0.864039 0.773793 0.862801 -0.458440
Cl18  Cl    Cl    0.228340 0.589707 0.088326 -0.481988
Cl19  Cl    Cl    0.725528 0.359592 0.861304 -0.505749
Cl20  Cl    Cl    0.911501 0.588524 0.220522 -0.473929
Cl21  Cl    Cl    0.088507 0.411495 0.779490 -0.495192
Cl22  Cl    Cl    0.726536 0.634691 0.864232 -0.449731
Cl23  Cl    Cl    0.911835 0.089510 0.728254 -0.486456
Cl24  Cl    Cl    0.270629 0.358526 0.141492 -0.424510
Cl25  Cl    Cl    0.134280 0.633161 0.727014 -0.408027
Cl26  Cl    Cl    0.864971 0.366034 0.273056 -0.408367
Cl27  Cl    Cl    0.273165 0.365989 0.864805 -0.413239
Cl28  Cl    Cl    0.726768 0.634182 0.135573 -0.415517
Cl29  Cl    Cl    0.866899 0.365904 0.727019 -0.405693
Cl30  Cl    Cl    0.088466 0.589731 0.229210 -0.444571
Cl31  Cl    Cl    0.779229 0.411366 0.088594 -0.517715
Cl32  Cl    Cl    0.220388 0.588623 0.911515 -0.490144
Cl33  Cl    Cl    0.089506 0.411907 0.228125 -0.472199
Cl34  Cl    Cl    0.088460 0.911464 0.279975 -0.495482
Cl35  Cl    Cl    0.911458 0.588538 0.779625 -0.499582
Cl36  Cl    Cl    0.410194 0.911492 0.229275 -0.435358
Cl37  Cl    Cl    0.589777 0.088338 0.771163 -0.437645
Cl38  Cl    Cl    0.408596 0.765824 0.908626 -0.456426
Cl39  Cl    Cl    0.588638 0.220717 0.088550 -0.487954
Cl40  Cl    Cl    0.411517 0.088431 0.779588 -0.450593
Cl41  Cl    Cl    0.588057 0.910556 0.228047 -0.470648
Cl42  Cl    Cl    0.366742 0.273032 0.134486 -0.408770
Cl43  Cl    Cl    0.591553 0.764960 0.908412 -0.449083
Cl44  Cl    Cl    0.633967 0.135047 0.273074 -0.408293
Cl45  Cl    Cl    0.226400 0.135639 0.862839 -0.422765
Cl46  Cl    Cl    0.408256 0.908275 0.764819 -0.432909
Cl47  Cl    Cl    0.589751 0.228185 0.911737 -0.469591
Cl48  Cl    Cl    0.410251 0.771623 0.088352 -0.474112
Cl49  Cl    Cl    0.591069 0.908953 0.766253 -0.448024
Cl50  Cl    Cl    0.411438 0.088447 0.220473 -0.471205
Cl51  Cl    Cl    0.642202 0.729251 0.142394 -0.425193
Cl52  Cl    Cl    0.366085 0.273155 0.864889 -0.412593
Cl53  Cl    Cl    0.138196 0.725386 0.360076 -0.502769
Cl54  Cl    Cl    0.857689 0.270769 0.642467 -0.430845
Cl55  Cl    Cl    0.274511 0.140134 0.361592 -0.509119
Cl56  Cl    Cl    0.729080 0.910391 0.088308 -0.464809
Cl57  Cl    Cl    0.779940 0.911484 0.588434 -0.463298
Cl58  Cl    Cl    0.865156 0.273409 0.363795 -0.419016
Cl59  Cl    Cl    0.142407 0.729201 0.642622 -0.435476
Cl60  Cl    Cl    0.771736 0.911772 0.410425 -0.470908
Cl61  Cl    Cl    0.274314 0.133859 0.633792 -0.497023
Cl62  Cl    Cl    0.859929 0.725498 0.638357 -0.507562
Cl63  Cl    Cl    0.088608 0.220165 0.411496 -0.518264
Cl64  Cl    Cl    0.771081 0.089539 0.588264 -0.461162
Cl65  Cl    Cl    0.273711 0.865292 0.363575 -0.446349
Cl66  Cl    Cl    0.133753 0.274300 0.633679 -0.497760
Cl67  Cl    Cl    0.135093 0.136618 0.226299 -0.446124
Cl68  Cl    Cl    0.911606 0.771456 0.410262 -0.499414
Cl69  Cl    Cl    0.229040 0.910395 0.588317 -0.499300
Cl70  Cl    Cl    0.726606 0.134864 0.363792 -0.411241
Cl71  Cl    Cl    0.728471 0.588351 0.589728 -0.497266
Cl72  Cl    Cl    0.271578 0.411697 0.410380 -0.454903
Cl73  Cl    Cl    0.411598 0.588496 0.720033 -0.503745
Cl74  Cl    Cl    0.588494 0.411531 0.279524 -0.505675
Cl75  Cl    Cl    0.271122 0.589576 0.411759 -0.459184
Cl76  Cl    Cl    0.773308 0.366263 0.635151 -0.414343
Cl77  Cl    Cl    0.633079 0.634091 0.227053 -0.407333
Cl78  Cl    Cl    0.863351 0.864857 0.773691 -0.444975
Cl79  Cl    Cl    0.358252 0.358237 0.770665 -0.422820
Cl80  Cl    Cl    0.773349 0.365205 0.363895 -0.422056
Cl81  Cl    Cl    0.226758 0.633579 0.634952 -0.407266
Cl82  Cl    Cl    0.359133 0.359004 0.229454 -0.419548
Cl83  Cl    Cl    0.642803 0.643192 0.770983 -0.461282
Cl84  Cl    Cl    0.271437 0.411622 0.589669 -0.460377
Cl85  Cl    Cl    0.774436 0.640312 0.361376 -0.506650
Cl86  Cl    Cl    0.588436 0.411469 0.720076 -0.498202
Cl87  Cl    Cl    0.411967 0.589432 0.272016 -0.494918
Cl88  Cl    Cl    0.411557 0.271318 0.410316 -0.469391
Cl89  Cl    Cl    0.734946 0.908486 0.908454 -0.456208
Cl90  Cl    Cl    0.588274 0.728340 0.589590 -0.479357
Cl91  Cl    Cl    0.361715 0.774545 0.639979 -0.501840
Cl92  Cl    Cl    0.634668 0.226647 0.364034 -0.416288
Cl93  Cl    Cl    0.588655 0.720382 0.411512 -0.489047
Cl94  Cl    Cl    0.411585 0.271419 0.589678 -0.470681
Cl95  Cl    Cl    0.638299 0.225437 0.640021 -0.499541
Cl96  Cl    Cl    0.356834 0.771030 0.356275 -0.466142
O1    O     O_R   0.553790 0.256330 0.314650 -0.557488
O2    O     O_R   0.446210 0.256330 0.314650 -0.575753
O3    O     O_R   0.814650 0.743670 0.946210 -0.575909
O4    O     O_R   0.946210 0.256330 0.185350 -0.571709
O5    O     O_R   0.053790 0.743670 0.814650 -0.582296
O6    O     O_R   0.814650 0.256330 0.946210 -0.562103
O7    O     O_R   0.185350 0.743670 0.053790 -0.568163
O8    O     O_R   0.053790 0.743670 0.185350 -0.580299
O9    O     O_R   0.946210 0.256330 0.814650 -0.574233
O10   O     O_R   0.185350 0.743670 0.946210 -0.574348
O11   O     O_R   0.814650 0.256330 0.053790 -0.554654
O12   O     O_R   0.946210 0.743670 0.814650 -0.571993
O13   O     O_R   0.685350 0.743670 0.446210 -0.571546
O14   O     O_R   0.053790 0.256330 0.185350 -0.557377
O15   O     O_R   0.814650 0.743670 0.053790 -0.579210
O16   O     O_R   0.185350 0.256330 0.946210 -0.563642
O17   O     O_R   0.743670 0.185350 0.053790 -0.564085
O18   O     O_R   0.256330 0.814650 0.946210 -0.557793
O19   O     O_R   0.743670 0.946210 0.185350 -0.558866
O20   O     O_R   0.256330 0.053790 0.814650 -0.566411
O21   O     O_R   0.743670 0.814650 0.946210 -0.555608
O22   O     O_R   0.256330 0.185350 0.053790 -0.577696
O23   O     O_R   0.743670 0.053790 0.814650 -0.567907
O24   O     O_R   0.314650 0.256330 0.553790 -0.562292
O25   O     O_R   0.256330 0.946210 0.185350 -0.578183
O26   O     O_R   0.256330 0.814650 0.053790 -0.559333
O27   O     O_R   0.743670 0.185350 0.946210 -0.577787
O28   O     O_R   0.256330 0.053790 0.185350 -0.573687
O29   O     O_R   0.743670 0.946210 0.814650 -0.558842
O30   O     O_R   0.256330 0.185350 0.946210 -0.572156
O31   O     O_R   0.743670 0.814650 0.053790 -0.560590
O32   O     O_R   0.256330 0.946210 0.814650 -0.568196
O33   O     O_R   0.743670 0.053790 0.185350 -0.573002
O34   O     O_R   0.814650 0.946210 0.743670 -0.564630
O35   O     O_R   0.446210 0.743670 0.314650 -0.563587
O36   O     O_R   0.185350 0.053790 0.256330 -0.558799
O37   O     O_R   0.053790 0.814650 0.743670 -0.561961
O38   O     O_R   0.946210 0.185350 0.256330 -0.564922
O39   O     O_R   0.185350 0.053790 0.743670 -0.558476
O40   O     O_R   0.814650 0.946210 0.256330 -0.562629
O41   O     O_R   0.946210 0.185350 0.743670 -0.570135
O42   O     O_R   0.053790 0.814650 0.256330 -0.560220
O43   O     O_R   0.185350 0.946210 0.256330 -0.556530
O44   O     O_R   0.814650 0.053790 0.743670 -0.563036
O45   O     O_R   0.946210 0.814650 0.256330 -0.556841
O46   O     O_R   0.553790 0.256330 0.685350 -0.565230
O47   O     O_R   0.053790 0.185350 0.743670 -0.555722
O48   O     O_R   0.814650 0.053790 0.256330 -0.565679
O49   O     O_R   0.185350 0.946210 0.743670 -0.567978
O50   O     O_R   0.053790 0.185350 0.256330 -0.562827
O51   O     O_R   0.946210 0.814650 0.743670 -0.557232
O52   O     O_R   0.553790 0.756330 0.814650 -0.552311
O53   O     O_R   0.446210 0.243670 0.185350 -0.558935
O54   O     O_R   0.185350 0.756330 0.553790 -0.571821
O55   O     O_R   0.814650 0.243670 0.446210 -0.574383
O56   O     O_R   0.446210 0.756330 0.185350 -0.581311
O57   O     O_R   0.314650 0.743670 0.553790 -0.579192
O58   O     O_R   0.553790 0.243670 0.814650 -0.576960
O59   O     O_R   0.814650 0.756330 0.446210 -0.561186
O60   O     O_R   0.185350 0.243670 0.553790 -0.563277
O61   O     O_R   0.553790 0.243670 0.185350 -0.582417
O62   O     O_R   0.446210 0.756330 0.814650 -0.573998
O63   O     O_R   0.185350 0.243670 0.446210 -0.573329
O64   O     O_R   0.814650 0.756330 0.553790 -0.565586
O65   O     O_R   0.446210 0.243670 0.814650 -0.561610
O66   O     O_R   0.553790 0.756330 0.185350 -0.558164
O67   O     O_R   0.814650 0.243670 0.553790 -0.570965
O68   O     O_R   0.685350 0.256330 0.446210 -0.569798
O69   O     O_R   0.185350 0.756330 0.446210 -0.581784
O70   O     O_R   0.243670 0.185350 0.553790 -0.572596
O71   O     O_R   0.756330 0.814650 0.446210 -0.573144
O72   O     O_R   0.243670 0.446210 0.185350 -0.559730
O73   O     O_R   0.756330 0.553790 0.814650 -0.565938
O74   O     O_R   0.243670 0.814650 0.446210 -0.561097
O75   O     O_R   0.756330 0.185350 0.553790 -0.563953
O76   O     O_R   0.243670 0.553790 0.814650 -0.581777
O77   O     O_R   0.756330 0.446210 0.185350 -0.581312
O78   O     O_R   0.756330 0.814650 0.553790 -0.572158
O79   O     O_R   0.743670 0.685350 0.553790 -0.561234
O80   O     O_R   0.243670 0.185350 0.446210 -0.569699
O81   O     O_R   0.756330 0.553790 0.185350 -0.564462
O82   O     O_R   0.243670 0.446210 0.814650 -0.558991
O83   O     O_R   0.756330 0.185350 0.446210 -0.562344
O84   O     O_R   0.243670 0.814650 0.553790 -0.563543
O85   O     O_R   0.756330 0.446210 0.814650 -0.580770
O86   O     O_R   0.243670 0.553790 0.185350 -0.577478
O87   O     O_R   0.814650 0.446210 0.243670 -0.554987
O88   O     O_R   0.185350 0.553790 0.756330 -0.556074
O89   O     O_R   0.553790 0.814650 0.243670 -0.575912
O90   O     O_R   0.256330 0.314650 0.446210 -0.576525
O91   O     O_R   0.446210 0.185350 0.756330 -0.571439
O92   O     O_R   0.185350 0.553790 0.243670 -0.563186
O93   O     O_R   0.814650 0.446210 0.756330 -0.559131
O94   O     O_R   0.446210 0.185350 0.243670 -0.574758
O95   O     O_R   0.553790 0.814650 0.756330 -0.573803
O96   O     O_R   0.185350 0.446210 0.756330 -0.575249
O97   O     O_R   0.814650 0.553790 0.243670 -0.566449
O98   O     O_R   0.446210 0.814650 0.756330 -0.553988
O99   O     O_R   0.553790 0.185350 0.243670 -0.555157
O100  O     O_R   0.814650 0.553790 0.756330 -0.570806
O101  O     O_R   0.743670 0.446210 0.685350 -0.564466
O102  O     O_R   0.185350 0.446210 0.243670 -0.574887
O103  O     O_R   0.553790 0.185350 0.756330 -0.556306
O104  O     O_R   0.446210 0.814650 0.243670 -0.552728
O105  O     O_R   0.446210 0.743670 0.685350 -0.562476
O106  O     O_R   0.256330 0.553790 0.314650 -0.563291
O107  O     O_R   0.743670 0.314650 0.446210 -0.571301
O108  O     O_R   0.256330 0.685350 0.553790 -0.558574
O109  O     O_R   0.743670 0.553790 0.314650 -0.579822
O110  O     O_R   0.256330 0.446210 0.685350 -0.575811
O111  O     O_R   0.256330 0.314650 0.553790 -0.562430
O112  O     O_R   0.743670 0.685350 0.446210 -0.565903
O113  O     O_R   0.256330 0.553790 0.685350 -0.555638
O114  O     O_R   0.743670 0.446210 0.314650 -0.564617
O115  O     O_R   0.256330 0.685350 0.446210 -0.565173
O116  O     O_R   0.685350 0.256330 0.553790 -0.576287
O117  O     O_R   0.743670 0.314650 0.553790 -0.567636
O118  O     O_R   0.256330 0.446210 0.314650 -0.575942
O119  O     O_R   0.743670 0.553790 0.685350 -0.575369
O120  O     O_R   0.314650 0.446210 0.743670 -0.556559
O121  O     O_R   0.685350 0.553790 0.256330 -0.558259
O122  O     O_R   0.553790 0.314650 0.743670 -0.572265
O123  O     O_R   0.446210 0.685350 0.256330 -0.576290
O124  O     O_R   0.685350 0.553790 0.743670 -0.556558
O125  O     O_R   0.314650 0.446210 0.256330 -0.557623
O126  O     O_R   0.446210 0.685350 0.743670 -0.578369
O127  O     O_R   0.314650 0.743670 0.446210 -0.568325
O128  O     O_R   0.553790 0.314650 0.256330 -0.580943
O129  O     O_R   0.685350 0.446210 0.256330 -0.576694
O130  O     O_R   0.314650 0.553790 0.743670 -0.581441
O131  O     O_R   0.446210 0.314650 0.256330 -0.556354
O132  O     O_R   0.553790 0.685350 0.743670 -0.561389
O133  O     O_R   0.314650 0.553790 0.256330 -0.577090
O134  O     O_R   0.685350 0.446210 0.743670 -0.566985
O135  O     O_R   0.553790 0.685350 0.256330 -0.555079
O136  O     O_R   0.446210 0.314650 0.743670 -0.556982
O137  O     O_R   0.053790 0.756330 0.314650 -0.570879
O138  O     O_R   0.446210 0.256330 0.685350 -0.576393
O139  O     O_R   0.946210 0.243670 0.685350 -0.567057
O140  O     O_R   0.685350 0.756330 0.053790 -0.564787
O141  O     O_R   0.314650 0.243670 0.946210 -0.569716
O142  O     O_R   0.946210 0.756330 0.685350 -0.580857
O143  O     O_R   0.053790 0.243670 0.314650 -0.577557
O144  O     O_R   0.314650 0.756330 0.946210 -0.569923
O145  O     O_R   0.685350 0.243670 0.053790 -0.572994
O146  O     O_R   0.053790 0.243670 0.685350 -0.577198
O147  O     O_R   0.946210 0.756330 0.314650 -0.575533
O148  O     O_R   0.685350 0.243670 0.946210 -0.554547
O149  O     O_R   0.553790 0.743670 0.314650 -0.581983
O150  O     O_R   0.314650 0.756330 0.053790 -0.573083
O151  O     O_R   0.946210 0.243670 0.314650 -0.564907
O152  O     O_R   0.053790 0.756330 0.685350 -0.571353
O153  O     O_R   0.314650 0.243670 0.053790 -0.566055
O154  O     O_R   0.685350 0.756330 0.946210 -0.564079
O155  O     O_R   0.243670 0.685350 0.053790 -0.570276
O156  O     O_R   0.756330 0.314650 0.946210 -0.569883
O157  O     O_R   0.243670 0.946210 0.685350 -0.569120
O158  O     O_R   0.756330 0.053790 0.314650 -0.562125
O159  O     O_R   0.243670 0.314650 0.946210 -0.573203
O160  O     O_R   0.314650 0.256330 0.446210 -0.555746
O161  O     O_R   0.756330 0.685350 0.053790 -0.567841
O162  O     O_R   0.243670 0.053790 0.314650 -0.581650
O163  O     O_R   0.756330 0.946210 0.685350 -0.573690
O164  O     O_R   0.756330 0.314650 0.053790 -0.581628
O165  O     O_R   0.243670 0.685350 0.946210 -0.567611
O166  O     O_R   0.756330 0.053790 0.685350 -0.568591
O167  O     O_R   0.243670 0.946210 0.314650 -0.576553
O168  O     O_R   0.756330 0.685350 0.946210 -0.573675
O169  O     O_R   0.243670 0.314650 0.053790 -0.569139
O170  O     O_R   0.756330 0.946210 0.314650 -0.577300
O171  O     O_R   0.685350 0.743670 0.553790 -0.573029
O172  O     O_R   0.243670 0.053790 0.685350 -0.570857
O173  O     O_R   0.314650 0.946210 0.243670 -0.553533
O174  O     O_R   0.685350 0.053790 0.756330 -0.566729
O175  O     O_R   0.053790 0.314650 0.243670 -0.578854
O176  O     O_R   0.946210 0.685350 0.756330 -0.562687
O177  O     O_R   0.685350 0.053790 0.243670 -0.560616
O178  O     O_R   0.314650 0.946210 0.756330 -0.562149
O179  O     O_R   0.946210 0.685350 0.243670 -0.566433
O180  O     O_R   0.053790 0.314650 0.756330 -0.567127
O181  O     O_R   0.685350 0.946210 0.756330 -0.571044
O182  O     O_R   0.553790 0.743670 0.685350 -0.577502
O183  O     O_R   0.314650 0.053790 0.243670 -0.559502
O184  O     O_R   0.946210 0.314650 0.756330 -0.557950
O185  O     O_R   0.053790 0.685350 0.243670 -0.555356
O186  O     O_R   0.314650 0.053790 0.756330 -0.562439
O187  O     O_R   0.685350 0.946210 0.243670 -0.578767
O188  O     O_R   0.053790 0.685350 0.756330 -0.558501
O189  O     O_R   0.946210 0.314650 0.243670 -0.560608
O190  O     O_R   0.053790 0.256330 0.814650 -0.563302
O191  O     O_R   0.946210 0.743670 0.185350 -0.570511
O192  O     O_R   0.185350 0.256330 0.053790 -0.561737
Zn1   Zn    Zn3+2 0.500000 0.210530 0.289470 1.211917
Zn2   Zn    Zn3+2 0.210530 0.289470 0.500000 1.194168
Zn3   Zn    Zn3+2 0.789470 0.500000 0.710530 1.205814
Zn4   Zn    Zn3+2 0.210530 0.500000 0.289470 1.202383
Zn5   Zn    Zn3+2 0.789470 0.289470 0.500000 1.195462
Zn6   Zn    Zn3+2 0.210530 0.710530 0.500000 1.200580
Zn7   Zn    Zn3+2 0.789470 0.500000 0.289470 1.202832
Zn8   Zn    Zn3+2 0.210530 0.500000 0.710530 1.211758
Zn9   Zn    Zn3+2 0.289470 0.500000 0.789470 1.193524
Zn10  Zn    Zn3+2 0.710530 0.500000 0.210530 1.192131
Zn11  Zn    Zn3+2 0.500000 0.289470 0.789470 1.204855
Zn12  Zn    Zn3+2 0.500000 0.789470 0.710530 1.203810
Zn13  Zn    Zn3+2 0.500000 0.710530 0.210530 1.201333
Zn14  Zn    Zn3+2 0.710530 0.500000 0.789470 1.195079
Zn15  Zn    Zn3+2 0.289470 0.500000 0.210530 1.195326
Zn16  Zn    Zn3+2 0.500000 0.710530 0.789470 1.202401
Zn17  Zn    Zn3+2 0.500000 0.289470 0.210530 1.193300
Zn18  Zn    Zn3+2 0.000000 0.710530 0.289470 1.204487
Zn19  Zn    Zn3+2 0.000000 0.289470 0.710530 1.200224
Zn20  Zn    Zn3+2 0.710530 0.710530 0.000000 1.205898
Zn21  Zn    Zn3+2 0.289470 0.289470 0.000000 1.202624
Zn22  Zn    Zn3+2 0.000000 0.710530 0.710530 1.196898
Zn23  Zn    Zn3+2 0.710530 0.210530 0.500000 1.207030
Zn24  Zn    Zn3+2 0.000000 0.289470 0.289470 1.196409
Zn25  Zn    Zn3+2 0.289470 0.710530 0.000000 1.191513
Zn26  Zn    Zn3+2 0.710530 0.289470 0.000000 1.189278
Zn27  Zn    Zn3+2 0.289470 1.000000 0.710530 1.208145
Zn28  Zn    Zn3+2 0.710530 1.000000 0.289470 1.204400
Zn29  Zn    Zn3+2 0.289470 1.000000 0.289470 1.203712
Zn30  Zn    Zn3+2 0.710530 1.000000 0.710530 1.203942
Zn31  Zn    Zn3+2 0.000000 0.210530 0.789470 1.212119
Zn32  Zn    Zn3+2 0.000000 0.789470 0.210530 1.194708
Zn33  Zn    Zn3+2 0.210530 0.210530 0.000000 1.205248
Zn34  Zn    Zn3+2 0.289470 0.789470 0.500000 1.198268
Zn35  Zn    Zn3+2 0.789470 0.789470 0.000000 1.204025
Zn36  Zn    Zn3+2 0.000000 0.210530 0.210530 1.213301
Zn37  Zn    Zn3+2 0.000000 0.789470 0.789470 1.195409
Zn38  Zn    Zn3+2 0.789470 0.210530 0.000000 1.201737
Zn39  Zn    Zn3+2 0.210530 0.789470 0.000000 1.190058
Zn40  Zn    Zn3+2 0.789470 1.000000 0.210530 1.209272
Zn41  Zn    Zn3+2 0.210530 0.000000 0.789470 1.210735
Zn42  Zn    Zn3+2 0.789470 0.000000 0.789470 1.209000
Zn43  Zn    Zn3+2 0.210530 1.000000 0.210530 1.200490
Zn44  Zn    Zn3+2 0.500000 0.210530 0.710530 1.207746
Zn45  Zn    Zn3+2 0.500000 0.789470 0.289470 1.198864
Zn46  Zn    Zn3+2 0.289470 0.210530 0.500000 1.200963
Zn47  Zn    Zn3+2 0.710530 0.789470 0.500000 1.186929
Zn48  Zn    Zn3+2 0.789470 0.710530 0.500000 1.199014

loop_
_geom_bond_atom_site_label_1
_geom_bond_atom_site_label_2
_ccdc_geom_bond_type
C10   C174  A    
C238  O168  A    
C8    C251  S    
C54   C282  S    
O128  Zn17  S    
C20   C144  A    
O27   Zn38  S    
C112  O126  A    
O90   Zn2   S    
C255  O20   A    
O84   Zn34  S    
C35   O123  A    
C195  Cl81  S    
C214  O144  A    
C68   O68   A    
C201  O141  A    
C157  O119  A    
C52   C144  A    
C24   O111  A    
O160  Zn46  S    
C53   C284  S    
C45   C222  S    
C214  O18   A    
C37   C161  A    
C113  O110  A    
C63   C270  S    
O121  Zn10  S    
C40   C239  S    
C62   C265  S    
C248  O32   A    
C66   C155  A    
C189  Cl75  S    
C244  O14   A    
C30   C168  S    
C262  O84   A    
C160  Cl46  S    
C54   C134  A    
C50   C110  A    
C269  O61   A    
O96   Zn8   S    
O80   Zn46  S    
C119  Cl5   S    
C16   C122  A    
O167  Zn29  S    
C236  O166  A    
C251  O29   A    
C194  Cl80  S    
C48   C125  A    
C155  Cl41  S    
C67   C164  A    
C129  Cl15  S    
C18   C177  A    
C196  Cl82  S    
C34   C127  A    
C21   C220  S    
C40   C138  A    
C14   C151  A    
C77   C181  A    
O147  Zn18  S    
O186  Zn27  S    
O137  Zn18  S    
C74   C263  S    
C80   C146  S    
C239  O192  A    
C51   C109  A    
O82   Zn9   S    
C59   C280  S    
C55   C283  S    
C103  C256  S    
O30   Zn33  S    
C237  O43   A    
C171  Cl57  S    
C176  Cl62  S    
O79   Zn48  S    
O42   Zn32  S    
C2    O2    A    
C95   C188  A    
O119  Zn3   S    
C7    C232  S    
C27   C117  A    
O108  Zn6   S    
C80   C196  A    
C22   C221  S    
O64   Zn48  S    
C258  O5    A    
C184  Cl70  S    
C259  O4    A    
C52   C132  A    
C12   C150  A    
C93   C200  A    
C53   C133  A    
C18   C111  A    
C229  O159  A    
O13   Zn47  S    
O161  Zn20  S    
O188  Zn22  S    
O76   Zn9   S    
C221  O152  A    
O61   Zn17  S    
C81   C124  S    
O139  Zn19  S    
C124  O113  A    
C5    C155  A    
C65   C166  A    
C283  O82   A    
C15   C227  S    
C67   C156  A    
C239  O169  A    
O180  Zn19  S    
C47   C115  A    
C43   C145  A    
O31   Zn35  S    
O9    Zn31  S    
C263  O83   A    
O35   Zn45  S    
C211  O51   A    
C114  Cl78  S    
C57   C97   S    
C50   C165  A    
C102  C191  A    
C207  Cl93  S    
O63   Zn2   S    
C33   C246  S    
C208  Cl94  S    
C86   C198  A    
C69   C260  S    
C38   C119  A    
C12   C242  S    
O114  Zn7   S    
C69   C163  A    
C258  O188  A    
C199  Cl85  S    
C277  O72   A    
O34   Zn42  S    
C104  C204  A    
O157  Zn27  S    
C7    C114  A    
O184  Zn19  S    
C73   C171  A    
C49   C133  A    
C190  O31   A    
C16   C228  S    
O49   Zn41  S    
C9    C116  A    
C31   C107  A    
C242  O173  A    
C36   C126  A    
C111  Cl67  S    
C219  O150  A    
C16   C184  A    
C13   O13   A    
O26   Zn39  S    
C243  O174  A    
C21   C172  A    
O70   Zn46  S    
O165  Zn25  S    
C190  O140  A    
C97   C195  A    
C168  O42   A    
C143  Cl29  S    
C124  O130  A    
C20   C125  A    
C86   C193  A    
C33   C149  A    
C70   C167  A    
C253  O184  A    
O120  Zn9   S    
C216  O47   A    
C39   C131  A    
C64   C159  A    
C234  O136  A    
O150  Zn25  S    
C2    O131  A    
C241  O172  A    
O170  Zn28  S    
O187  Zn28  S    
C232  O34   A    
C105  Cl1   S    
C63   C152  A    
C135  O129  A    
C167  Cl53  S    
C246  O176  A    
C188  Cl74  S    
O25   Zn43  S    
C23   C249  S    
O20   Zn41  S    
O141  Zn21  S    
O66   Zn13  S    
C80   C186  A    
C60   C281  S    
C197  Cl83  S    
C94   C205  A    
C247  O177  A    
C166  Cl52  S    
O95   Zn12  S    
O71   Zn47  S    
C268  O60   A    
C4    C109  A    
C34   C141  A    
O14   Zn36  S    
C141  Cl27  S    
C76   C266  S    
C181  Cl66  S    
O51   Zn37  S    
C6    C111  A    
O97   Zn7   S    
C273  O65   A    
O162  Zn29  S    
C204  Cl90  S    
C221  O37   A    
C145  Cl31  S    
O103  Zn44  S    
C19   C123  A    
C159  Cl44  S    
C29   C259  S    
C98   C199  A    
C279  O73   A    
O129  Zn10  S    
C30   C167  A    
O132  Zn16  S    
O11   Zn38  S    
C272  O78   A    
C146  O125  A    
O69   Zn6   S    
O134  Zn14  S    
C62   C161  A    
C74   C184  A    
C5    C110  A    
C200  Cl86  S    
C157  O124  A    
C82   C135  S    
C57   O108  A    
C219  O26   A    
C116  Cl2   S    
C248  O178  A    
C42   C215  S    
C272  O64   A    
O124  Zn14  S    
C191  Cl76  S    
O52   Zn16  S    
C19   C253  S    
C29   C129  A    
C91   C197  A    
O126  Zn16  S    
C284  O93   A    
O159  Zn21  S    
O102  Zn4   S    
O131  Zn17  S    
C215  O145  A    
C146  O118  A    
C271  O80   A    
O8    Zn32  S    
C253  O9    A    
C58   C138  A    
C95   C206  A    
C242  O25   A    
C152  Cl38  S    
C32   C244  S    
C120  Cl6   S    
C123  Cl9   S    
C28   C139  A    
C150  Cl36  S    
C83   C202  A    
O62   Zn16  S    
C67   C261  S    
O104  Zn45  S    
O21   Zn35  S    
C70   C276  S    
C230  O15   A    
C65   C273  S    
C61   C162  A    
C223  O127  A    
C43   C129  A    
C87   C193  A    
C278  O182  A    
C228  O48   A    
O22   Zn33  S    
O105  Zn12  S    
C126  Cl11  S    
C100  C223  S    
C278  O132  A    
C64   C153  A    
C82   C188  A    
O46   Zn44  S    
C3    C180  A    
O78   Zn47  S    
C153  Cl39  S    
O189  Zn24  S    
C81   C195  A    
C12   C119  A    
O83   Zn23  S    
C58   C277  S    
C1    C95   S    
O77   Zn10  S    
C5    C257  S    
C266  O59   A    
C45   C156  A    
O7    Zn39  S    
C209  Cl95  S    
O36   Zn43  S    
C250  O180  A    
C11   C175  A    
C60   C140  A    
C23   C126  A    
C135  O114  A    
O58   Zn11  S    
C1    O1    A    
C227  O157  A    
C11   C241  S    
O109  Zn7   S    
C34   C229  S    
C122  Cl8   S    
C220  O38   A    
C148  Cl33  S    
C22   C173  A    
C92   C202  A    
C90   O106  A    
C6    C170  A    
O163  Zn30  S    
C29   C140  A    
C271  O63   A    
C280  O76   A    
O154  Zn20  S    
C23   C134  A    
C130  Cl16  S    
O181  Zn30  S    
C38   C219  S    
C224  O154  A    
O56   Zn13  S    
C26   C118  A    
C132  Cl18  S    
O67   Zn5   S    
C269  O99   A    
C248  C287  S    
C102  C209  A    
C267  O171  A    
C205  Cl91  S    
C3    C108  A    
O40   Zn40  S    
O169  Zn21  S    
O19   Zn40  S    
C28   C258  S    
C77   C268  S    
C263  O55   A    
C147  Cl32  S    
C265  O103  A    
C160  C287  A    
C247  O33   A    
C76   C174  A    
C10   C117  A    
C177  Cl63  S    
C56   C137  A    
C264  O104  A    
C45   C116  A    
C210  Cl96  S    
O55   Zn5   S    
C222  O153  A    
C121  Cl7   S    
C277  O102  A    
C99   C198  A    
O75   Zn23  S    
O113  Zn8   S    
C250  O190  A    
C13   O112  A    
O32   Zn41  S    
O4    Zn36  S    
C131  Cl17  S    
O115  Zn6   S    
C87   C208  A    
C186  Cl72  S    
C51   C201  S    
C238  O3    A    
C174  Cl60  S    
O107  Zn5   S    
C268  O70   A    
C274  O89   A    
O152  Zn22  S    
C35   O35   A    
C203  Cl88  S    
O101  Zn3   S    
C59   C147  A    
O143  Zn24  S    
C136  Cl21  S    
C4    C154  A    
C55   C141  A    
C7    C171  A    
C142  Cl28  S    
O168  Zn20  S    
O65   Zn11  S    
C104  C267  S    
C165  Cl51  S    
O183  Zn29  S    
C213  O143  A    
C39   C137  A    
C233  O164  A    
C254  O8    A    
O12   Zn37  S    
O93   Zn3   S    
O37   Zn37  S    
C158  Cl43  S    
O123  Zn13  S    
C192  Cl77  S    
C68   C96   S    
C262  O54   A    
C86   C113  S    
C246  O12   A    
C37   C218  S    
C71   C178  A    
C233  O11   A    
C173  Cl59  S    
C281  O77   A    
C75   C173  A    
O164  Zn26  S    
C55   C136  A    
C245  O135  A    
O3    Zn35  S    
C179  O41   A    
C44   C147  A    
O140  Zn20  S    
C84   C191  A    
C26   C216  S    
C21   C122  A    
O68   Zn23  S    
O47   Zn31  S    
C170  Cl55  S    
C139  Cl25  S    
O45   Zn32  S    
O50   Zn36  S    
C201  O30   A    
C254  O185  A    
C79   O101  A    
C125  Cl10  S    
C274  O66   A    
O112  Zn48  S    
C15   C183  A    
O86   Zn15  S    
C11   C118  A    
C72   C271  S    
C71   C169  A    
C113  O120  A    
C154  Cl40  S    
O99   Zn1   S    
C273  O91   A    
C179  O139  A    
O2    Zn1   S    
C198  Cl84  S    
C35   C92   S    
C252  O28   A    
C261  O94   A    
C163  Cl49  S    
O173  Zn29  S    
O144  Zn25  S    
C212  O116  A    
O190  Zn31  S    
C117  Cl3   S    
C56   C279  S    
C169  Cl54  S    
C118  Cl4   S    
C187  Cl73  S    
C247  C286  S    
O10   Zn39  S    
O72   Zn15  S    
C225  O155  A    
C91   C278  S    
C226  O156  A    
C159  C286  A    
C62   C151  A    
C225  O7    A    
O111  Zn2   S    
C256  O90   A    
C180  Cl65  S    
C9    C252  S    
O53   Zn17  S    
C41   C106  A    
C44   C235  S    
C223  O115  A    
C245  O149  A    
C31   C169  A    
O110  Zn8   S    
O125  Zn15  S    
C106  C287  A    
C31   C179  S    
C2    C89   S    
C127  Cl13  S    
C228  O158  A    
C222  O22   A    
O94   Zn1   S    
C138  Cl24  S    
C25   C250  S    
C226  O6    A    
C128  Cl14  S    
C59   C139  A    
C178  Cl64  S    
C168  O137  A    
C232  O163  A    
C275  O75   A    
C283  O96   A    
O60   Zn2   S    
C78   C185  A    
C149  Cl35  S    
C20   C254  S    
C182  Cl68  S    
O172  Zn27  S    
O98   Zn12  S    
O192  Zn33  S    
C54   C142  A    
C27   C217  S    
C14   C120  A    
C257  O187  A    
C43   C233  S    
C185  Cl71  S    
C98   C207  A    
C66   C274  S    
C92   C210  A    
C88   C207  A    
C112  O105  A    
C133  Cl19  S    
O117  Zn5   S    
C22   C121  A    
O38   Zn36  S    
C88   C192  A    
C90   O133  A    
C40   C130  A    
C46   O122  A    
C231  O162  A    
C237  O167  A    
C30   C108  A    
C218  O27   A    
C83   C189  A    
O145  Zn26  S    
C17   C211  S    
C73   C272  S    
O127  Zn34  S    
C110  Cl56  S    
C46   O46   A    
C32   C148  A    
C260  O95   A    
O138  Zn44  S    
C57   O57   A    
O54   Zn6   S    
C1    O128  A    
C217  O45   A    
C99   C208  A    
C73   C176  A    
O59   Zn48  S    
C25   C127  A    
C276  O74   A    
C251  O181  A    
O43   Zn43  S    
C48   C225  S    
O88   Zn8   S    
C79   C84   S    
C230  O161  A    
O191  Zn32  S    
C100  C210  A    
O85   Zn14  S    
C50   C190  S    
C42   C105  A    
C82   C194  A    
C64   C269  S    
C66   C165  A    
C101  O109  A    
C14   C243  S    
C270  O62   A    
C26   C181  A    
C172  Cl58  S    
C49   C123  A    
C164  Cl50  S    
C48   C132  A    
O156  Zn26  S    
C97   C205  A    
O91   Zn44  S    
C28   C128  A    
O24   Zn46  S    
C213  O50   A    
C47   C224  S    
C235  O165  A    
C10   C240  S    
C68   O107  A    
O44   Zn42  S    
C9    C164  A    
C24   C99   S    
C183  Cl69  S    
C100  C189  A    
O87   Zn7   S    
C75   C183  A    
C266  O71   A    
C255  O186  A    
C220  O151  A    
C32   C130  A    
C279  O100  A    
C285  O86   A    
C41   C152  A    
C84   C200  A    
C85   C192  A    
C104  C185  A    
C46   C93   S    
O41   Zn31  S    
C87   C234  S    
O171  Zn47  S    
O57   Zn34  S    
C270  O98   A    
O18   Zn39  S    
O6    Zn38  S    
C58   C148  A    
C77   C175  A    
C282  O97   A    
C24   O24   A    
C206  Cl92  S    
C94   C112  S    
C13   C98   S    
C217  O147  A    
C25   C136  A    
C218  O148  A    
C8    C115  A    
C88   C245  S    
C85   C199  A    
C285  O92   A    
O116  Zn23  S    
C249  O191  A    
C193  Cl79  S    
C227  O49   A    
C236  C288  S    
C78   C197  A    
C282  O81   A    
O33   Zn40  S    
O118  Zn4   S    
C61   C150  A    
C151  Cl37  S    
C74   C172  A    
C17   C176  A    
O135  Zn13  S    
C134  Cl20  S    
C33   C131  A    
C75   C262  S    
C140  Cl26  S    
C71   C275  S    
O74   Zn34  S    
C6    C231  S    
C202  Cl87  S    
C103  C186  A    
C267  O79   A    
C72   C177  A    
C260  O52   A    
C76   C182  A    
C261  O53   A    
C17   C114  A    
O146  Zn19  S    
O29   Zn42  S    
C101  O121  A    
O16   Zn33  S    
O28   Zn43  S    
C108  Cl34  S    
O48   Zn40  S    
O89   Zn45  S    
C281  O87   A    
C42   C153  A    
C36   C142  A    
C94   C187  A    
O142  Zn22  S    
C252  O183  A    
O158  Zn28  S    
C265  O58   A    
C236  O44   A    
C107  Cl23  S    
C52   C285  S    
C79   O134  A    
C216  O146  A    
C212  O117  A    
O106  Zn4   S    
C215  O17   A    
C162  Cl48  S    
C89   C196  A    
O148  Zn26  S    
C102  C212  S    
O136  Zn11  S    
C41   C214  S    
C53   C143  A    
C72   C170  A    
O122  Zn11  S    
C241  O39   A    
O1    Zn1   S    
O73   Zn14  S    
C65   C154  A    
C115  Cl89  S    
C78   C157  S    
C96   C206  A    
O174  Zn30  S    
O166  Zn30  S    
C235  O10   A    
C178  C288  A    
C69   C158  A    
C249  O179  A    
O179  Zn18  S    
O130  Zn9   S    
C144  Cl30  S    
C3    C237  S    
O182  Zn12  S    
C224  O21   A    
C89   C203  A    
O151  Zn24  S    
C93   C209  A    
O176  Zn22  S    
C257  O19   A    
C18   C213  S    
O133  Zn15  S    
C96   C194  A    
C85   C101  S    
C256  O160  A    
O100  Zn3   S    
C243  O23   A    
C284  O85   A    
C83   C90   S    
C44   C128  A    
C19   C143  A    
C15   C121  A    
C244  O175  A    
O23   Zn42  S    
C275  O67   A    
C240  O170  A    
C91   C204  A    
C61   C264  S    
O153  Zn21  S    
O92   Zn4   S    
C8    C163  A    
C137  Cl22  S    
C211  O142  A    
O149  Zn45  S    
O17   Zn38  S    
O81   Zn10  S    
C63   C160  A    
C105  C286  A    
O175  Zn24  S    
C107  C288  A    
C49   C226  S    
C27   C182  A    
C156  Cl42  S    
C109  Cl45  S    
C280  O88   A    
C264  O56   A    
C231  O36   A    
C175  Cl61  S    
C37   C120  A    
C161  Cl47  S    
O155  Zn25  S    
O5    Zn37  S    
C259  O189  A    
C229  O16   A    
C103  C203  A    
C276  O69   A    
C234  O138  A    
C240  O40   A    
O178  Zn27  S    
C38   C162  A    
C36   C230  S    
C60   C145  A    
O15   Zn35  S    
O39   Zn41  S    
O185  Zn18  S    
C51   C166  A    
O177  Zn28  S    
C4    C255  S    
C56   C149  A    
C106  Cl12  S    
C81   C187  A    
C39   C238  S    
C70   C180  A    
C47   C158  A    
