data_mof_unit_61951.cif
_audit_creation_date              2012-10-26T20:29:02-0400
_audit_creation_method            fapswitch 2.2
_symmetry_space_group_name_H-M    P1
_symmetry_Int_Tables_number       1
_space_group_crystal_system       triclinic
_cell_length_a                    15.094351
_cell_length_b                    13.83235
_cell_length_c                    19.462949
_cell_angle_alpha                 89.958257
_cell_angle_beta                  90.192722
_cell_angle_gamma                 89.934535
_cell_volume                      4063.64912629

loop_
_atom_site_label
_atom_site_type_symbol
_atom_type_description
_atom_site_fract_x
_atom_site_fract_y
_atom_site_fract_z
_atom_type_partial_charge
C1    C     C_R   0.330103 0.500098 0.499462 0.524508
C2    C     C_R   0.951286 0.498437 0.501669 0.007325
C3    C     C_R   0.561306 0.106838 0.539745 0.365995
C4    C     C_R   0.561181 0.893110 0.460602 0.371477
C5    C     C_R   0.438706 0.106984 0.460421 0.373298
C6    C     C_R   0.439041 0.893132 0.539699 0.369636
C7    C     C_R   0.559864 0.208804 0.539355 0.488291
C8    C     C_R   0.559781 0.791146 0.460930 0.498349
C9    C     C_R   0.440092 0.208946 0.460739 0.498043
C10   C     C_R   0.440441 0.791156 0.539308 0.497235
C11   C     C_R   0.500026 0.054391 0.500096 0.002845
C12   C     C_R   0.669797 0.499922 0.500198 0.532919
C13   C     C_R   0.500065 0.945643 0.500120 0.003056
C14   C     C_R   0.500795 0.499976 0.367618 0.557440
C15   C     C_R   0.500181 0.499971 0.632109 0.579112
C16   C     C_R   0.558922 0.437859 0.742714 0.326775
C17   C     C_R   0.540393 0.577801 0.256230 0.335193
C18   C     C_R   0.467961 0.421159 0.255108 0.315410
C19   C     C_R   0.445369 0.562294 0.743557 0.327568
C20   C     C_R   0.561027 0.438917 0.814241 -0.095766
C21   C     C_R   0.542550 0.577226 0.184700 -0.096633
C22   C     C_R   0.468709 0.421927 0.183596 -0.098437
C23   C     C_R   0.185937 0.536985 0.443109 0.005388
C24   C     C_R   0.446333 0.561783 0.815112 -0.095440
C25   C     C_R   0.504460 0.500477 0.851196 -0.090237
C26   C     C_R   0.506162 0.499729 0.147651 -0.092499
C27   C     C_R   0.501356 0.499920 0.707065 0.009729
C28   C     C_R   0.502895 0.499742 0.292147 -0.003313
C29   C     C_R   0.493978 0.586979 0.963738 -0.094827
C30   C     C_R   0.519990 0.413878 0.035103 -0.095084
C31   C     C_R   0.493738 0.586680 0.035275 -0.095181
C32   C     C_R   0.518688 0.413908 0.963583 -0.095006
C33   C     C_R   0.506890 0.500145 0.071723 0.037154
C34   C     C_R   0.812686 0.463148 0.443261 0.009548
C35   C     C_R   0.505850 0.500490 0.927126 0.036982
C36   C     C_R   0.093497 0.536133 0.444660 -0.086983
C37   C     C_R   0.905139 0.462686 0.444718 -0.091200
C38   C     C_R   0.905013 0.534300 0.558290 -0.088670
C39   C     C_R   0.095575 0.463683 0.557981 -0.090392
C40   C     C_3   0.231190 0.573736 0.378785 -0.299650
C41   C     C_3   0.260578 0.489972 0.333299 -0.388118
C42   C     C_3   0.766370 0.426641 0.379107 -0.273505
C43   C     C_3   0.759909 0.316569 0.379529 -0.388475
C44   C     C_3   0.765889 0.572068 0.622376 -0.268049
C45   C     C_R   0.812504 0.535022 0.558734 0.011075
C46   C     C_3   0.760244 0.682202 0.621853 -0.397770
C47   C     C_3   0.235678 0.426850 0.621788 -0.266347
C48   C     C_3   0.241552 0.316724 0.621244 -0.397646
C49   C     C_R   0.188115 0.463932 0.558294 0.013156
C50   C     C_R   0.233627 0.500395 0.500304 0.080292
C51   C     C_R   0.766103 0.499576 0.500679 0.081146
C52   C     C_R   0.048349 0.499427 0.501521 0.006870
Cu1   Cu    Cu3+1 0.500000 0.596430 0.500000 1.147422
Cu2   Cu    Cu3+1 0.500000 0.403570 0.500000 1.132976
F1    F     F_    0.615041 0.378456 0.708336 -0.564599
F2    F     F_    0.618793 0.742362 0.421722 -0.501734
F3    F     F_    0.381003 0.257834 0.421291 -0.518195
F4    F     F_    0.381858 0.742351 0.578869 -0.498658
F5    F     F_    0.577210 0.653589 0.290093 -0.546460
F6    F     F_    0.430815 0.344591 0.287744 -0.565589
F7    F     F_    0.387956 0.621585 0.710021 -0.564561
F8    F     F_    0.621738 0.059600 0.579206 -0.546632
F9    F     F_    0.621473 0.940266 0.421366 -0.542393
F10   F     F_    0.378255 0.059890 0.421031 -0.539604
F11   F     F_    0.378897 0.940317 0.579095 -0.544900
F12   F     F_    0.618740 0.257569 0.578929 -0.502900
H1    H     H_    0.607863 0.392440 0.840582 0.160278
H2    H     H_    0.941388 0.434293 0.401152 0.120377
H3    H     H_    0.941154 0.562469 0.602138 0.123949
H4    H     H_    0.060154 0.434939 0.601837 0.123241
H5    H     H_    0.293542 0.518736 0.286666 0.149476
H6    H     H_    0.307891 0.442550 0.361148 0.235565
H7    H     H_    0.202300 0.446475 0.317174 0.179524
H8    H     H_    0.185278 0.620125 0.348434 0.160388
H9    H     H_    0.288750 0.620061 0.391831 0.183814
H10   H     H_    0.827127 0.283818 0.380549 0.171190
H11   H     H_    0.722253 0.291360 0.425053 0.206263
H12   H     H_    0.573779 0.637099 0.158393 0.162859
H13   H     H_    0.724986 0.291840 0.332426 0.165924
H14   H     H_    0.698974 0.457880 0.373539 0.166870
H15   H     H_    0.803639 0.450050 0.332817 0.156433
H16   H     H_    0.723131 0.707782 0.575943 0.203478
H17   H     H_    0.725134 0.707360 0.668597 0.162366
H18   H     H_    0.827705 0.714195 0.621492 0.173991
H19   H     H_    0.698215 0.541616 0.627187 0.180485
H20   H     H_    0.802536 0.548246 0.669073 0.164755
H21   H     H_    0.277987 0.291320 0.575178 0.203831
H22   H     H_    0.277452 0.291565 0.667837 0.163158
H23   H     H_    0.438664 0.362016 0.156423 0.163181
H24   H     H_    0.174160 0.284552 0.621175 0.172615
H25   H     H_    0.303339 0.457469 0.626434 0.181659
H26   H     H_    0.199598 0.450482 0.668584 0.164524
H27   H     H_    0.400628 0.608447 0.842176 0.160350
H28   H     H_    0.485324 0.655145 0.937175 0.124901
H29   H     H_    0.531698 0.346235 0.061650 0.123726
H30   H     H_    0.482211 0.654153 0.061955 0.123960
H31   H     H_    0.526773 0.345820 0.936930 0.124802
H32   H     H_    0.056275 0.563973 0.401198 0.122911
N1    N     N_R   0.500000 0.258690 0.500000 -0.323233
N2    N     N_R   0.500000 0.741310 0.500000 -0.324861
O1    O     O_R   0.371460 0.581430 0.500010 -0.463556
O2    O     O_R   0.628540 0.418570 0.499990 -0.468678
O3    O     O_R   0.628540 0.581430 0.499990 -0.476248
O4    O     O_R   0.371460 0.418570 0.500010 -0.484454
O5    O     O_R   0.500020 0.581470 0.400190 -0.432128
O6    O     O_R   0.499980 0.418530 0.599810 -0.444156
O7    O     O_R   0.499980 0.581470 0.599810 -0.446092
O8    O     O_R   0.500020 0.418530 0.400190 -0.438200

loop_
_geom_bond_atom_site_label_1
_geom_bond_atom_site_label_2
_ccdc_geom_bond_type
C21   C26   A    
C42   H14   S    
C34   C37   A    
C47   H26   S    
C20   H1    S    
C34   C42   S    
C4    C8    A    
C8    F2    S    
C47   C49   S    
Cu1   Cu2   S    
C5    C9    A    
C4    F9    S    
C34   C51   A    
C7    N1    A    
C15   O6    A    
Cu2   O4    S    
C10   F4    S    
C19   F7    S    
C5    C11   A    
C3    C7    A    
C29   H28   S    
C20   C25   A    
C45   C51   A    
C43   H13   S    
C23   C40   S    
C37   H2    S    
C32   H31   S    
C15   O7    A    
C4    C13   A    
C2    C38   A    
C38   C45   A    
C46   H16   S    
C39   H4    S    
C14   O5    A    
Cu1   O1    S    
C21   H12   S    
C31   C33   A    
C19   C27   A    
C1    C50   S    
C36   C52   A    
C41   H5    S    
C16   C27   A    
C14   O8    A    
C39   C52   A    
C38   H3    S    
C9    N1    A    
C48   H24   S    
C42   H15   S    
C44   H20   S    
C44   C46   S    
C6    F11   S    
Cu1   N2    S    
Cu2   O6    S    
C32   C35   A    
C18   C28   A    
C24   C25   A    
C12   O3    A    
C23   C50   A    
C17   C21   A    
C5    F10   S    
C12   O2    A    
C30   H29   S    
Cu1   O7    S    
C26   C33   S    
C15   C27   S    
C47   C48   S    
C16   C20   A    
C48   H22   S    
C48   H21   S    
C10   N2    A    
C1    O4    A    
C2    C52   S    
C17   F5    S    
C41   H6    S    
C46   H18   S    
C18   F6    S    
C40   C41   S    
C39   C49   A    
C25   C35   S    
C23   C36   A    
Cu2   N1    S    
C42   C43   S    
C44   H19   S    
C1    O1    A    
C12   C51   S    
C44   C45   S    
C3    F8    S    
C43   H10   S    
C30   C33   A    
C18   C22   A    
C17   C28   A    
C47   H25   S    
Cu2   O2    S    
C6    C10   A    
C43   H11   S    
C29   C35   A    
C40   H9    S    
Cu2   O8    S    
C19   C24   A    
C8    N2    A    
C16   F1    S    
C29   C31   A    
C24   H27   S    
C7    F12   S    
C30   C32   A    
C11   C13   S    
C2    C37   A    
Cu1   O3    S    
C22   H23   S    
C40   H8    S    
C9    F3    S    
C3    C11   A    
C41   H7    S    
C46   H17   S    
Cu1   O5    S    
C49   C50   A    
C22   C26   A    
C36   H32   S    
C14   C28   S    
C31   H30   S    
C6    C13   A    
