data_mof_unit_62770.cif
_audit_creation_date              2012-12-10T18:16:54-0500
_audit_creation_method            fapswitch 2.2
_symmetry_space_group_name_H-M    P1
_symmetry_Int_Tables_number       1
_space_group_crystal_system       triclinic
_cell_length_a                    29.188307
_cell_length_b                    29.188346
_cell_length_c                    38.742408
_cell_angle_alpha                 89.968123
_cell_angle_beta                  89.977834
_cell_angle_gamma                 90.003397
_cell_volume                      33006.9124449

loop_
_atom_site_label
_atom_site_type_symbol
_atom_type_description
_atom_site_fract_x
_atom_site_fract_y
_atom_site_fract_z
_atom_type_partial_charge
C1    C     C_R   0.499999 0.913192 0.000003 0.888066
C2    C     C_1   0.229402 0.500003 0.000015 0.007365
C3    C     C_R   0.999961 0.500056 0.894424 -0.144686
C4    C     C_R   0.999849 0.500157 0.605552 -0.141269
C5    C     C_R   0.499691 0.999820 0.605612 -0.151920
C6    C     C_R   0.000002 0.499893 0.394394 -0.149439
C7    C     C_R   0.499849 0.000163 0.394448 -0.141245
C8    C     C_R   0.499101 0.001149 0.284722 0.312499
C9    C     C_R   0.000638 0.501039 0.284710 0.299596
C10   C     C_R   0.500244 0.000258 0.715293 0.312525
C11   C     C_R   0.998879 0.500926 0.715278 0.312500
C12   C     C_R   0.999522 0.500684 0.784692 0.319043
C13   C     C_1   0.500004 0.229402 0.000019 0.007434
C14   C     C_R   0.500402 0.000578 0.784707 0.318993
C15   C     C_R   0.000018 0.500083 0.215309 0.305784
C16   C     C_R   0.499348 0.000499 0.215307 0.319044
C17   C     C_1   0.499996 0.862564 0.999995 -0.218697
C18   C     C_1   0.137436 0.500003 0.000005 -0.218764
C19   C     C_1   0.500004 0.137436 0.000007 -0.218603
C20   C     C_1   0.862564 0.499996 0.999995 -0.218696
C21   C     C_1   0.999997 0.362564 0.499989 -0.219164
C22   C     C_1   0.637435 0.000001 0.500042 -0.221407
C23   C     C_1   0.000000 0.637435 0.499964 -0.221313
C24   C     C_1   0.770598 0.499996 0.999987 0.007457
C25   C     C_1   0.362564 0.999997 0.500002 -0.218801
C26   C     C_1   0.499996 0.820388 0.999988 0.006757
C27   C     C_1   0.179612 0.500004 0.000010 0.006556
C28   C     C_1   0.500004 0.179612 0.000013 0.006740
C29   C     C_1   0.820388 0.499995 0.999991 0.006778
C30   C     C_1   0.999997 0.320388 0.499986 0.006287
C31   C     C_1   0.679611 0.000001 0.500035 0.006205
C32   C     C_1   0.000001 0.679611 0.499983 0.006463
C33   C     C_1   0.320388 0.999997 0.499994 0.006690
C34   C     C_3   0.465088 0.919627 0.104342 -0.868805
C35   C     C_1   0.999998 0.270598 0.499980 0.007205
C36   C     C_3   0.080881 0.465662 0.104336 -0.861624
C37   C     C_3   0.534883 0.080438 0.104133 -0.868613
C38   C     C_3   0.918963 0.533154 0.104232 -0.869287
C39   C     C_3   0.466163 0.081025 0.895886 -0.869401
C40   C     C_3   0.080374 0.534931 0.895674 -0.868780
C41   C     C_3   0.534048 0.919402 0.895675 -0.868925
C42   C     C_3   0.919568 0.465123 0.895851 -0.868641
C43   C     C_3   0.966619 0.418889 0.604485 -0.861807
C44   C     C_3   0.578624 0.963909 0.602631 -0.864043
C45   C     C_3   0.032191 0.581601 0.604022 -0.870306
C46   C     C_1   0.729401 0.000001 0.500030 0.007508
C47   C     C_3   0.419494 0.034950 0.604440 -0.869518
C48   C     C_3   0.964385 0.578913 0.397539 -0.863360
C49   C     C_3   0.581113 0.033401 0.395533 -0.861966
C50   C     C_3   0.035906 0.419874 0.395254 -0.861785
C51   C     C_3   0.418409 0.967809 0.395960 -0.870137
C52   C     C_3   0.456757 0.925078 0.180543 -0.868204
C53   C     C_3   0.077176 0.458036 0.179022 -0.859785
C54   C     C_3   0.542591 0.075463 0.180372 -0.868618
C55   C     C_3   0.923520 0.540205 0.180522 -0.867122
C56   C     C_3   0.459029 0.076548 0.819567 -0.868317
C57   C     C_1   0.000001 0.729401 0.500002 0.007592
C58   C     C_3   0.074930 0.543283 0.819472 -0.868249
C59   C     C_3   0.542203 0.924737 0.819456 -0.868789
C60   C     C_3   0.924555 0.457429 0.819614 -0.868606
C61   C     C_3   0.958427 0.422872 0.679126 -0.860679
C62   C     C_3   0.576309 0.956600 0.679019 -0.870158
C63   C     C_3   0.037955 0.577902 0.680414 -0.867868
C64   C     C_3   0.424878 0.042557 0.680688 -0.868475
C65   C     C_3   0.958272 0.577555 0.321109 -0.869462
C66   C     C_3   0.577141 0.041610 0.320891 -0.860693
C67   C     C_3   0.043996 0.424669 0.320634 -0.859823
C68   C     C_1   0.270598 0.999998 0.499986 0.007364
C69   C     C_3   0.422124 0.962057 0.319569 -0.867811
C70   C     C_1   0.499997 0.728419 0.999975 0.007197
C71   C     C_1   0.271581 0.500003 0.000018 0.007132
C72   C     C_1   0.500003 0.271581 0.000024 0.007182
C73   C     C_R   0.086808 0.500001 0.999999 0.887876
C74   C     C_1   0.728419 0.499997 0.999984 0.007196
C75   C     C_1   0.999998 0.228419 0.499976 0.006989
C76   C     C_1   0.771580 0.000001 0.500027 0.006953
C77   C     C_1   0.000001 0.771580 0.500014 0.007026
C78   C     C_1   0.228419 0.999998 0.499982 0.007115
C79   C     C_1   0.499998 0.678626 0.999973 0.004775
C80   C     C_1   0.321374 0.500002 0.000020 0.004731
C81   C     C_1   0.500002 0.321374 0.000027 0.004762
C82   C     C_1   0.678626 0.499998 0.999981 0.004777
C83   C     C_1   0.999999 0.178626 0.499973 0.004632
C84   C     C_R   0.500001 0.086808 0.000003 0.887813
C85   C     C_1   0.821373 0.000000 0.500023 0.004652
C86   C     C_1   0.000000 0.821373 0.500022 0.004710
C87   C     C_1   0.178626 0.999999 0.499981 0.004714
C88   C     C_1   0.499999 0.636445 0.999976 -0.202024
C89   C     C_1   0.363555 0.500001 0.000017 -0.202047
C90   C     C_1   0.500001 0.363555 0.000024 -0.202033
C91   C     C_1   0.636445 0.499999 0.999984 -0.202020
C92   C     C_1   1.000000 0.136445 0.499976 -0.202129
C93   C     C_1   0.863555 0.000000 0.500018 -0.202119
C94   C     C_1   0.000000 0.863555 0.500022 -0.202082
C95   C     C_R   0.913192 0.499999 0.999997 0.888141
C96   C     C_1   0.136445 0.999999 0.499983 -0.202082
C97   C     C_R   0.414197 0.500000 0.000006 0.881606
C98   C     C_R   0.500000 0.414197 0.000008 0.881606
C99   C     C_R   0.585802 0.500000 0.999994 0.881611
C100  C     C_R   0.500000 0.585803 0.999992 0.881608
C101  C     C_R   0.914197 1.000000 0.500006 0.881602
C102  C     C_R   1.000000 0.914197 0.500008 0.881610
C103  C     C_R   0.085803 1.000000 0.499994 0.881623
C104  C     C_R   0.000000 0.085803 0.499991 0.881613
C105  C     C_R   0.499991 0.999978 0.067960 0.935449
C106  C     C_R   0.999999 0.413192 0.499990 0.888494
C107  C     C_R   0.000115 0.499985 0.067957 0.935637
C108  C     C_R   0.500015 0.000049 0.932042 0.935630
C109  C     C_R   0.000021 0.500013 0.932040 0.935507
C110  C     C_R   0.999981 0.499925 0.567953 0.936172
C111  C     C_R   0.499947 0.999965 0.567961 0.942787
C112  C     C_R   0.999995 0.499848 0.432039 0.942732
C113  C     C_R   0.500074 0.000022 0.432047 0.936097
C114  C     C_R   0.481505 0.961972 0.123537 0.136134
C115  C     C_R   0.038461 0.482257 0.123459 0.124989
C116  C     C_R   0.518299 0.038210 0.123440 0.136197
C117  C     C_R   0.586807 0.999999 0.500056 0.893975
C118  C     C_R   0.961473 0.517284 0.123500 0.136288
C119  C     C_R   0.482349 0.038688 0.876563 0.136250
C120  C     C_R   0.038033 0.518515 0.876470 0.136130
C121  C     C_R   0.518104 0.961951 0.876474 0.136246
C122  C     C_R   0.961797 0.481715 0.876552 0.136199
C123  C     C_R   0.982512 0.461627 0.623521 0.125283
C124  C     C_R   0.537895 0.981470 0.623301 0.125960
C125  C     C_R   0.016507 0.539087 0.623403 0.136616
C126  C     C_R   0.461764 0.018303 0.623614 0.139314
C127  C     C_R   0.982099 0.538356 0.376766 0.125831
C128  C     C_R   0.999999 0.586807 0.499934 0.894131
C129  C     C_R   0.538380 0.017508 0.376487 0.125302
C130  C     C_R   0.018630 0.462166 0.376323 0.128017
C131  C     C_R   0.460924 0.983502 0.376588 0.136600
C132  C     C_R   0.479663 0.963071 0.159916 0.168738
C133  C     C_R   0.037618 0.480416 0.159799 0.168647
C134  C     C_R   0.519817 0.037351 0.159829 0.168804
C135  C     C_R   0.962264 0.518560 0.159910 0.166229
C136  C     C_R   0.480986 0.037981 0.840163 0.168838
C137  C     C_R   0.036937 0.520366 0.840091 0.168750
C138  C     C_R   0.519937 0.963066 0.840096 0.168975
C139  C     C_R   0.413192 0.999999 0.500014 0.888488
C140  C     C_R   0.962662 0.480204 0.840164 0.168803
C141  C     C_R   0.980306 0.462682 0.659842 0.168672
C142  C     C_R   0.537526 0.980060 0.659706 0.178824
C143  C     C_R   0.017260 0.538635 0.659828 0.166350
C144  C     C_R   0.462941 0.019869 0.659995 0.166429
C145  C     C_R   0.981280 0.538395 0.340333 0.176321
C146  C     C_R   0.537331 0.019721 0.340166 0.168692
C147  C     C_R   0.020706 0.463584 0.340008 0.166265
C148  C     C_R   0.461384 0.982756 0.340163 0.166314
C149  C     C_R   0.499620 0.000293 0.177638 -0.031211
C150  C     C_1   0.499996 0.770598 0.999980 0.007474
C151  C     C_R   0.999907 0.499346 0.177683 -0.020228
C152  C     C_R   0.500530 0.000597 0.822372 -0.031198
C153  C     C_R   0.999720 0.500408 0.822362 -0.031210
C154  C     C_R   0.998411 0.500833 0.677656 -0.022912
C155  C     C_R   0.500281 0.999884 0.677665 -0.024776
C156  C     C_R   0.001145 0.501192 0.322290 -0.013632
C157  C     C_R   0.499186 0.001613 0.322344 -0.022913
C158  C     C_R   0.499956 0.000043 0.105576 -0.144662
C159  C     C_R   0.000038 0.499918 0.105563 -0.141542
C160  C     C_R   0.500090 0.000206 0.894428 -0.144299
H1    H     H_    0.473944 0.919329 0.076572 0.228344
H2    H     H_    0.919230 0.525146 0.076326 0.228504
H3    H     H_    0.888239 0.515630 0.114812 0.242638
H4    H     H_    0.915081 0.570815 0.106941 0.245042
H5    H     H_    0.474267 0.080790 0.923777 0.228570
H6    H     H_    0.483381 0.111918 0.885299 0.242555
H7    H     H_    0.428462 0.084581 0.893234 0.245078
H8    H     H_    0.080671 0.526065 0.923443 0.228377
H9    H     H_    0.111400 0.518514 0.884613 0.242649
H10   H     H_    0.083265 0.572747 0.893514 0.245019
H11   H     H_    0.525408 0.919259 0.923483 0.228206
H12   H     H_    0.481514 0.888604 0.115406 0.242655
H13   H     H_    0.517111 0.888602 0.884720 0.242701
H14   H     H_    0.571804 0.915976 0.893373 0.245025
H15   H     H_    0.919390 0.473805 0.923644 0.228635
H16   H     H_    0.888468 0.481575 0.884944 0.242627
H17   H     H_    0.916711 0.427318 0.893590 0.244959
H18   H     H_    0.973972 0.419228 0.576472 0.227817
H19   H     H_    0.984490 0.388293 0.614874 0.240739
H20   H     H_    0.929092 0.414553 0.607727 0.245190
H21   H     H_    0.590227 0.990730 0.584252 0.222502
H22   H     H_    0.608897 0.954912 0.618380 0.245407
H23   H     H_    0.427273 0.916732 0.106505 0.245032
H24   H     H_    0.568519 0.932882 0.587942 0.249595
H25   H     H_    0.024955 0.580862 0.576005 0.228646
H26   H     H_    0.013920 0.612168 0.614105 0.242579
H27   H     H_    0.069711 0.586116 0.607242 0.245079
H28   H     H_    0.419354 0.026511 0.576601 0.228545
H29   H     H_    0.388443 0.018331 0.615302 0.242509
H30   H     H_    0.416559 0.072730 0.606872 0.245044
H31   H     H_    0.991042 0.590303 0.416101 0.222605
H32   H     H_    0.955551 0.609351 0.381908 0.245234
H33   H     H_    0.933208 0.568699 0.412033 0.249426
H34   H     H_    0.080539 0.472905 0.076308 0.228302
H35   H     H_    0.580771 0.026040 0.423545 0.227653
H36   H     H_    0.611713 0.015539 0.385149 0.240746
H37   H     H_    0.585444 0.070931 0.392293 0.245219
H38   H     H_    0.028222 0.419708 0.423221 0.228363
H39   H     H_    0.019269 0.388732 0.384649 0.240587
H40   H     H_    0.073598 0.416957 0.392200 0.245231
H41   H     H_    0.419141 0.975041 0.423977 0.228795
H42   H     H_    0.387841 0.986076 0.385869 0.242568
H43   H     H_    0.413901 0.930289 0.392740 0.245060
H44   H     H_    0.431666 0.940110 0.198881 0.239376
H45   H     H_    0.111778 0.483137 0.114578 0.240659
H46   H     H_    0.437373 0.900228 0.164716 0.244913
H47   H     H_    0.483018 0.905773 0.195294 0.249135
H48   H     H_    0.071299 0.454186 0.207109 0.240205
H49   H     H_    0.082956 0.422911 0.168972 0.240991
H50   H     H_    0.108804 0.478633 0.175557 0.244276
H51   H     H_    0.567375 0.060525 0.198986 0.238480
H52   H     H_    0.562299 0.100064 0.164518 0.245076
H53   H     H_    0.516209 0.095023 0.194805 0.249446
H54   H     H_    0.937716 0.565742 0.198872 0.238773
H55   H     H_    0.898016 0.558773 0.164723 0.244897
H56   H     H_    0.084686 0.428091 0.107670 0.245225
H57   H     H_    0.905060 0.513307 0.195253 0.249521
H58   H     H_    0.433630 0.062136 0.801202 0.239574
H59   H     H_    0.440250 0.101871 0.835386 0.244959
H60   H     H_    0.485776 0.095230 0.804838 0.248809
H61   H     H_    0.059897 0.568372 0.801129 0.239372
H62   H     H_    0.099773 0.562669 0.835304 0.244906
H63   H     H_    0.094243 0.517027 0.804728 0.249137
H64   H     H_    0.567550 0.939395 0.801132 0.238714
H65   H     H_    0.561144 0.899509 0.835264 0.245164
H66   H     H_    0.515626 0.905922 0.804680 0.249207
H67   H     H_    0.526197 0.080612 0.076339 0.228652
H68   H     H_    0.939499 0.432651 0.801003 0.238478
H69   H     H_    0.899956 0.437714 0.835463 0.245076
H70   H     H_    0.904994 0.483811 0.805177 0.249449
H71   H     H_    0.954374 0.428794 0.707188 0.240911
H72   H     H_    0.923441 0.416523 0.668994 0.241214
H73   H     H_    0.979510 0.391543 0.675816 0.243937
H74   H     H_    0.570205 0.952780 0.707080 0.242079
H75   H     H_    0.581085 0.921329 0.668906 0.242935
H76   H     H_    0.608442 0.976490 0.675760 0.243958
H77   H     H_    0.063680 0.564303 0.698884 0.239669
H78   H     H_    0.518429 0.111539 0.115033 0.242618
H79   H     H_    0.056030 0.603791 0.664633 0.244926
H80   H     H_    0.010581 0.595808 0.695018 0.248801
H81   H     H_    0.439827 0.067796 0.698933 0.239750
H82   H     H_    0.399776 0.061713 0.664918 0.244980
H83   H     H_    0.405833 0.016193 0.695544 0.248940
H84   H     H_    0.954960 0.572007 0.292959 0.242537
H85   H     H_    0.922829 0.582259 0.330918 0.242855
H86   H     H_    0.978181 0.609578 0.324844 0.243905
H87   H     H_    0.571223 0.045670 0.292828 0.240908
H88   H     H_    0.583485 0.076594 0.331024 0.241219
H89   H     H_    0.572688 0.083300 0.106395 0.244956
H90   H     H_    0.608472 0.020529 0.324206 0.243927
H91   H     H_    0.048111 0.430964 0.292619 0.240239
H92   H     H_    0.079093 0.419347 0.330885 0.241184
H93   H     H_    0.023904 0.392649 0.323722 0.244157
H94   H     H_    0.435730 0.936338 0.301103 0.239669
H95   H     H_    0.396236 0.943975 0.335345 0.244929
H96   H     H_    0.404215 0.989431 0.304960 0.248810
N1    N     N_R   0.526802 0.971458 0.233088 -0.172356
N2    N     N_R   0.471763 0.972120 0.732991 -0.170228
N3    N     N_R   0.028260 0.473355 0.732638 -0.167502
N4    N     N_R   0.528839 0.028556 0.732720 -0.167029
N5    N     N_R   0.972160 0.472369 0.267528 -0.164288
N6    N     N_R   0.471654 0.030197 0.266948 -0.170441
N7    N     N_R   0.028818 0.529240 0.266779 -0.165453
N8    N     N_R   0.526682 0.971773 0.267371 -0.167507
N9    N     N_R   0.028499 0.528772 0.232491 -0.166829
N10   N     N_R   0.471768 0.029864 0.232665 -0.171836
N11   N     N_R   0.971863 0.471891 0.233252 -0.169793
N12   N     N_R   0.528906 0.028714 0.767010 -0.172193
N13   N     N_R   0.028573 0.473237 0.766921 -0.172359
N14   N     N_R   0.471832 0.972288 0.767270 -0.171840
N15   N     N_R   0.970152 0.528255 0.767325 -0.171837
N16   N     N_R   0.969822 0.528367 0.733042 -0.170450
O1    O     O_R   0.535610 0.936800 0.000040 -0.599305
O2    O     O_R   0.563200 0.035610 0.500040 -0.600931
O3    O     O_R   0.964390 0.563200 0.500040 -0.597837
O4    O     O_R   0.436800 0.964390 0.500040 -0.599406
O5    O     O_R   0.035610 0.563200 0.499960 -0.600567
O6    O     O_R   0.563200 0.964390 0.499960 -0.598061
O7    O     O_R   0.964390 0.436800 0.499960 -0.599664
O8    O     O_R   0.436800 0.035610 0.499960 -0.599253
O9    O     O_R   0.535610 0.999940 0.050970 -0.608476
O10   O     O_R   0.000060 0.535610 0.050970 -0.608492
O11   O     O_R   0.464390 0.000060 0.050970 -0.608369
O12   O     O_R   0.063200 0.535610 0.000040 -0.599327
O13   O     O_R   0.999940 0.464390 0.050970 -0.609092
O14   O     O_R   0.535610 0.000060 0.949030 -0.608314
O15   O     O_R   0.000060 0.464390 0.949030 -0.608426
O16   O     O_R   0.464390 0.999940 0.949030 -0.608545
O17   O     O_R   0.999940 0.535610 0.949030 -0.608372
O18   O     O_R   0.035610 0.499940 0.550970 -0.608582
O19   O     O_R   0.500060 0.035610 0.550970 -0.608748
O20   O     O_R   0.964390 0.500060 0.550970 -0.608989
O21   O     O_R   0.499940 0.964390 0.550970 -0.613064
O22   O     O_R   0.035610 0.500060 0.449030 -0.609309
O23   O     O_R   0.464390 0.063200 0.000040 -0.599418
O24   O     O_R   0.500060 0.964390 0.449030 -0.608832
O25   O     O_R   0.964390 0.499940 0.449030 -0.613135
O26   O     O_R   0.499940 0.035610 0.449030 -0.608791
O27   O     O_R   0.436800 0.499970 0.028810 -0.592545
O28   O     O_R   0.500030 0.436800 0.028810 -0.592533
O29   O     O_R   0.563200 0.500030 0.028810 -0.592509
O30   O     O_R   0.499970 0.563200 0.028810 -0.592509
O31   O     O_R   0.436800 0.500030 0.971190 -0.592508
O32   O     O_R   0.500030 0.563200 0.971190 -0.592530
O33   O     O_R   0.563200 0.499970 0.971190 -0.592528
O34   O     O_R   0.936800 0.464390 0.000040 -0.599322
O35   O     O_R   0.499970 0.436800 0.971190 -0.592512
O36   O     O_R   0.936800 0.999970 0.528810 -0.592521
O37   O     O_R   0.000030 0.936800 0.528810 -0.592548
O38   O     O_R   0.063200 0.000030 0.528810 -0.592529
O39   O     O_R   0.999970 0.063200 0.528810 -0.592528
O40   O     O_R   0.936800 0.000030 0.471190 -0.592556
O41   O     O_R   0.000030 0.063200 0.471190 -0.592556
O42   O     O_R   0.063200 0.999970 0.471190 -0.592526
O43   O     O_R   0.999970 0.936800 0.471190 -0.592504
O44   O     O_R   0.535610 0.063200 0.999960 -0.599412
O45   O     O_R   0.063200 0.464390 0.999960 -0.599818
O46   O     O_R   0.464390 0.936800 0.999960 -0.599386
O47   O     O_R   0.936800 0.535610 0.999960 -0.599248
O48   O     O_R   0.035610 0.436800 0.500040 -0.599738
Zn1   Zn    Zn3+2 0.547570 0.000000 0.000000 0.970385
Zn2   Zn    Zn3+2 0.500000 0.500000 0.961560 0.972264
Zn3   Zn    Zn3+2 0.000000 0.000000 0.538440 0.972157
Zn4   Zn    Zn3+2 0.000000 1.000000 0.461560 0.972150
Zn5   Zn    Zn3+2 0.000000 0.547570 0.000000 0.970422
Zn6   Zn    Zn3+2 0.452430 0.000000 0.000000 0.970319
Zn7   Zn    Zn3+2 0.000000 0.452430 0.000000 0.969852
Zn8   Zn    Zn3+2 0.047570 0.500000 0.500000 0.969090
Zn9   Zn    Zn3+2 0.500000 0.047570 0.500000 0.969173
Zn10  Zn    Zn3+2 0.952430 0.500000 0.500000 0.965556
Zn11  Zn    Zn3+2 0.500000 0.952430 0.500000 0.965952
Zn12  Zn    Zn3+2 0.500000 0.500000 0.038440 0.972254

loop_
_geom_bond_atom_site_label_1
_geom_bond_atom_site_label_2
_ccdc_geom_bond_type
C41   H14   S    
C113  O26   A    
C62   H74   S    
C11   N16   A    
C70   C150  T    
C95   O47   A    
C34   H1    S    
C55   H54   S    
C56   H58   S    
C50   H38   S    
C101  O36   A    
C66   H88   S    
C103  O42   A    
C4    C125  A    
O29   Zn12  S    
C6    C127  A    
C63   H79   S    
C141  C154  A    
N15   N16   A    
C54   C134  S    
C104  O39   A    
C111  O19   A    
C4    C110  S    
C11   C154  S    
C9    C156  S    
C133  C151  A    
C5    C126  A    
C105  O9    A    
C16   C149  S    
C97   O31   A    
C8    N8    A    
C99   O29   A    
C106  O48   A    
C113  O24   A    
C70   C79   S    
C32   C57   S    
C8    C157  S    
C15   C151  S    
C40   H9    S    
C136  C152  A    
C65   H84   S    
C43   H20   S    
C60   H69   S    
C52   C132  S    
C53   C133  S    
C12   N13   A    
C93   C101  S    
C146  C157  A    
C51   C131  S    
C143  C154  A    
C64   H81   S    
C49   H35   S    
C82   C91   T    
C48   H32   S    
C11   N3    A    
C39   H5    S    
O34   Zn7   S    
C105  C158  S    
C123  C141  A    
C137  C153  A    
O20   Zn10  S    
C127  C145  A    
C81   C90   T    
C73   O12   A    
O42   Zn4   S    
C67   C147  S    
C2    C71   T    
C56   H60   S    
C47   C126  S    
O27   Zn12  S    
N7    N9    A    
C107  O13   A    
C98   O35   A    
O3    Zn10  S    
C73   O45   A    
C63   H77   S    
O39   Zn3   S    
C58   H63   S    
C13   C72   T    
C64   C144  S    
C119  C136  A    
C42   H16   S    
C48   C127  S    
C45   H25   S    
C105  O11   A    
O23   Zn6   S    
C99   O33   A    
O48   Zn8   S    
O8    Zn9   S    
C36   H34   S    
C84   O44   A    
C108  O14   A    
C59   H64   S    
C92   C104  S    
C116  C134  A    
C94   C102  S    
O30   Zn12  S    
C44   H21   S    
C23   C128  S    
C78   C87   S    
C65   H86   S    
C66   H90   S    
C43   H18   S    
C48   H33   S    
C61   H73   S    
C12   N15   A    
C6    C130  A    
C84   O23   A    
C49   H37   S    
C41   H11   S    
C55   H55   S    
C61   H72   S    
O46   Zn6   S    
C59   H66   S    
C48   H31   S    
O25   Zn10  S    
C85   C93   T    
C53   H50   S    
C31   C46   S    
N4    N12   A    
C21   C106  S    
C51   H42   S    
C54   H52   S    
O21   Zn11  S    
C62   C142  S    
C59   H65   S    
C56   C136  S    
C58   H61   S    
C69   H94   S    
C66   C146  S    
O5    Zn8   S    
O9    Zn1   S    
C45   H27   S    
C59   C138  S    
C134  C149  A    
C60   H68   S    
C128  O3    A    
C116  C158  A    
C117  O6    A    
C108  O16   A    
O43   Zn4   S    
C132  C149  A    
C34   H23   S    
C19   C28   T    
O11   Zn6   S    
C60   C140  S    
C61   C141  S    
C38   H3    S    
C18   C73   S    
C107  O10   A    
C43   C123  S    
C69   C148  S    
C41   H13   S    
O19   Zn9   S    
C62   H75   S    
C130  C147  A    
C10   C155  S    
C50   H39   S    
O1    Zn1   S    
C112  O22   A    
C47   H30   S    
C122  C140  A    
C36   H56   S    
C37   H78   S    
C125  C143  A    
C39   C119  S    
C76   C85   S    
C126  C144  A    
C148  C157  A    
C14   C152  S    
C63   C143  S    
C106  O7    A    
C91   C99   S    
C8    N6    A    
C69   H96   S    
C25   C33   T    
O13   Zn7   S    
C111  O21   A    
C64   H83   S    
C22   C117  S    
C52   H47   S    
O12   Zn5   S    
C40   H10   S    
C55   H57   S    
C109  O17   A    
C5    C124  A    
C43   H19   S    
C60   H70   S    
O6    Zn11  S    
C25   C139  S    
C15   N11   A    
C64   H82   S    
C53   H48   S    
C80   C89   T    
C24   C29   S    
C114  C158  A    
C145  C156  A    
O47   Zn5   S    
C121  C160  A    
C13   C28   S    
C2    C27   S    
C7    C131  A    
C72   C81   S    
N3    N13   A    
O17   Zn5   S    
C140  C153  A    
C67   H92   S    
O45   Zn7   S    
O15   Zn7   S    
C104  O41   A    
C118  C159  A    
C74   C82   S    
C79   C88   T    
C51   H43   S    
C110  O20   A    
C66   H87   S    
C68   C78   T    
O22   Zn8   S    
O33   Zn2   S    
C57   C77   T    
C139  O8    A    
C26   C150  S    
C63   H80   S    
C37   C116  S    
O16   Zn6   S    
C115  C133  A    
C138  C152  A    
O40   Zn4   S    
C44   C124  S    
O4    Zn11  S    
C115  C159  A    
C52   H44   S    
O35   Zn2   S    
C102  O43   A    
C1    O46   A    
C147  C156  A    
C129  C146  A    
C88   C100  S    
C40   C120  S    
O44   Zn1   S    
C10   N4    A    
O7    Zn10  S    
C44   H22   S    
C34   H12   S    
C65   H85   S    
O26   Zn9   S    
C6    C112  S    
C117  O2    A    
C15   N9    A    
C14   N14   A    
O38   Zn3   S    
C49   H36   S    
C21   C30   T    
C23   C32   T    
C39   H6    S    
C16   N1    A    
C75   C83   S    
C101  O40   A    
C3    C109  S    
C135  C151  A    
C61   H71   S    
C36   H45   S    
N2    N14   A    
C7    C129  A    
O14   Zn1   S    
C38   C118  S    
C37   H67   S    
C53   H49   S    
C96   C103  S    
O10   Zn5   S    
C120  C137  A    
O32   Zn2   S    
C56   H59   S    
C16   N10   A    
C118  C135  A    
C51   H41   S    
C54   H53   S    
C100  O32   A    
N1    N8    A    
C97   O27   A    
C12   C153  S    
C98   O28   A    
C46   C76   T    
C58   H62   S    
C83   C92   T    
C35   C75   T    
C30   C35   S    
C52   H46   S    
C17   C26   T    
N5    N11   A    
C42   H15   S    
C55   C135  S    
C45   H26   S    
C42   H17   S    
C41   C121  S    
O28   Zn12  S    
C50   C130  S    
C45   C125  S    
C119  C160  A    
C9    N5    A    
C10   N2    A    
C142  C155  A    
C86   C94   T    
C44   H24   S    
C95   O34   A    
C1    O1    A    
C3    C122  A    
C38   H4    S    
C110  O18   A    
C100  O30   A    
C124  C142  A    
C71   C80   S    
C14   N12   A    
C20   C29   T    
C67   H93   S    
C62   H76   S    
C22   C31   T    
C50   H40   S    
C5    C111  S    
C102  O37   A    
C49   C129  S    
C4    C123  A    
C89   C97   S    
C121  C138  A    
C47   H29   S    
C87   C96   T    
C131  C148  A    
O36   Zn3   S    
C58   C137  S    
C54   H51   S    
C20   C95   S    
C77   C86   S    
O2    Zn9   S    
C139  O4    A    
C65   C145  S    
C19   C84   S    
O18   Zn8   S    
C128  O5    A    
C42   C122  S    
O31   Zn2   S    
C114  C132  A    
C18   C27   T    
N6    N10   A    
C107  C159  S    
C108  C160  S    
C34   C114  S    
C103  O38   A    
C112  O25   A    
O24   Zn11  S    
C7    C113  S    
C144  C155  A    
C69   H95   S    
C24   C74   T    
C37   H89   S    
C9    N7    A    
C39   H7    S    
O37   Zn3   S    
C40   H8    S    
C3    C120  A    
C109  O15   A    
C38   H2    S    
C1    C17   S    
C33   C68   S    
O41   Zn4   S    
C47   H28   S    
C36   C115  S    
C90   C98   S    
C67   H91   S    
