data_mof_unit_62832.cif
_audit_creation_date              2013-03-05T16:14:44-0500
_audit_creation_method            fapswitch 2.2
_symmetry_space_group_name_H-M    P1
_symmetry_Int_Tables_number       1
_space_group_crystal_system       triclinic
_cell_length_a                    15.81711
_cell_length_b                    14.259075
_cell_length_c                    13.388503
_cell_angle_alpha                 89.994754
_cell_angle_beta                  85.009253
_cell_angle_gamma                 89.999319
_cell_volume                      3008.15952249

loop_
_atom_site_label
_atom_site_type_symbol
_atom_site_description
_atom_site_fract_x
_atom_site_fract_y
_atom_site_fract_z
_atom_type_partial_charge
O1    O     O_R   0.500000 0.373720 0.576470 -0.596028
O2    O     O_R   0.500000 0.373720 0.423530 -0.596103
C1    C     C_R   0.500000 0.326583 0.500004 0.948657
O3    O     O_R   0.377150 0.500010 0.576490 -0.609634
O4    O     O_R   0.377150 0.500010 0.423510 -0.608462
O5    O     O_R   0.622850 0.500010 0.576490 -0.608566
O6    O     O_R   0.622850 0.500010 0.423510 -0.609605
C2    C     C_R   0.335720 0.501124 0.504742 0.939900
C3    C     C_R   0.664280 0.501111 0.495259 0.939929
Zn1   Zn    Zn3+2 0.500000 0.500010 0.602090 1.011071
Zn2   Zn    Zn3+2 0.500000 0.500010 0.397910 1.011064
O7    O     O_R   0.500000 0.626290 0.576440 -0.592691
O8    O     O_R   0.500000 0.626290 0.423560 -0.592668
C4    C     C_R   0.500000 0.673443 0.499996 0.947326
C5    C     C_3   0.031104 0.442148 0.608810 0.419438
C6    C     C_3   0.069551 0.435911 0.408983 0.479585
C7    C     C_3   0.930443 0.436094 0.591199 0.479742
C8    C     C_3   0.968890 0.441930 0.391355 0.419411
C9    C     C_1   0.752890 0.498397 0.483924 -0.064371
C10   C     C_1   0.247111 0.498437 0.516084 -0.064325
C11   C     C_3   0.081098 0.493047 0.512457 -0.350382
C12   C     C_3   0.918902 0.493018 0.487581 -0.350395
C13   C     C_3   0.948773 0.602595 0.498756 0.312620
C14   C     C_3   0.051243 0.602599 0.501004 0.312599
C15   C     C_1   0.828117 0.495528 0.478846 0.298270
C16   C     C_1   0.171884 0.495581 0.521179 0.298260
C17   C     C_1   0.499999 0.225933 0.500011 -0.169313
C18   C     C_1   0.499999 0.141365 0.500009 0.045832
C19   C     C_1   0.499999 0.042300 0.500003 0.061874
C20   C     C_1   0.499999 0.957734 0.499997 0.062063
C21   C     C_1   0.499999 0.858668 0.499991 0.047301
C22   C     C_1   0.500000 0.774098 0.499989 -0.164804
N1    N     N_1   0.500000 0.499980 0.261870 -0.059529
N2    N     N_1   0.500000 0.499980 0.738130 -0.059500
C23   C     C_1   0.499969 0.499884 0.169464 0.094424
C24   C     C_1   0.500028 0.499885 0.830536 0.094464
C25   C     C_1   0.499982 0.499797 0.049521 -0.033166
C26   C     C_1   0.500014 0.499798 0.950479 -0.033451
N3    N     N_R   0.893276 0.338856 0.592205 0.232325
O9    O     O_R   0.824587 0.322620 0.548199 -0.350433
O10   O     O_R   0.906049 0.280576 0.664343 -0.341925
N4    N     N_R   0.929236 0.347554 0.374837 0.196098
O11   O     O_R   0.953692 0.272777 0.419683 -0.225561
O12   O     O_R   0.853884 0.341143 0.343463 -0.394226
N5    N     N_R   0.070746 0.347806 0.625557 0.196107
O13   O     O_R   0.046264 0.272931 0.580920 -0.225535
O14   O     O_R   0.146104 0.341460 0.656931 -0.394212
N6    N     N_R   0.106699 0.338668 0.408241 0.232315
O15   O     O_R   0.175368 0.322516 0.452321 -0.350458
O16   O     O_R   0.093926 0.280227 0.336259 -0.341617
O17   O     O_3   0.120056 0.488026 0.333680 -0.598005
C27   C     C_3   0.139547 0.448821 0.237283 0.242501
H1    H     H_    0.131729 0.505658 0.182089 0.174488
H2    H     H_    0.095923 0.392928 0.217193 0.145964
C28   C     C_3   0.232988 0.418370 0.225815 -0.338185
H3    H     H_    0.273487 0.477988 0.246113 0.244350
H4    H     H_    0.243681 0.359403 0.277110 0.276967
C29   C     C_3   0.261114 0.387689 0.119053 -0.939687
H5    H     H_    0.221172 0.328614 0.096465 0.287950
H6    H     H_    0.328187 0.363923 0.114969 0.278713
H7    H     H_    0.256816 0.447387 0.066527 0.266484
O18   O     O_3   0.032347 0.503146 0.694551 -0.615121
C30   C     C_3   0.093324 0.492547 0.765201 0.264912
H8    H     H_    0.097751 0.561690 0.802612 0.192753
H9    H     H_    0.158718 0.481275 0.730899 0.172057
C31   C     C_3   0.063644 0.423299 0.848844 -0.393018
H10   H     H_    0.004816 0.450675 0.890089 0.203459
H11   H     H_    0.049138 0.353531 0.818126 0.274801
C32   C     C_3   0.130371 0.411644 0.923243 -0.919562
H12   H     H_    0.190231 0.383689 0.884934 0.294140
H13   H     H_    0.106727 0.361733 0.982924 0.272249
H14   H     H_    0.143021 0.480157 0.958490 0.253794
O19   O     O_3   0.967657 0.502763 0.305469 -0.615139
C33   C     C_3   0.906675 0.492045 0.234844 0.264886
H15   H     H_    0.902249 0.561129 0.197294 0.192749
H16   H     H_    0.841280 0.480816 0.269166 0.172046
C34   C     C_3   0.936360 0.422669 0.151342 -0.393196
H17   H     H_    0.995233 0.449953 0.110115 0.203443
H18   H     H_    0.950789 0.352926 0.182195 0.274822
C35   C     C_3   0.869703 0.410982 0.076865 -0.919367
H19   H     H_    0.809799 0.383101 0.115134 0.294158
H20   H     H_    0.893388 0.361002 0.017278 0.272364
H21   H     H_    0.857128 0.479465 0.041503 0.253742
O20   O     O_3   0.879953 0.488369 0.666363 -0.598078
C36   C     C_3   0.860408 0.449373 0.762850 0.242500
H22   H     H_    0.868191 0.506356 0.817874 0.174834
H23   H     H_    0.904023 0.393545 0.783146 0.145775
C37   C     C_3   0.766973 0.418886 0.774318 -0.338135
H24   H     H_    0.726526 0.478168 0.753033 0.244984
H25   H     H_    0.756483 0.359295 0.723790 0.276921
C38   C     C_3   0.738517 0.389438 0.881371 -0.940933
H26   H     H_    0.778226 0.330533 0.904825 0.287815
H27   H     H_    0.671392 0.365851 0.885531 0.278758
H28   H     H_    0.742859 0.449675 0.933161 0.266717
N7    N     N_R   0.075746 0.665146 0.582728 0.272927
O21   O     O_R   0.139143 0.645762 0.634788 -0.399766
O22   O     O_R   0.053767 0.753138 0.579513 -0.235320
N8    N     N_R   0.097598 0.645039 0.409279 0.272739
O23   O     O_R   0.175657 0.672892 0.413674 -0.331659
O24   O     O_R   0.066085 0.653412 0.323001 -0.267602
N9    N     N_R   0.902426 0.645224 0.590372 0.272736
O25   O     O_R   0.933942 0.653781 0.676627 -0.267528
O26   O     O_R   0.824370 0.673063 0.585906 -0.331647
N10   N     N_R   0.924279 0.664973 0.416873 0.272918
O27   O     O_R   0.946288 0.752964 0.419851 -0.235379
O28   O     O_R   0.860859 0.645500 0.364887 -0.399805

loop_
_geom_bond_atom_site_label_1
_geom_bond_atom_site_label_2
_geom_bond_distance
_ccdc_geom_bond_type
C31   H11   1.108132 S    
C28   H3    1.112290 S    
C30   H9    1.106341 S    
N9    O25   1.302766 A    
O19   C33   1.416523 S    
N7    O21   1.299732 A    
C6    O17   1.437550 S    
O3    C2    1.209110 A    
C6    N6    1.505636 S    
O5    C3    1.220029 A    
N10   O28   1.299740 A    
N3    O10   1.303085 A    
C34   H17   1.110714 S    
O6    Zn2   2.002276 S    
C19   C20   1.205829 T    
C33   H16   1.106332 S    
C14   N8    1.501712 S    
C18   C19   1.412570 S    
C23   C25   1.605844 S    
O4    Zn2   1.943543 S    
C8    N4    1.509129 S    
C20   C21   1.412591 S    
C36   C37   1.535309 S    
C31   C32   1.522048 S    
C29   H6    1.110515 S    
C5    C7    1.631992 S    
C7    N3    1.505603 S    
N5    O14   1.300942 A    
C32   H13   1.110279 S    
C3    C9    1.397095 S    
C13   N10   1.488882 S    
C33   C34   1.535509 S    
C13   C14   1.623668 S    
C27   C28   1.535261 S    
C29   H7    1.109946 S    
N6    O16   1.303086 A    
C31   H10   1.110759 S    
C30   C31   1.535505 S    
N9    O26   1.303166 A    
O8    C4    1.224524 A    
N4    O12   1.300935 A    
C35   H21   1.110659 S    
O2    Zn2   1.833127 S    
N10   O27   1.303612 A    
C11   C16   1.451255 S    
C27   H2    1.102723 S    
C34   H18   1.108156 S    
C33   H15   1.110879 S    
C36   H23   1.102729 S    
O17   C27   1.415666 S    
Zn2   N1    1.821372 S    
O20   C36   1.415608 S    
C35   H20   1.110318 S    
C14   N7    1.488891 S    
C4    C22   1.435244 S    
C38   H26   1.110324 S    
C29   H5    1.110612 S    
C36   H22   1.110823 S    
C12   C15   1.451265 S    
O1    C1    1.224733 A    
C32   H14   1.110688 S    
C25   C26   1.325978 T    
C38   H27   1.110488 S    
C21   C22   1.205899 T    
C37   C38   1.523430 S    
O18   C30   1.416502 S    
Zn1   N2    1.821372 S    
C2    C10   1.397080 S    
Zn1   O7    1.833059 S    
N6    O15   1.300980 A    
O7    C4    1.224514 A    
C8    O19   1.441790 S    
N8    O24   1.302748 A    
C28   H4    1.107835 S    
C11   C14   1.642927 S    
N4    O11   1.298959 A    
C5    N5    1.509131 S    
O3    Zn1   2.002277 S    
N3    O9    1.300977 A    
C27   H1    1.110845 S    
C34   C35   1.522031 S    
O6    C3    1.209124 A    
C8    C12   1.624344 S    
O1    Zn1   1.833189 S    
C37   H25   1.107628 S    
C35   H19   1.110798 S    
O5    Zn1   1.943541 S    
O4    C2    1.220037 A    
N7    O22   1.303652 A    
C6    C11   1.631123 S    
C7    C12   1.631130 S    
C7    O20   1.437496 S    
C24   C26   1.605845 S    
O2    C1    1.224722 A    
C38   H28   1.109802 S    
Zn2   O8    1.833121 S    
C13   N9    1.501704 S    
C10   C16   1.186578 T    
C1    C17   1.435177 S    
N1    C23   1.237214 T    
C5    O18   1.441794 S    
N2    C24   1.237214 T    
C32   H12   1.110827 S    
C9    C15   1.186585 T    
C30   H8    1.110852 S    
N5    O13   1.298985 A    
C5    C11   1.624372 S    
C37   H24   1.112062 S    
C6    C8    1.632003 S    
N8    O23   1.303178 A    
C28   C29   1.523776 S    
C17   C18   1.205869 T    
C12   C13   1.642956 S    
