data_mof_unit_27607.cif
_audit_creation_date              2013-03-05T15:42:20-0500
_audit_creation_method            fapswitch 2.2
_symmetry_space_group_name_H-M    P1
_symmetry_Int_Tables_number       1
_space_group_crystal_system       triclinic
_cell_length_a                    16.946136
_cell_length_b                    16.725003
_cell_length_c                    19.629448
_cell_angle_alpha                 117.816654
_cell_angle_beta                  63.702305
_cell_angle_gamma                 100.541056
_cell_volume                      4409.3302371

loop_
_atom_site_label
_atom_site_type_symbol
_atom_site_description
_atom_site_fract_x
_atom_site_fract_y
_atom_site_fract_z
_atom_type_partial_charge
C1    C     C_R   0.038898 0.759688 0.010203 -0.043636
H1    H     H_    0.081465 0.809255 0.035305 0.116740
N1    N     N_R   0.036080 0.671900 0.995420 -0.059764
C2    C     C_R   0.759794 0.428154 0.164289 -0.198213
N2    N     N_R   0.834710 0.454650 0.119760 -0.060372
C3    C     C_R   0.817267 0.505143 0.909693 -0.128134
H2    H     H_    0.840160 0.524060 0.858484 0.103003
N3    N     N_R   0.867430 0.509300 0.948100 -0.045528
C4    C     C_R   0.953632 0.674107 0.246258 -0.036826
H3    H     H_    0.915575 0.654519 0.296109 0.187168
N4    N     N_R   0.003360 0.617250 0.167070 -0.050293
C5    C     C_R   0.749754 0.431650 0.988912 -0.079356
H4    H     H_    0.709075 0.387735 0.016015 0.163585
N5    N     N_R   0.825450 0.461270 0.995400 -0.051591
C6    C     C_R   0.021306 0.752454 0.171439 -0.095105
H5    H     H_    0.045687 0.806327 0.153199 0.125245
N6    N     N_R   0.045340 0.665280 0.119770 -0.062461
C7    C     C_R   0.839798 0.492531 0.240422 0.366818
N7    N     N_R   0.883740 0.497640 0.167070 -0.089916
C8    C     C_R   0.955377 0.688950 0.938829 -0.093779
H6    H     H_    0.915698 0.672481 0.903700 0.110954
N8    N     N_R   0.987050 0.628910 0.948110 -0.050392
C9    C     C_R   0.984579 0.773194 0.979491 0.149876
C10   C     C_R   0.761766 0.450893 0.239983 -0.086411
C11   C     C_R   0.744090 0.454116 0.931778 0.089518
C12   C     C_R   0.959872 0.759945 0.250568 0.083622
C13   C     C_R   0.260790 0.524088 0.969952 -0.082783
N9    N     N_R   0.174550 0.538730 0.004600 -0.055795
C14   C     C_R   0.925273 0.259264 0.832198 -0.065131
H7    H     H_    0.880240 0.214306 0.855967 0.130017
N10   N     N_R   0.954660 0.334720 0.880230 -0.050588
C15   C     C_R   0.168520 0.470471 0.751427 -0.045158
H8    H     H_    0.148030 0.437110 0.699913 0.117408
N11   N     N_R   0.116260 0.502360 0.832930 -0.057607
C16   C     C_R   0.033600 0.309266 0.067517 -0.119502
H9    H     H_    0.062105 0.324271 0.111525 0.134331
N12   N     N_R   0.012950 0.371090 0.051890 -0.046052
C17   C     C_R   0.959349 0.240512 0.987784 -0.107965
N13   N     N_R   0.963920 0.328100 0.004580 -0.056833
C18   C     C_R   0.248063 0.546663 0.827782 -0.006827
H10   H     H_    0.299918 0.586661 0.844543 0.097080
N14   N     N_R   0.165290 0.545350 0.880240 -0.063435
C19   C     C_R   0.195026 0.441309 0.041305 -0.084751
H11   H     H_    0.183654 0.396441 0.069829 0.100500
N15   N     N_R   0.132570 0.490700 0.051900 -0.039290
C20   C     C_R   0.992418 0.339192 0.758519 -0.133065
N16   N     N_R   0.996640 0.382750 0.832930 -0.046427
Ni1   Ni    Ni4+2 0.104370 0.604370 0.000010 0.237021
Ni2   Ni    Ni4+2 0.895630 0.395630 0.999990 0.234856
Ni3   Ni    Ni4+2 0.991920 0.505780 0.891500 0.242229
Ni4   Ni    Ni4+2 0.008080 0.494220 0.108500 0.302047
C21   C     C_R   0.275954 0.458196 0.986840 0.054087
C22   C     C_R   0.947610 0.260689 0.755328 0.088222
C23   C     C_R   0.251445 0.495800 0.747826 0.174715
C24   C     C_R   0.002751 0.225254 0.026631 0.107492
C25   C     C_R   0.952632 0.211449 0.613501 -0.231617
C26   C     C_R   0.918145 0.200818 0.688281 0.092255
C27   C     C_R   0.859640 0.131127 0.695950 -0.146621
C28   C     C_R   0.842573 0.067559 0.626583 0.103287
C29   C     C_R   0.885483 0.073569 0.549182 0.071637
C30   C     C_R   0.937322 0.148294 0.544015 0.132708
C31   C     C_R   0.787814 0.995086 0.631534 -0.158334
C32   C     C_R   0.783108 0.924255 0.558409 -0.080275
C33   C     C_R   0.836546 0.922976 0.478664 -0.044928
C34   C     C_R   0.883404 0.001146 0.475325 0.009871
C35   C     C_R   0.934054 0.004500 0.397361 0.100325
C36   C     C_R   0.977695 0.083153 0.394179 -0.141234
C37   C     C_R   0.979243 0.155043 0.467474 -0.182629
C38   C     C_R   0.849223 0.844650 0.402173 0.286001
C39   C     C_R   0.915381 0.844214 0.325476 -0.015693
C40   C     C_R   0.949264 0.926292 0.323386 -0.162594
H12   H     H_    0.997276 0.264732 0.605839 0.128890
H13   H     H_    0.830996 0.123178 0.753760 0.168188
H14   H     H_    0.751438 0.991340 0.691320 0.162337
H15   H     H_    0.741335 0.868929 0.565042 0.191780
H16   H     H_    0.995790 0.928833 0.265282 0.183610
H17   H     H_    0.015480 0.086693 0.334415 0.167769
C41   C     C_R   0.394268 0.425466 0.641894 0.322850
C42   C     C_R   0.326562 0.486963 0.673660 -0.269657
C43   C     C_R   0.327853 0.538404 0.634125 0.290749
C44   C     C_R   0.398680 0.527204 0.558868 -0.012090
C45   C     C_R   0.470438 0.469152 0.527761 -0.034807
C46   C     C_R   0.470792 0.421106 0.571255 -0.197089
C47   C     C_R   0.400128 0.574538 0.515158 -0.094174
C48   C     C_R   0.471073 0.563918 0.440503 -0.184303
C49   C     C_R   0.541930 0.507651 0.409905 0.123661
C50   C     C_R   0.542385 0.460181 0.453262 0.098841
C51   C     C_R   0.615881 0.405408 0.422542 0.064196
C52   C     C_R   0.617899 0.360947 0.466527 -0.283475
C53   C     C_R   0.547317 0.370255 0.542082 0.403124
C54   C     C_R   0.614140 0.500588 0.337698 -0.183685
C55   C     C_R   0.686883 0.448817 0.309975 0.134945
C56   C     C_R   0.688562 0.400169 0.350313 -0.134174
H18   H     H_    0.346961 0.620323 0.538241 0.185689
H19   H     H_    0.471255 0.600964 0.407499 0.151073
H20   H     H_    0.615537 0.538194 0.304593 0.153957
H21   H     H_    0.747211 0.361467 0.327111 0.132902
H22   H     H_    0.676438 0.322449 0.444264 0.175955
C57   C     C_R   0.677131 0.424936 0.896760 -0.025960
C58   C     C_R   0.362174 0.415375 0.951564 0.119320
C59   C     C_R   0.456781 0.321356 0.949437 -0.097946
C60   C     C_R   0.372600 0.348259 0.970825 -0.174671
C61   C     C_R   0.436432 0.445342 0.900498 -0.101252
C62   C     C_R   0.519769 0.425434 0.885775 0.120559
C63   C     C_R   0.530597 0.366664 0.914560 -0.010984
C64   C     C_R   0.612887 0.361170 0.913770 0.286402
C65   C     C_R   0.668428 0.473150 0.857973 -0.198809
C66   C     C_R   0.590916 0.471279 0.850302 -0.110547
H23   H     H_    0.717907 0.519028 0.840259 0.148645
H24   H     H_    0.461920 0.270684 0.966772 0.189577
H25   H     H_    0.583444 0.514251 0.825738 0.158289
C67   C     C_R   0.789703 0.150015 0.110133 0.096284
C68   C     C_R   0.957120 0.859019 0.990190 -0.106757
C69   C     C_R   0.908487 0.933524 0.933176 0.341319
C70   C     C_R   0.947141 0.859395 0.923168 -0.289601
C71   C     C_R   0.931159 0.936491 0.068656 0.320009
C72   C     C_R   0.888453 0.010515 0.081188 -0.024090
C73   C     C_R   0.874752 0.007963 0.013748 -0.039044
C74   C     C_R   0.823575 0.077719 0.030073 -0.166495
C75   C     C_R   0.805816 0.154070 0.175217 -0.168387
C76   C     C_R   0.854372 0.085006 0.161366 -0.073977
H26   H     H_    0.807320 0.076358 0.982193 0.169561
H27   H     H_    0.778847 0.209864 0.237206 0.122415
H28   H     H_    0.862918 0.089479 0.214474 0.178083
H29   H     H_    0.969627 0.800950 0.862157 0.201503
H30   H     H_    0.922180 0.191994 0.954491 0.137110
H31   H     H_    0.006750 0.370902 0.717577 0.101150
H32   H     H_    0.711144 0.388979 0.141226 0.148774
N17   N     N_R   0.796276 0.766982 0.402004 0.216459
O1    O     O_R   0.756265 0.730968 0.351525 -0.394232
O2    O     O_R   0.795613 0.726237 0.444816 -0.377123
H33   H     H_    0.017849 0.213229 0.463342 0.147063
N18   N     N_R   0.379583 0.360213 0.674470 0.261122
O3    O     O_R   0.360110 0.386012 0.753854 -0.388632
O4    O     O_R   0.381142 0.274380 0.625127 -0.342581
N19   N     N_R   0.255781 0.599980 0.669904 0.230144
O5    O     O_R   0.201597 0.580839 0.634124 -0.400846
O6    O     O_R   0.239246 0.670174 0.742499 -0.391339
N20   N     N_R   0.558856 0.335938 0.591948 0.264999
O7    O     O_R   0.550968 0.390899 0.668367 -0.376403
O8    O     O_R   0.594998 0.256063 0.555887 -0.342144
N21   N     N_R   0.630859 0.293049 0.930498 0.218203
O9    O     O_R   0.583095 0.288952 0.002051 -0.438741
O10   O     O_R   0.701535 0.241717 0.878038 -0.439303
H34   H     H_    0.316278 0.318994 0.005063 0.130144
H35   H     H_    0.430720 0.491560 0.878643 0.129644
N22   N     N_R   0.903159 0.931213 0.861185 0.241870
O11   O     O_R   0.888226 0.855509 0.805695 -0.362911
O12   O     O_R   0.928081 0.000018 0.843308 -0.412776
N23   N     N_R   0.941131 0.936974 0.137538 0.210247
O13   O     O_R   0.890261 0.888683 0.175619 -0.410800
O14   O     O_R   0.996260 0.991087 0.166297 -0.463695
N24   N     N_R   0.879344 0.502423 0.295014 0.217970
O15   O     O_R   0.831248 0.521108 0.374087 -0.341165
O16   O     O_R   0.964600 0.497547 0.266730 -0.428782
H36   H     H_    0.308200 0.559705 0.936818 0.090357

loop_
_geom_bond_atom_site_label_1
_geom_bond_atom_site_label_2
_geom_bond_distance
_ccdc_geom_bond_type
C50   C51   1.410837 A    
C59   C60   1.393407 A    
C56   H21   1.083218 S    
N20   O8    1.301356 A    
C16   H9    1.079623 S    
C36   H17   1.084026 S    
N6    Ni1   1.902347 S    
C71   N23   1.431288 S    
C69   C70   1.400205 A    
C48   C49   1.391054 A    
C25   C26   1.404738 A    
N17   O2    1.301564 A    
C31   C32   1.396412 A    
C14   C22   1.394581 A    
C7    C10   1.378838 A    
C16   N12   1.345079 A    
C69   N22   1.437849 S    
C47   H18   1.081803 S    
C49   C54   1.371180 A    
C60   H34   1.081617 S    
C17   N13   1.338296 A    
C2    C10   1.365816 A    
C19   C21   1.394457 A    
N5    Ni2   1.814580 S    
N15   Ni4   1.896299 S    
C6    H5    1.069828 S    
N1    Ni1   1.813442 S    
C71   C72   1.415232 A    
C7    N7    1.332862 A    
C37   H33   1.084124 S    
C72   C76   1.410878 A    
C73   C74   1.411006 A    
C76   H28   1.081829 S    
C54   H20   1.086651 S    
C51   C56   1.382430 A    
C41   C46   1.398793 A    
C11   C57   1.474319 S    
C53   N20   1.435544 S    
C17   C24   1.390959 A    
N22   O11   1.301337 A    
C25   H12   1.080141 S    
N11   N14   1.382635 A    
C65   C66   1.380157 A    
C39   C40   1.399681 A    
N24   O16   1.300887 A    
C4    H3    1.069347 S    
C75   H27   1.078814 S    
N8    Ni3   1.824211 S    
C68   C71   1.410797 A    
C18   N14   1.326028 A    
C35   C36   1.400392 A    
C28   C29   1.408570 A    
N10   N16   1.383900 A    
C65   H23   1.080735 S    
N2    Ni2   1.903634 S    
N10   Ni2   1.902347 S    
C10   C55   1.408072 S    
C15   C23   1.371607 A    
C62   C63   1.412546 A    
C17   H30   1.079397 S    
C4    C12   1.385083 A    
C64   N21   1.436448 S    
N16   Ni3   1.825675 S    
C59   C63   1.409316 A    
N9    N15   1.383899 A    
N11   Ni3   1.897650 S    
C2    H32   1.081743 S    
C16   C24   1.393657 A    
C36   C37   1.386988 A    
C20   H31   1.078807 S    
C47   C48   1.377876 A    
C13   C21   1.382193 A    
N19   O6    1.301005 A    
C54   C55   1.386301 A    
C67   C75   1.390247 A    
C22   C26   1.467483 S    
C41   C42   1.400873 A    
C2    N2    1.320804 A    
C6    C12   1.394780 A    
C3    N3    1.339076 A    
C59   H24   1.078889 S    
C21   C58   1.466557 S    
C58   C61   1.399993 A    
C44   C45   1.419505 A    
C42   C43   1.394326 A    
C29   C30   1.407683 A    
C1    N1    1.353235 A    
C15   N11   1.322622 A    
C19   H11   1.075819 S    
C14   H7    1.080477 S    
C9    C68   1.482395 S    
C4    N4    1.335524 A    
C35   C40   1.380222 A    
C8    C9    1.382923 A    
C8    H6    1.081341 S    
C58   C60   1.400737 A    
C46   C53   1.422647 A    
N14   Ni1   1.903634 S    
C33   C38   1.413551 A    
C5    H4    1.073399 S    
C19   N15   1.345480 A    
C69   C73   1.414143 A    
C7    N24   1.433570 S    
C38   N17   1.436881 S    
C18   H10   1.078713 S    
N13   Ni2   1.813440 S    
C5    N5    1.326830 A    
C29   C34   1.400356 A    
C1    C9    1.398817 A    
C18   C23   1.371987 A    
N18   O3    1.300851 A    
C12   C39   1.479620 S    
N21   O10   1.300084 A    
C52   C53   1.391149 A    
N3    Ni3   1.896297 S    
C62   C66   1.393771 A    
C44   C47   1.404171 A    
C75   C76   1.393429 A    
C49   C50   1.411878 A    
N17   O1    1.301250 A    
C74   H26   1.080223 S    
C13   H36   1.070890 S    
C6    N6    1.338448 A    
C57   C64   1.421102 A    
C20   N16   1.322779 A    
N4    N6    1.383901 A    
C28   C31   1.399387 A    
N3    N5    1.383902 A    
N22   O12   1.301358 A    
C25   C30   1.382804 A    
C8    N8    1.335740 A    
C43   C44   1.382353 A    
C70   H29   1.083666 S    
C67   C74   1.393709 A    
N20   O7    1.301312 A    
C3    H2    1.080475 S    
N2    N7    1.382635 A    
C57   C65   1.402755 A    
C63   C64   1.407015 A    
C5    C11   1.382048 A    
C43   N19   1.438973 S    
C66   H25   1.084370 S    
C52   H22   1.084723 S    
C15   H8    1.080783 S    
C27   C28   1.397636 A    
C14   N10   1.343577 A    
C72   C73   1.422748 A    
C33   C34   1.413558 A    
C48   H19   1.084329 S    
C30   C37   1.399286 A    
C26   C27   1.404604 A    
C40   H16   1.077251 S    
C32   H15   1.079549 S    
N12   Ni4   1.824211 S    
C1    H1    1.079473 S    
C20   C22   1.380219 A    
C55   C56   1.385463 A    
N9    Ni1   1.814577 S    
N23   O14   1.300641 A    
C34   C35   1.407320 A    
C38   C39   1.421526 A    
C41   N18   1.439735 S    
N4    Ni4   1.825675 S    
C23   C42   1.409835 S    
C32   C33   1.410894 A    
C3    C11   1.391321 A    
N7    Ni4   1.897652 S    
C51   C52   1.390775 A    
C27   H13   1.081731 S    
N12   N13   1.382635 A    
C45   C46   1.421699 A    
C61   C62   1.381819 A    
N18   O4    1.301215 A    
N21   O9    1.301845 A    
C31   H14   1.083823 S    
N1    N8    1.382635 A    
C68   C70   1.401693 A    
N24   O15   1.300270 A    
N19   O5    1.301120 A    
C45   C50   1.389201 A    
C61   H35   1.079146 S    
N23   O13   1.300757 A    
C13   N9    1.324058 A    
