data_mof_unit_51491.cif
_audit_creation_date              2012-12-11T17:28:29-0500
_audit_creation_method            fapswitch 2.2
_symmetry_space_group_name_H-M    P1
_symmetry_Int_Tables_number       1
_space_group_crystal_system       triclinic
_cell_length_a                    24.200927
_cell_length_b                    24.199223
_cell_length_c                    25.432059
_cell_angle_alpha                 90.1339
_cell_angle_beta                  90.000364
_cell_angle_gamma                 89.999937
_cell_volume                      14894.08266

loop_
_atom_site_label
_atom_site_type_symbol
_atom_type_description
_atom_site_fract_x
_atom_site_fract_y
_atom_site_fract_z
_atom_type_partial_charge
C1    C     C_R   0.622982 0.441861 0.404262 -0.130898
C2    C     C_R   0.360744 0.424859 0.429018 -0.140273
C3    C     C_R   0.618218 0.309472 0.253493 0.265506
C4    C     C_R   0.764517 0.705597 0.601977 0.260088
C5    C     C_R   0.235873 0.293029 0.400556 0.263106
C6    C     C_R   0.606534 0.326776 0.756720 0.258746
C7    C     C_R   0.393364 0.673329 0.243227 0.258555
C8    C     C_R   0.309447 0.618141 0.253747 0.264384
C9    C     C_R   0.690805 0.381379 0.745896 0.265027
C10   C     C_R   0.311086 0.236917 0.364554 0.268356
C11   C     C_R   0.688948 0.764024 0.633651 0.269305
C12   C     C_R   0.672783 0.393771 0.242741 0.258907
C13   C     C_R   0.441987 0.622969 0.595837 -0.129901
C14   C     C_R   0.310119 0.617958 0.746863 0.264446
C15   C     C_R   0.705142 0.764345 0.397067 0.259671
C16   C     C_R   0.311803 0.237534 0.636684 0.268711
C17   C     C_R   0.809508 0.881725 0.246129 0.264703
C18   C     C_R   0.173817 0.106512 0.743274 0.259083
C19   C     C_R   0.810748 0.264249 0.132828 0.269272
C20   C     C_R   0.207309 0.736243 0.900293 0.262778
C21   C     C_R   0.172871 0.106409 0.257275 0.259074
C22   C     C_R   0.827228 0.893972 0.742717 0.258618
C23   C     C_R   0.206728 0.736326 0.100469 0.262738
C24   C     C_R   0.557658 0.376693 0.404537 -0.129280
C25   C     C_R   0.794704 0.264418 0.897382 0.260236
C26   C     C_R   0.736323 0.188689 0.865935 0.269233
C27   C     C_R   0.262246 0.811675 0.137110 0.268678
C28   C     C_R   0.881979 0.809769 0.753287 0.265076
C29   C     C_R   0.118050 0.190549 0.246658 0.265086
C30   C     C_R   0.262861 0.811500 0.863869 0.268771
C31   C     C_R   0.735184 0.205403 0.101864 0.259951
C32   C     C_R   0.118448 0.190349 0.753848 0.264355
C33   C     C_R   0.893567 0.826760 0.256763 0.258527
C34   C     C_R   0.274797 0.333239 0.585276 -0.203208
C35   C     C_R   0.360820 0.424923 0.571135 -0.140351
C36   C     C_R   0.722741 0.650979 0.380550 -0.213203
C37   C     C_R   0.412932 0.653650 0.708727 -0.204454
C38   C     C_R   0.599490 0.329119 0.302021 -0.205885
C39   C     C_R   0.725898 0.665410 0.587038 -0.202314
C40   C     C_R   0.274449 0.333333 0.415409 -0.203449
C41   C     C_R   0.587405 0.346555 0.708334 -0.204483
C42   C     C_R   0.412531 0.653554 0.291610 -0.204282
C43   C     C_R   0.329259 0.599208 0.302079 -0.204976
C44   C     C_R   0.671026 0.400317 0.697574 -0.205318
C45   C     C_R   0.348723 0.277718 0.379546 -0.209930
C46   C     C_R   0.639204 0.573928 0.428488 -0.148246
C47   C     C_R   0.651240 0.723241 0.618734 -0.212693
C48   C     C_R   0.653216 0.412768 0.291339 -0.204795
C49   C     C_R   0.329714 0.599156 0.698326 -0.205225
C50   C     C_R   0.665047 0.725788 0.412198 -0.202776
C51   C     C_R   0.349275 0.278333 0.621506 -0.211175
C52   C     C_R   0.829322 0.900704 0.197837 -0.204955
C53   C     C_R   0.154049 0.087440 0.791697 -0.204385
C54   C     C_R   0.848499 0.223515 0.117890 -0.211576
C55   C     C_R   0.166883 0.774717 0.915080 -0.203172
C56   C     C_R   0.153342 0.087413 0.208654 -0.204606
C57   C     C_R   0.558141 0.377029 0.595662 -0.130142
C58   C     C_R   0.846904 0.912981 0.791268 -0.204528
C59   C     C_R   0.166467 0.774802 0.085462 -0.203655
C60   C     C_R   0.834774 0.225855 0.912562 -0.202495
C61   C     C_R   0.776990 0.151036 0.881091 -0.212634
C62   C     C_R   0.221498 0.849214 0.121938 -0.211583
C63   C     C_R   0.900814 0.829426 0.801775 -0.205351
C64   C     C_R   0.099362 0.170906 0.198094 -0.205734
C65   C     C_R   0.221946 0.849031 0.878799 -0.211150
C66   C     C_R   0.773847 0.165269 0.086887 -0.202330
C67   C     C_R   0.099529 0.170638 0.802218 -0.205171
C68   C     C_R   0.441978 0.622859 0.404247 -0.130854
C69   C     C_R   0.912735 0.846579 0.208405 -0.204474
C70   C     C_3   0.175894 0.301619 0.588898 -0.992962
C71   C     C_3   0.815534 0.667607 0.339658 -1.006398
C72   C     C_3   0.428728 0.713812 0.787988 -0.993543
C73   C     C_3   0.599472 0.253434 0.234392 -1.002039
C74   C     C_3   0.825237 0.695062 0.593337 -0.993649
C75   C     C_3   0.175411 0.302114 0.411850 -0.993204
C76   C     C_3   0.571650 0.286611 0.787489 -0.993368
C77   C     C_3   0.428037 0.713824 0.212639 -0.992525
C78   C     C_3   0.253549 0.599131 0.234597 -1.000309
C79   C     C_R   0.139233 0.926095 0.928460 -0.146584
C80   C     C_3   0.746893 0.400036 0.764850 -1.001257
C81   C     C_3   0.331841 0.185888 0.336631 -1.004398
C82   C     C_3   0.668044 0.816252 0.659364 -1.005895
C83   C     C_3   0.712804 0.428747 0.211888 -0.993897
C84   C     C_3   0.254354 0.598804 0.766152 -1.000373
C85   C     C_3   0.694632 0.825110 0.405589 -0.992835
C86   C     C_3   0.332754 0.186893 0.664888 -1.004868
C87   C     C_3   0.753512 0.900559 0.265170 -1.000732
C88   C     C_3   0.214403 0.071830 0.712638 -0.993674
C89   C     C_3   0.831635 0.316676 0.158182 -1.006099
C90   C     C_R   0.860757 0.075109 0.071000 -0.137260
C91   C     C_3   0.198586 0.675809 0.911842 -0.992932
C92   C     C_3   0.213033 0.071516 0.288046 -0.993790
C93   C     C_3   0.787038 0.928883 0.711994 -0.993266
C94   C     C_3   0.197939 0.675847 0.088907 -0.992882
C95   C     C_3   0.805278 0.325190 0.905776 -0.993852
C96   C     C_3   0.684178 0.167666 0.840232 -1.005750
C97   C     C_3   0.312933 0.832548 0.165441 -1.004725
C98   C     C_3   0.900763 0.753773 0.734109 -1.001412
C99   C     C_3   0.099110 0.246478 0.265882 -1.001382
C100  C     C_3   0.313646 0.832328 0.835756 -1.004945
C101  C     C_R   0.942509 0.876823 0.904443 -0.130619
C102  C     C_3   0.674447 0.194617 0.093623 -0.993128
C103  C     C_3   0.099332 0.246155 0.734707 -1.000162
C104  C     C_3   0.928316 0.786384 0.287419 -0.992905
C105  C     C_R   0.376872 0.557586 0.595518 -0.130716
C106  C     C_R   0.057655 0.123329 0.095458 -0.129743
C107  C     C_R   0.860734 0.073940 0.928633 -0.148717
C108  C     C_R   0.139173 0.926133 0.071643 -0.146420
C109  C     C_R   0.057649 0.123198 0.904609 -0.130734
C110  C     C_R   0.942022 0.877150 0.095749 -0.131303
C111  C     C_R   0.122985 0.058177 0.095747 -0.130321
C112  C     C_R   0.877120 0.941942 0.904192 -0.130219
C113  C     C_R   0.925875 0.139375 0.071122 -0.144827
C114  C     C_R   0.075121 0.860776 0.928848 -0.139943
C115  C     C_R   0.876844 0.942506 0.095486 -0.130009
C116  C     C_R   0.425935 0.360658 0.428738 -0.143229
C117  C     C_R   0.123045 0.058086 0.904302 -0.129778
C118  C     C_R   0.074931 0.860893 0.071340 -0.144135
C119  C     C_R   0.924960 0.139148 0.928871 -0.137405
C120  C     C_R   0.254941 0.245609 0.627358 0.050077
C121  C     C_R   0.753906 0.745640 0.372441 0.051828
C122  C     C_R   0.341646 0.656505 0.775676 0.051447
C123  C     C_R   0.656337 0.341217 0.224535 0.051487
C124  C     C_R   0.745926 0.754467 0.626563 0.051789
C125  C     C_R   0.254246 0.245367 0.373733 0.050063
C126  C     C_R   0.659130 0.343151 0.774780 0.051482
C127  C     C_R   0.573972 0.639305 0.571403 -0.148219
C128  C     C_R   0.340907 0.656670 0.225016 0.051497
C129  C     C_R   0.841039 0.843274 0.274884 0.051566
C130  C     C_R   0.157042 0.158875 0.725055 0.051430
C131  C     C_R   0.753759 0.254447 0.126147 0.051735
C132  C     C_R   0.254768 0.754682 0.873333 0.050106
C133  C     C_R   0.156268 0.158884 0.275579 0.051394
C134  C     C_R   0.843695 0.841448 0.724459 0.051504
C135  C     C_R   0.254087 0.754819 0.127631 0.050142
C136  C     C_R   0.745921 0.245708 0.872793 0.051788
C137  C     C_1   0.216216 0.210989 0.654413 -0.003417
C138  C     C_R   0.376808 0.557504 0.404529 -0.130334
C139  C     C_1   0.788763 0.784034 0.345295 -0.003615
C140  C     C_1   0.315399 0.686716 0.817331 -0.002439
C141  C     C_1   0.686428 0.315092 0.182774 -0.002264
C142  C     C_1   0.784418 0.789325 0.653743 -0.003424
C143  C     C_1   0.215410 0.210823 0.346582 -0.003311
C144  C     C_1   0.685305 0.312978 0.816335 -0.002301
C145  C     C_1   0.314582 0.686910 0.183556 -0.002479
C146  C     C_1   0.814733 0.813010 0.316300 -0.002299
C147  C     C_1   0.187189 0.185128 0.683482 -0.002445
C148  C     C_1   0.715338 0.289227 0.153513 -0.003279
C149  C     C_R   0.623260 0.442429 0.595413 -0.130637
C150  C     C_1   0.289486 0.715836 0.846394 -0.003430
C151  C     C_1   0.186350 0.185039 0.317366 -0.002428
C152  C     C_1   0.813441 0.815251 0.682850 -0.002289
C153  C     C_1   0.288702 0.716023 0.154588 -0.003607
C154  C     C_1   0.711167 0.284064 0.845473 -0.003421
C155  C     C_R   0.331037 0.326913 0.597194 0.034664
C156  C     C_R   0.672880 0.669205 0.402629 0.034390
C157  C     C_R   0.380197 0.618145 0.678081 0.037518
C158  C     C_R   0.618138 0.379856 0.322104 0.037805
C159  C     C_R   0.669369 0.673254 0.596765 0.034569
C160  C     C_R   0.574891 0.639089 0.428622 -0.140952
C161  C     C_R   0.330667 0.326664 0.403532 0.034365
C162  C     C_R   0.620233 0.381763 0.677626 0.037455
C163  C     C_R   0.379887 0.618058 0.322196 0.037285
C164  C     C_R   0.880010 0.881971 0.177788 0.037229
C165  C     C_R   0.118446 0.120090 0.822316 0.037524
C166  C     C_R   0.830407 0.173336 0.096284 0.034158
C167  C     C_R   0.173237 0.830896 0.903008 0.034765
C168  C     C_R   0.118144 0.120241 0.177930 0.037874
C169  C     C_R   0.882103 0.880100 0.821942 0.037462
C170  C     C_R   0.172888 0.831039 0.097501 0.034581
C171  C     C_R   0.426138 0.360803 0.571520 -0.147107
C172  C     C_R   0.826902 0.169262 0.903071 0.034562
C173  C     C_R   0.601163 0.398057 0.375186 0.086055
C174  C     C_R   0.398289 0.601126 0.624943 0.085965
C175  C     C_R   0.371219 0.370075 0.416207 0.095295
C176  C     C_R   0.628706 0.629893 0.584021 0.095140
C177  C     C_R   0.398190 0.600992 0.375178 0.086101
C178  C     C_R   0.601929 0.398881 0.624698 0.086215
C179  C     C_R   0.629652 0.628584 0.415687 0.095084
C180  C     C_R   0.371444 0.370266 0.584156 0.095256
C181  C     C_R   0.129812 0.871361 0.915846 0.094906
C182  C     C_R   0.639180 0.575087 0.571155 -0.136982
C183  C     C_R   0.871130 0.129972 0.083681 0.095584
C184  C     C_R   0.899036 0.898222 0.875060 0.086112
C185  C     C_R   0.101168 0.102000 0.124827 0.085912
C186  C     C_R   0.870188 0.128644 0.915997 0.095481
C187  C     C_R   0.129613 0.871498 0.084399 0.094801
C188  C     C_R   0.101254 0.101839 0.875278 0.086065
C189  C     C_R   0.898264 0.899029 0.124821 0.086245
C190  C     C_R   0.236382 0.292925 0.600305 0.262861
C191  C     C_R   0.763430 0.688626 0.365436 0.269516
C192  C     C_R   0.393976 0.673301 0.757320 0.258947
H1    H     H_    0.657148 0.468165 0.393576 0.094536
H2    H     H_    0.320544 0.444065 0.431962 0.085964
H3    H     H_    0.682843 0.852727 0.637006 0.254121
H4    H     H_    0.720131 0.469388 0.231050 0.248392
H5    H     H_    0.753094 0.407128 0.208502 0.254659
H6    H     H_    0.696039 0.436347 0.171914 0.254222
H7    H     H_    0.235800 0.567461 0.739503 0.249243
H8    H     H_    0.258745 0.579978 0.805709 0.253783
H9    H     H_    0.225574 0.634454 0.768650 0.252352
H10   H     H_    0.655000 0.832555 0.426464 0.248205
H11   H     H_    0.728501 0.843110 0.429589 0.254073
H12   H     H_    0.692834 0.846641 0.367130 0.254230
H13   H     H_    0.468331 0.657131 0.606582 0.094443
H14   H     H_    0.378554 0.186523 0.667747 0.249394
H15   H     H_    0.315698 0.185644 0.705400 0.253226
H16   H     H_    0.319685 0.149202 0.643233 0.253622
H17   H     H_    0.735049 0.931959 0.238664 0.249549
H18   H     H_    0.724871 0.864773 0.267106 0.251876
H19   H     H_    0.757492 0.919207 0.304926 0.254298
H20   H     H_    0.221921 0.031288 0.731742 0.248306
H21   H     H_    0.198053 0.064012 0.672513 0.254230
H22   H     H_    0.254529 0.093799 0.709637 0.254817
H23   H     H_    0.877496 0.318346 0.158974 0.248964
H24   H     H_    0.530457 0.343242 0.393826 0.094118
H25   H     H_    0.816501 0.352991 0.135790 0.253959
H26   H     H_    0.816514 0.319353 0.199329 0.253140
H27   H     H_    0.159826 0.668630 0.934207 0.247087
H28   H     H_    0.196151 0.652121 0.874470 0.253919
H29   H     H_    0.233615 0.659984 0.935651 0.254324
H30   H     H_    0.220445 0.030911 0.268844 0.248263
H31   H     H_    0.253267 0.093245 0.291386 0.254841
H32   H     H_    0.196351 0.063833 0.328037 0.254230
H33   H     H_    0.779710 0.969510 0.731181 0.248453
H34   H     H_    0.803649 0.936515 0.671967 0.254229
H35   H     H_    0.320577 0.444038 0.568265 0.085951
H36   H     H_    0.746772 0.907196 0.708735 0.254628
H37   H     H_    0.159269 0.668622 0.066384 0.247129
H38   H     H_    0.233046 0.659826 0.065252 0.254312
H39   H     H_    0.195287 0.652366 0.126279 0.253902
H40   H     H_    0.844915 0.332640 0.926643 0.247975
H41   H     H_    0.807106 0.346631 0.867273 0.254343
H42   H     H_    0.771424 0.343282 0.929734 0.254119
H43   H     H_    0.682669 0.121797 0.839266 0.249265
H44   H     H_    0.647634 0.182648 0.862487 0.254128
H45   H     H_    0.681785 0.182844 0.799126 0.252951
H46   H     H_    0.679226 0.554508 0.432382 0.090693
H47   H     H_    0.313355 0.878349 0.168436 0.249419
H48   H     H_    0.314207 0.815455 0.205904 0.253169
H49   H     H_    0.350584 0.819454 0.143796 0.253644
H50   H     H_    0.932047 0.735197 0.760695 0.249463
H51   H     H_    0.864934 0.725200 0.731880 0.252044
H52   H     H_    0.919538 0.757800 0.694463 0.254218
H53   H     H_    0.068015 0.265134 0.239146 0.248603
H54   H     H_    0.080051 0.242304 0.305391 0.253893
H55   H     H_    0.134906 0.275065 0.268463 0.252600
H56   H     H_    0.314018 0.878117 0.832797 0.249413
H57   H     H_    0.531882 0.342821 0.606309 0.094289
H58   H     H_    0.351220 0.819377 0.857544 0.253626
H59   H     H_    0.315120 0.815073 0.795286 0.253186
H60   H     H_    0.667106 0.154793 0.072970 0.248079
H61   H     H_    0.652985 0.193048 0.132168 0.254329
H62   H     H_    0.656294 0.228236 0.069522 0.254061
H63   H     H_    0.067968 0.264674 0.761326 0.249268
H64   H     H_    0.134990 0.274930 0.732431 0.252360
H65   H     H_    0.080549 0.241837 0.695073 0.253757
H66   H     H_    0.968968 0.779035 0.268369 0.248881
H67   H     H_    0.935889 0.802839 0.327568 0.253956
H68   H     H_    0.468374 0.656956 0.393569 0.096339
H69   H     H_    0.906532 0.746153 0.290366 0.254645
H70   H     H_    0.179252 0.945573 0.932276 0.093073
H71   H     H_    0.820633 0.055765 0.068088 0.086358
H72   H     H_    0.969852 0.843485 0.893709 0.096498
H73   H     H_    0.343541 0.530269 0.606186 0.096425
H74   H     H_    0.030442 0.156780 0.106150 0.094384
H75   H     H_    0.820742 0.054469 0.932563 0.090697
H76   H     H_    0.179235 0.945522 0.067911 0.093152
H77   H     H_    0.030374 0.156572 0.893979 0.096209
H78   H     H_    0.968436 0.843060 0.106417 0.096540
H79   H     H_    0.157160 0.031891 0.106441 0.094294
H80   H     H_    0.842973 0.968262 0.893490 0.094520
H81   H     H_    0.945251 0.179384 0.066956 0.088987
H82   H     H_    0.056008 0.820536 0.931744 0.086101
H83   H     H_    0.843480 0.969823 0.106189 0.096264
H84   H     H_    0.445273 0.320604 0.432745 0.091497
H85   H     H_    0.157263 0.031797 0.893619 0.094197
H86   H     H_    0.055672 0.820695 0.068624 0.087412
H87   H     H_    0.944259 0.179304 0.931728 0.086144
H88   H     H_    0.260596 0.369778 0.564879 0.124665
H89   H     H_    0.729255 0.607392 0.373110 0.128554
H90   H     H_    0.452772 0.667235 0.694449 0.129358
H91   H     H_    0.572070 0.303397 0.324923 0.127165
H92   H     H_    0.740238 0.627727 0.568591 0.127416
H93   H     H_    0.260376 0.370153 0.435587 0.124524
H94   H     H_    0.547336 0.333333 0.694268 0.129261
H95   H     H_    0.554497 0.679292 0.567456 0.090883
H96   H     H_    0.452469 0.667038 0.305785 0.130568
H97   H     H_    0.303743 0.571450 0.324814 0.128071
H98   H     H_    0.696684 0.427825 0.674703 0.128232
H99   H     H_    0.392104 0.272130 0.370524 0.129575
H100  H     H_    0.607696 0.729778 0.626279 0.128599
H101  H     H_    0.666499 0.452802 0.305514 0.129336
H102  H     H_    0.304131 0.571386 0.675550 0.128074
H103  H     H_    0.627455 0.740206 0.430704 0.127844
H104  H     H_    0.392675 0.273033 0.630583 0.128995
H105  H     H_    0.803747 0.928371 0.175060 0.128226
H106  H     H_    0.343433 0.530186 0.393851 0.096425
H107  H     H_    0.167599 0.047564 0.805863 0.129142
H108  H     H_    0.892058 0.230247 0.125184 0.128946
H109  H     H_    0.130241 0.760606 0.935410 0.124721
H110  H     H_    0.166752 0.047441 0.194430 0.129103
H111  H     H_    0.833578 0.952978 0.805494 0.129458
H112  H     H_    0.129903 0.760653 0.064963 0.124987
H113  H     H_    0.872397 0.240284 0.931003 0.127301
H114  H     H_    0.770430 0.107445 0.873717 0.128554
H115  H     H_    0.226864 0.892619 0.131090 0.128998
H116  H     H_    0.928343 0.803744 0.824602 0.128165
H117  H     H_    0.656647 0.469724 0.606105 0.096295
H118  H     H_    0.071837 0.196565 0.175241 0.127015
H119  H     H_    0.227270 0.892385 0.869612 0.128997
H120  H     H_    0.759513 0.127436 0.068718 0.127398
H121  H     H_    0.071700 0.196165 0.824980 0.128131
H122  H     H_    0.952728 0.833210 0.194272 0.130610
H123  H     H_    0.168613 0.340258 0.566442 0.247113
H124  H     H_    0.159919 0.266462 0.565236 0.254279
H125  H     H_    0.152417 0.304276 0.626330 0.253914
H126  H     H_    0.816979 0.621739 0.338564 0.249242
H127  H     H_    0.817932 0.682907 0.298594 0.252978
H128  H     H_    0.555488 0.679210 0.431289 0.087762
H129  H     H_    0.852108 0.682469 0.361942 0.254128
H130  H     H_    0.469240 0.721342 0.768765 0.248432
H131  H     H_    0.406793 0.753949 0.791230 0.254775
H132  H     H_    0.436600 0.697379 0.828020 0.254236
H133  H     H_    0.568315 0.234806 0.261080 0.248834
H134  H     H_    0.580550 0.257412 0.194804 0.254344
H135  H     H_    0.635348 0.224930 0.232060 0.252299
H136  H     H_    0.832584 0.655346 0.572497 0.248013
H137  H     H_    0.843112 0.728841 0.569250 0.254125
H138  H     H_    0.846958 0.693417 0.631748 0.254296
H139  H     H_    0.445614 0.320773 0.567734 0.092914
H140  H     H_    0.168282 0.340996 0.434143 0.246987
H141  H     H_    0.151996 0.304535 0.374380 0.253992
H142  H     H_    0.159240 0.267254 0.435631 0.254339
H143  H     H_    0.530973 0.279338 0.768459 0.248324
H144  H     H_    0.593300 0.246316 0.790547 0.254661
H145  H     H_    0.564134 0.303213 0.827592 0.254219
H146  H     H_    0.468657 0.721252 0.231725 0.248902
H147  H     H_    0.435683 0.697437 0.172478 0.253933
H148  H     H_    0.406155 0.754004 0.209729 0.254761
H149  H     H_    0.235053 0.567805 0.261161 0.249260
H150  H     H_    0.679332 0.555793 0.568276 0.086309
H151  H     H_    0.224839 0.634848 0.232411 0.252253
H152  H     H_    0.257710 0.580334 0.194921 0.253823
H153  H     H_    0.765486 0.431248 0.738226 0.249492
H154  H     H_    0.743012 0.418858 0.804541 0.254191
H155  H     H_    0.775375 0.364131 0.766904 0.252068
H156  H     H_    0.377648 0.185231 0.333913 0.249224
H157  H     H_    0.318488 0.148481 0.358408 0.253436
H158  H     H_    0.314912 0.184344 0.296074 0.253357
H159  H     H_    0.622184 0.817722 0.660497 0.249299
H160  H     H_    0.683486 0.818818 0.700410 0.252924
N1    N     N_R   0.592620 0.447430 0.448130 -0.041891
N2    N     N_R   0.407380 0.447430 0.448130 -0.037860
N3    N     N_R   0.447430 0.592620 0.551870 -0.041747
N4    N     N_R   0.552570 0.407380 0.448130 -0.042008
N5    N     N_R   0.407380 0.447430 0.551870 -0.037742
N6    N     N_R   0.592620 0.552570 0.448130 -0.037073
N7    N     N_R   0.552570 0.407380 0.551870 -0.041835
N8    N     N_R   0.447430 0.592620 0.448130 -0.041893
N9    N     N_R   0.092620 0.947430 0.948130 -0.037118
N10   N     N_R   0.907380 0.052570 0.051870 -0.037974
N11   N     N_R   0.947430 0.907380 0.948130 -0.042133
N12   N     N_R   0.407380 0.552570 0.551870 -0.042214
N13   N     N_R   0.052570 0.092620 0.051870 -0.042119
N14   N     N_R   0.907380 0.052570 0.948130 -0.037091
N15   N     N_R   0.092620 0.947430 0.051870 -0.037036
N16   N     N_R   0.052570 0.092620 0.948130 -0.042271
N17   N     N_R   0.947430 0.907380 0.051870 -0.041967
N18   N     N_R   0.092620 0.052570 0.051870 -0.041792
N19   N     N_R   0.907380 0.947430 0.948130 -0.041808
N20   N     N_R   0.947430 0.092620 0.051870 -0.037426
N21   N     N_R   0.052570 0.907380 0.948130 -0.037742
N22   N     N_R   0.907380 0.947430 0.051870 -0.042114
N23   N     N_R   0.447430 0.407380 0.448130 -0.037375
N24   N     N_R   0.092620 0.052570 0.948130 -0.041776
N25   N     N_R   0.052570 0.907380 0.051870 -0.037441
N26   N     N_R   0.947430 0.092620 0.948130 -0.037921
N27   N     N_R   0.552570 0.592620 0.551870 -0.037099
N28   N     N_R   0.407380 0.552570 0.448130 -0.042194
N29   N     N_R   0.592620 0.447430 0.551870 -0.042182
N30   N     N_R   0.552570 0.592620 0.448130 -0.037556
N31   N     N_R   0.447430 0.407380 0.551870 -0.037109
N32   N     N_R   0.592620 0.552570 0.551870 -0.037922
Ni1   Ni    Ni4+2 0.591800 0.500000 0.500000 0.213187
Ni2   Ni    Ni4+2 0.408200 0.500000 0.500000 0.211601
Ni3   Ni    Ni4+2 0.500000 0.408200 0.500000 0.214376
Ni4   Ni    Ni4+2 0.500000 0.591800 0.500000 0.213626
Ni5   Ni    Ni4+2 0.091800 0.000000 0.000000 0.214872
Ni6   Ni    Ni4+2 0.908200 0.000000 0.000000 0.213147
Ni7   Ni    Ni4+2 0.000000 0.908200 0.000000 0.212057
Ni8   Ni    Ni4+2 0.000000 0.091800 0.000000 0.212713

loop_
_geom_bond_atom_site_label_1
_geom_bond_atom_site_label_2
_ccdc_geom_bond_type
C72   H132  S    
C29   C133  A    
C13   N3    A    
C36   C191  A    
C132  C150  S    
C96   H45   S    
C133  C151  S    
N9    N21   A    
N2    N23   A    
C112  C184  A    
C34   C155  A    
C176  C182  A    
C36   C156  A    
C35   H35   S    
C71   H126  S    
C119  H87   S    
C57   C178  A    
C128  C145  S    
C96   H44   S    
C33   C129  A    
C62   H115  S    
C103  H63   S    
C7    C42   A    
C78   H152  S    
C116  H84   S    
C45   C161  A    
C109  H77   S    
C82   H159  S    
C74   H138  S    
C68   N8    A    
C35   N5    A    
C170  C187  S    
C69   C164  A    
C25   C60   A    
C111  H79   S    
C7    C128  A    
C83   H5    S    
C10   C125  A    
C98   H52   S    
C58   H111  S    
C33   C69   A    
C15   C85   S    
C143  C151  T    
C29   C64   A    
C11   C82   S    
C41   C162  A    
C19   C131  A    
C103  H64   S    
C70   H123  S    
C20   C132  A    
C17   C52   A    
C21   C133  A    
C3    C123  A    
C111  N18   A    
C79   N9    A    
C62   C170  A    
C114  N21   A    
C29   C99   S    
C127  H95   S    
C92   H32   S    
C95   H40   S    
C68   H68   S    
C48   C158  A    
C106  N13   A    
C1    H1    S    
C123  C141  S    
N2    Ni2   S    
C99   H54   S    
N11   N19   A    
C82   H3    S    
C101  C184  A    
C38   H91   S    
C25   C95   S    
C127  N27   A    
C171  H139  S    
C87   H18   S    
C18   C130  A    
C77   H147  S    
C57   H57   S    
C54   H108  S    
C118  N25   A    
C155  C180  S    
C70   C190  S    
N16   N24   A    
C171  N31   A    
C127  C176  A    
C182  H150  S    
C27   C97   S    
C110  C189  A    
C17   C87   S    
C182  N32   A    
C46   C179  A    
C63   H116  S    
C86   H15   S    
C22   C58   A    
C114  C181  A    
C102  H61   S    
C119  C186  A    
N1    Ni1   S    
N14   N26   A    
N27   N32   A    
N18   Ni5   S    
C144  C154  T    
C57   N7    A    
C98   H50   S    
C26   C136  A    
N17   N22   A    
C115  C189  A    
C28   C63   A    
C93   H33   S    
C90   C183  A    
C90   N10   A    
C88   H20   S    
C109  N16   A    
C1    N1    A    
C79   H70   S    
C21   C92   S    
C73   H133  S    
N15   N25   A    
C33   C104  S    
C11   C124  A    
N6    Ni1   S    
N4    Ni3   S    
C47   C159  A    
C23   C59   A    
C110  N17   A    
C1    C173  A    
C36   H89   S    
C16   C120  A    
C105  H73   S    
C30   C100  S    
C68   C177  A    
C91   H28   S    
C4    C124  A    
C119  N26   A    
C37   C157  A    
C108  H76   S    
C31   C131  A    
C85   H12   S    
C71   H127  S    
C60   H113  S    
C8    C128  A    
C76   H145  S    
C138  H106  S    
C157  C174  S    
C7    C77   S    
C67   C165  A    
C80   H155  S    
N13   Ni8   S    
C49   C157  A    
C84   H7    S    
C26   C96   S    
C97   H47   S    
C75   H142  S    
C71   H129  S    
C88   H21   S    
C34   C190  A    
C58   C169  A    
C2    N2    A    
C65   H119  S    
C113  H81   S    
C110  H78   S    
C66   H120  S    
N15   Ni5   S    
C18   C88   S    
C101  N11   A    
C169  C184  S    
C27   C62   A    
C2    C175  A    
C76   H143  S    
C39   H92   S    
C10   C45   A    
C45   H99   S    
N28   Ni2   S    
C104  H66   S    
N25   Ni7   S    
C46   N6    A    
N26   Ni8   S    
C51   H104  S    
C32   C67   A    
C73   H135  S    
C19   C54   A    
C159  C176  S    
C99   H55   S    
C94   H38   S    
N9    Ni5   S    
C116  C175  A    
C130  C147  S    
C87   H19   S    
C117  C188  A    
C121  C191  A    
C118  C187  A    
C122  C192  A    
C80   H153  S    
N19   Ni6   S    
C113  N20   A    
C27   C135  A    
C121  C139  S    
C122  C140  S    
C24   H24   S    
C113  C183  A    
C12   C123  A    
C125  C143  S    
C30   C132  A    
C43   H97   S    
C126  C144  S    
C149  C178  A    
C96   H43   S    
C3    C73   S    
C105  N12   A    
C162  C178  S    
C30   C65   A    
C82   H160  S    
C149  N29   A    
C37   C192  A    
N17   Ni7   S    
C101  H72   S    
C5    C125  A    
C71   C191  S    
C138  C177  A    
C72   C192  S    
C84   H9    S    
C75   H140  S    
C139  C146  T    
C14   C122  A    
N27   Ni4   S    
C81   H157  S    
C11   C47   A    
C8    C43   A    
C14   C84   S    
C12   C48   A    
C100  H59   S    
N3    N12   A    
C107  C186  A    
C160  H128  S    
C28   C134  A    
C26   C61   A    
N16   Ni8   S    
C24   C173  A    
C40   H93   S    
N24   Ni5   S    
C142  C152  T    
C50   H103  S    
C18   C53   A    
C89   H26   S    
C24   N4    A    
C56   H110  S    
C163  C177  S    
C16   C51   A    
C95   H42   S    
C99   H53   S    
N12   Ni2   S    
C116  N23   A    
N5    Ni2   S    
C72   H131  S    
C16   C86   S    
C87   H17   S    
C86   H14   S    
C44   C162  A    
C77   H146  S    
C54   C166  A    
C47   H100  S    
C74   H136  S    
C80   H154  S    
C13   C174  A    
C20   C91   S    
C106  H74   S    
C165  C188  S    
C31   C102  S    
C6    C126  A    
C86   H16   S    
C112  N19   A    
C79   C181  A    
C12   C83   S    
C2    H2    S    
C78   H151  S    
C5    C75   S    
C100  H56   S    
C74   H137  S    
C120  C190  A    
C136  C154  S    
C158  C173  S    
C51   C155  A    
C32   C103  S    
C49   H102  S    
C83   H6    S    
C6    C76   S    
C38   C158  A    
C98   H51   S    
C44   H98   S    
C52   C164  A    
C53   C165  A    
C13   H13   S    
C104  H69   S    
C41   H94   S    
N21   Ni7   S    
C55   C167  A    
N1    N4    A    
C114  H82   S    
C118  H86   S    
C28   C98   S    
C39   C159  A    
C137  C147  T    
C92   H31   S    
C160  N30   A    
C166  C183  S    
C106  C185  A    
C21   C56   A    
N8    N28   A    
C65   C167  A    
C10   C81   S    
C23   C135  A    
C40   C161  A    
C64   C168  A    
C81   H158  S    
C156  C179  S    
N31   Ni3   S    
C85   H11   S    
C97   H49   S    
N29   Ni1   S    
N10   Ni6   S    
C5    C40   A    
C120  C137  S    
C77   H148  S    
C102  H62   S    
C104  H67   S    
C48   H101  S    
C43   C163  A    
C31   C66   A    
C108  C187  A    
C115  N22   A    
C64   H118  S    
N32   Ni1   S    
C112  H80   S    
C32   C130  A    
C61   H114  S    
C84   H8    S    
C149  H117  S    
C75   H141  S    
C88   H22   S    
N3    Ni4   S    
C22   C134  A    
C102  H60   S    
C78   H149  S    
C100  H58   S    
C161  C175  S    
C107  N14   A    
C63   C169  A    
C14   C49   A    
C15   C50   A    
C83   H4    S    
C25   C136  A    
N11   Ni7   S    
C141  C148  T    
C93   H34   S    
C67   H121  S    
C3    C38   A    
C50   C156  A    
C6    C41   A    
C117  H85   S    
C91   H29   S    
C59   C170  A    
C4    C74   S    
N22   Ni6   S    
C108  N15   A    
C89   H23   S    
C145  C153  T    
C73   H134  S    
C134  C152  S    
C8    C78   S    
C103  H65   S    
C124  C142  S    
C20   C55   A    
C94   H39   S    
C138  N28   A    
C109  C188  A    
C72   H130  S    
C111  C185  A    
C66   C166  A    
C17   C129  A    
C60   C172  A    
C76   H144  S    
C172  C186  S    
C42   C163  A    
C55   H109  S    
N10   N20   A    
C9    C80   S    
C52   H105  S    
C160  C179  A    
C19   C89   S    
N23   Ni3   S    
C4    C39   A    
N30   Ni4   S    
C70   H124  S    
C56   C168  A    
C129  C146  S    
C131  C148  S    
C61   C172  A    
C90   H71   S    
N13   N18   A    
C85   H10   S    
C105  C174  A    
C107  H75   S    
C22   C93   S    
C171  C180  A    
N14   Ni6   S    
C53   H107  S    
C164  C189  S    
C140  C150  T    
C59   H112  S    
C35   C180  A    
C97   H48   S    
C34   H88   S    
C9    C44   A    
C168  C185  S    
C15   C121  A    
C81   H156  S    
C69   H122  S    
C70   H125  S    
N6    N30   A    
N20   Ni8   S    
C9    C126  A    
C135  C153  S    
C23   C94   S    
C92   H30   S    
C93   H36   S    
C167  C181  S    
N5    N31   A    
C46   H46   S    
C91   H27   S    
N7    N29   A    
C89   H25   S    
C115  H83   S    
N8    Ni4   S    
C117  N24   A    
C95   H41   S    
N7    Ni3   S    
C37   H90   S    
C42   H96   S    
C94   H37   S    
