data_mof_unit_60501.cif
_audit_creation_date              2012-12-10T19:58:49-0500
_audit_creation_method            fapswitch 2.2
_symmetry_space_group_name_H-M    P1
_symmetry_Int_Tables_number       1
_space_group_crystal_system       triclinic
_cell_length_a                    38.812626
_cell_length_b                    32.113642
_cell_length_c                    21.742362
_cell_angle_alpha                 90.411767
_cell_angle_beta                  124.281179
_cell_angle_gamma                 89.462388
_cell_volume                      22391.2351195

loop_
_atom_site_label
_atom_site_type_symbol
_atom_type_description
_atom_site_fract_x
_atom_site_fract_y
_atom_site_fract_z
_atom_type_partial_charge
C1    C     C_R   0.919399 0.000167 0.418300 0.904195
C2    C     C_R   0.965931 0.995356 0.251276 -0.100193
C3    C     C_1   0.500514 0.338072 0.001388 0.064509
C4    C     C_1   0.000380 0.875289 0.000497 -0.025116
C5    C     C_1   0.500407 0.375292 0.000963 -0.022478
C6    C     C_1   0.500200 0.124544 0.000879 -0.073455
C7    C     C_1   0.000056 0.624545 0.000696 -0.075384
C8    C     C_R   0.461250 0.772474 0.954512 0.108111
C9    C     C_R   0.538129 0.771835 0.039879 0.116622
C10   C     C_R   0.961612 0.272460 0.953918 0.113229
C11   C     C_R   0.038357 0.271887 0.041654 0.113162
C12   C     C_R   0.916603 0.987588 0.606858 0.063677
C13   C     C_R   0.520263 0.469592 0.739886 -0.116878
C14   C     C_R   0.083220 0.986133 0.393378 0.044458
C15   C     C_R   0.447113 0.560187 0.634327 0.142546
C16   C     C_R   0.583191 0.486977 0.393218 0.041667
C17   C     C_R   0.499729 0.793584 0.997517 0.022145
C18   C     C_R   0.000011 0.293600 0.998024 0.021320
C19   C     C_R   0.038088 0.227876 0.043902 0.104508
C20   C     C_R   0.961697 0.228411 0.952023 0.104402
C21   C     C_R   0.537892 0.727816 0.041823 0.100933
C22   C     C_R   0.461291 0.728432 0.952350 0.110090
C23   C     C_R   0.999821 0.206707 0.998259 0.020947
C24   C     C_R   0.465844 0.495028 0.251106 -0.100984
C25   C     C_R   0.499513 0.706687 0.997371 0.030533
C26   C     C_1   0.499815 0.838279 0.998379 -0.018231
C27   C     C_1   0.000056 0.338290 0.998679 -0.018607
C28   C     C_1   0.999688 0.162003 0.998807 -0.020112
C29   C     C_1   0.499407 0.661988 0.998199 0.028117
C30   C     C_R   0.881946 0.998689 0.609135 -0.167403
C31   C     C_R   0.117987 0.997961 0.392412 -0.066329
C32   C     C_R   0.443485 0.600863 0.655456 -0.196888
C33   C     C_R   0.617789 0.499035 0.391951 -0.066201
C34   C     C_R   0.885065 0.992449 0.676384 -0.190174
C35   C     C_R   0.036288 0.990651 0.814257 -0.120491
C36   C     C_R   0.115093 0.993199 0.324977 -0.163998
C37   C     C_R   0.455416 0.607219 0.729314 -0.180562
C38   C     C_R   0.615035 0.493799 0.324719 -0.165016
C39   C     C_R   0.922349 0.974307 0.735403 -0.063102
C40   C     C_R   0.078339 0.975079 0.264971 -0.097170
C41   C     C_R   0.459902 0.571349 0.770269 -0.108218
C42   C     C_R   0.578395 0.475323 0.265026 -0.093407
C43   C     C_R   0.959838 0.984081 0.741617 0.014682
C44   C     C_R   0.040489 0.984044 0.258475 0.011707
C45   C     C_R   0.476926 0.534783 0.758728 0.003100
C46   C     C_R   0.963863 0.989412 0.185571 -0.122213
C47   C     C_R   0.540483 0.484125 0.258431 0.011159
C48   C     C_R   0.957234 0.989672 0.675093 0.052704
C49   C     C_R   0.042750 0.988865 0.324926 0.036893
C50   C     C_R   0.473917 0.531401 0.691596 0.077527
C51   C     C_R   0.542701 0.489153 0.324799 0.038708
C52   C     C_2   0.073057 0.000868 0.751196 0.965872
C53   C     C_2   0.926720 0.998500 0.248549 0.954365
C54   C     C_2   0.547050 0.438268 0.734611 1.008811
C55   C     C_2   0.426607 0.497945 0.248336 0.954445
C56   C     C_2   0.794604 0.076739 0.324746 1.032309
C57   C     C_R   0.518287 0.469411 0.801890 -0.105808
C58   C     C_2   0.204731 0.068391 0.763868 0.997098
C59   C     C_2   0.294938 0.573338 0.339979 0.968727
C60   C     C_2   0.704250 0.576061 0.676739 1.035390
C61   C     C_2   0.930598 0.795477 0.877634 0.963467
C62   C     C_2   0.070256 0.794976 0.124052 0.964765
C63   C     C_2   0.426943 0.295527 0.886754 0.975360
C64   C     C_2   0.573791 0.294912 0.116773 0.962126
C65   C     C_2   0.428400 0.204653 0.883272 0.977739
C66   C     C_2   0.572240 0.204052 0.120128 0.982863
C67   C     C_2   0.931928 0.704568 0.875457 0.981077
C68   C     C_R   0.463837 0.489031 0.185456 -0.120672
C69   C     C_2   0.068332 0.704138 0.126817 0.982127
C70   C     C_3   0.921555 0.204075 0.901040 -0.399108
C71   C     C_3   0.901940 0.191095 0.942186 -0.800555
C72   C     C_3   0.078182 0.203021 0.094696 -0.400753
C73   C     C_3   0.097088 0.188212 0.052838 -0.798021
C74   C     C_3   0.421018 0.704169 0.902204 -0.383933
C75   C     C_3   0.402328 0.690632 0.944630 -0.827216
C76   C     C_3   0.578167 0.702879 0.090786 -0.412161
C77   C     C_3   0.595791 0.688427 0.046631 -0.785341
C78   C     C_3   0.420567 0.797429 0.911783 -0.402337
C79   C     C_R   0.998954 0.988536 0.811356 -0.155496
C80   C     C_3   0.410357 0.811366 0.836183 -0.823422
C81   C     C_3   0.578924 0.796092 0.082568 -0.401593
C82   C     C_3   0.589741 0.809665 0.158962 -0.830493
C83   C     C_3   0.920993 0.297400 0.909177 -0.403503
C84   C     C_3   0.912141 0.310814 0.834279 -0.829499
C85   C     C_3   0.079146 0.296162 0.084731 -0.404040
C86   C     C_3   0.089286 0.310638 0.160265 -0.829155
C87   C     C_3   0.907018 0.955719 0.547224 -0.451739
C88   C     C_3   0.898032 0.913034 0.565781 -0.735616
C89   C     C_3   0.092624 0.953732 0.451765 -0.449350
C90   C     C_R   0.001299 0.988209 0.188618 -0.150213
C91   C     C_3   0.106558 0.912445 0.436535 -0.727387
C92   C     C_3   0.415190 0.545076 0.555649 -0.414287
C93   C     C_3   0.371612 0.543642 0.540169 -0.791261
C94   C     C_3   0.593007 0.454906 0.452282 -0.444514
C95   C     C_3   0.606977 0.413494 0.437551 -0.727564
C96   C     C_2   0.841776 0.009183 0.538336 1.040625
C97   C     C_2   0.158253 0.006568 0.463996 1.000905
C98   C     C_2   0.424180 0.634524 0.598933 1.049454
C99   C     C_2   0.657753 0.508612 0.463316 0.996256
C100  C     C_2   0.852596 0.006990 0.688644 0.965777
C101  C     C_R   0.497918 0.502561 0.812147 -0.146578
C102  C     C_2   0.147038 0.009683 0.313544 1.009960
C103  C     C_2   0.462576 0.649358 0.764118 0.950452
C104  C     C_2   0.647000 0.510024 0.313093 1.007322
C105  C     C_2   0.920557 0.937243 0.774890 0.996645
C106  C     C_2   0.081326 0.937945 0.226148 1.011707
C107  C     C_2   0.427396 0.567678 0.785835 0.950495
C108  C     C_2   0.581595 0.438262 0.226297 1.010376
C109  C     C_2   0.078045 0.986272 0.885285 1.010414
C110  C     C_2   0.922307 0.984356 0.114452 1.011035
C111  C     C_2   0.538458 0.434982 0.857168 0.987193
C112  C     C_R   0.080595 0.999914 0.581882 0.903204
C113  C     C_R   0.501292 0.488053 0.188555 -0.150190
C114  C     C_2   0.422340 0.483674 0.114332 1.009985
C115  C     C_2   0.796602 0.925490 0.267461 0.898803
C116  C     C_2   0.203686 0.930614 0.652273 0.886080
C117  C     C_2   0.296164 0.429514 0.249297 0.899218
C118  C     C_2   0.704558 0.424170 0.729275 0.915324
C119  C     C_3   0.704706 0.922850 0.178256 -0.405516
C120  C     C_3   0.693982 0.901103 0.227540 -0.810460
C121  C     C_3   0.296272 0.929239 0.742673 -0.398733
C122  C     C_3   0.310483 0.938421 0.691431 -0.740820
C123  C     C_3   0.204255 0.426517 0.161365 -0.395290
C124  C     C_R   0.728355 0.963138 0.214384 0.108622
C125  C     C_3   0.192783 0.399680 0.204890 -0.828946
C126  C     C_3   0.796538 0.421854 0.818717 -0.401687
C127  C     C_3   0.807726 0.400909 0.768908 -0.825136
C128  C     C_2   0.703689 0.076728 0.230917 0.979156
C129  C     C_2   0.295600 0.068663 0.852266 0.988306
C130  C     C_2   0.203982 0.573922 0.246040 0.985981
C131  C     C_2   0.795146 0.576177 0.769979 0.979888
C132  C     C_R   0.271927 0.965905 0.745650 0.093391
C133  C     C_R   0.228143 0.465188 0.205850 0.105048
C134  C     C_R   0.772243 0.462198 0.783809 0.104281
C135  C     C_R   0.706453 0.000164 0.207541 0.032234
C136  C     C_R   0.293465 0.000272 0.792728 0.027039
C137  C     C_R   0.206431 0.500460 0.207010 0.024546
C138  C     C_R   0.793565 0.499448 0.791792 0.029187
C139  C     C_R   0.727595 0.037649 0.242082 -0.114587
C140  C     C_R   0.419396 0.500120 0.418327 0.904898
C141  C     C_R   0.272015 0.033697 0.799858 -0.118639
C142  C     C_R   0.227735 0.536299 0.249204 -0.114091
C143  C     C_R   0.771840 0.536972 0.758125 -0.125802
C144  C     C_R   0.771523 0.038129 0.284775 -0.090342
C145  C     C_R   0.228185 0.032792 0.759419 -0.107343
C146  C     C_R   0.271673 0.536733 0.292032 -0.100151
C147  C     C_R   0.727918 0.537352 0.715646 -0.106731
C148  C     C_R   0.793407 0.001173 0.291697 -0.046059
C149  C     C_R   0.206591 0.998673 0.712101 -0.038463
C150  C     C_R   0.293384 0.501444 0.291211 -0.058493
C151  C     C_R   0.580599 0.499942 0.582003 0.894832
C152  C     C_R   0.706605 0.500227 0.707884 -0.054510
C153  C     C_R   0.772282 0.963840 0.257158 -0.025324
C154  C     C_R   0.227922 0.965416 0.704369 -0.037488
C155  C     C_R   0.272066 0.465946 0.248324 -0.024138
C156  C     C_R   0.728300 0.462768 0.741060 -0.031542
C157  C     C_R   0.994686 0.999881 0.614110 0.862893
C158  C     C_R   0.005176 0.999529 0.385740 0.871044
C159  C     C_R   0.499928 0.500083 0.620346 0.882593
C160  C     C_R   0.505053 0.499535 0.385571 0.868703
C161  C     C_1   0.661781 0.000035 0.162516 0.015728
C162  C     C_R   0.994654 0.997774 0.679941 -0.148430
C163  C     C_1   0.338170 0.000167 0.837441 0.010491
C164  C     C_1   0.161763 0.500395 0.162279 0.015350
C165  C     C_1   0.838232 0.499531 0.837160 0.015600
C166  C     C_1   0.838078 0.001038 0.336140 0.055029
C167  C     C_1   0.161908 0.999292 0.666590 0.081920
C168  C     C_1   0.338067 0.501007 0.336221 0.038602
C169  C     C_1   0.661936 0.500115 0.663997 0.072578
C170  C     C_1   0.875309 0.000638 0.373450 -0.093063
C171  C     C_1   0.124678 0.999701 0.628066 -0.085487
C172  C     C_1   0.375303 0.500499 0.373787 -0.086810
C173  C     C_R   0.005167 0.996745 0.319890 -0.145995
C174  C     C_1   0.624701 0.499934 0.626960 -0.076712
C175  C     C_1   0.624531 0.999956 0.124908 -0.128468
C176  C     C_1   0.375435 0.000060 0.875004 -0.134699
C177  C     C_1   0.124517 0.500216 0.124840 -0.129353
C178  C     C_1   0.875479 0.499688 0.875003 -0.130341
C179  C     C_1   0.499907 0.875514 0.999120 -0.181993
C180  C     C_1   0.000055 0.375522 0.999270 -0.182723
C181  C     C_R   0.000123 0.919369 0.000097 0.960854
C182  C     C_R   0.500126 0.419372 0.000296 0.983047
C183  C     C_R   0.999894 0.995902 0.879272 0.894057
C184  C     C_R   0.497322 0.500010 0.684124 -0.189040
C185  C     C_R   0.000186 0.995857 0.120724 0.893480
C186  C     C_R   0.499614 0.503316 0.879719 0.883746
C187  C     C_R   0.500184 0.495781 0.120695 0.892889
C188  C     C_R   0.999884 0.080639 0.999905 0.902727
C189  C     C_R   0.499872 0.580639 0.999975 0.901535
C190  C     C_R   0.500001 0.919626 0.999787 0.885207
C191  C     C_R   0.000031 0.419629 0.999816 0.885797
C192  C     C_R   0.580417 0.999939 0.080482 0.896965
C193  C     C_R   0.419571 0.999993 0.919494 0.899119
C194  C     C_R   0.080413 0.500011 0.080473 0.896184
C195  C     C_R   0.505063 0.496758 0.319715 -0.145583
C196  C     C_R   0.919586 0.499924 0.919510 0.897672
C197  C     C_1   0.999676 0.124762 0.999287 -0.180821
C198  C     C_1   0.499566 0.624753 0.999082 -0.108844
C199  C     C_R   0.500033 0.080458 0.000237 0.908087
C200  C     C_R   0.999994 0.580458 0.000195 0.905950
C201  C     C_R   0.464873 0.228099 0.944395 -0.090088
C202  C     C_R   0.535860 0.227789 0.058905 -0.091530
C203  C     C_R   0.966503 0.728056 0.940074 -0.091391
C204  C     C_R   0.033937 0.727827 0.062018 -0.091089
C205  C     C_R   0.500359 0.206417 0.001587 -0.028522
C206  C     C_R   0.033959 0.996866 0.748506 -0.109571
C207  C     C_R   0.000169 0.706416 0.001076 -0.028985
C208  C     C_R   0.034132 0.771741 0.061803 -0.086314
C209  C     C_R   0.966563 0.771964 0.940059 -0.084893
C210  C     C_R   0.535990 0.271708 0.058709 -0.084569
C211  C     C_R   0.464815 0.272009 0.944601 -0.092286
C212  C     C_R   0.000409 0.793407 0.000866 -0.032166
C213  C     C_R   0.500448 0.293414 0.001590 -0.031682
C214  C     C_1   0.500323 0.161768 0.001328 0.072533
C215  C     C_1   0.000115 0.661768 0.000975 0.072949
C216  C     C_1   0.000469 0.838068 0.000740 0.063750
H1    H     H_    0.127517 0.974823 0.779060 0.363335
H2    H     H_    0.132711 0.801553 0.190798 0.360787
H3    H     H_    0.675672 0.929103 0.122764 0.211314
H4    H     H_    0.722707 0.900894 0.167000 0.241834
H5    H     H_    0.283214 0.945028 0.634110 0.290330
H6    H     H_    0.331679 0.965601 0.712085 0.253619
H7    H     H_    0.327509 0.910981 0.689602 0.245689
H8    H     H_    0.323880 0.921857 0.799330 0.197861
H9    H     H_    0.277787 0.900173 0.723886 0.227443
H10   H     H_    0.221450 0.389265 0.257978 0.280622
H11   H     H_    0.172647 0.417364 0.217288 0.264628
H12   H     H_    0.175509 0.371782 0.171463 0.248443
H13   H     H_    0.364547 0.302780 0.830272 0.364991
H14   H     H_    0.175527 0.435421 0.107110 0.213085
H15   H     H_    0.222286 0.407081 0.146550 0.241287
H16   H     H_    0.778961 0.393563 0.713702 0.280268
H17   H     H_    0.827825 0.421475 0.761139 0.266804
H18   H     H_    0.824923 0.371454 0.795093 0.246517
H19   H     H_    0.825421 0.427881 0.874473 0.212005
H20   H     H_    0.778861 0.399463 0.829139 0.240997
H21   H     H_    0.695557 0.137769 0.204593 0.361500
H22   H     H_    0.304200 0.105591 0.935224 0.363884
H23   H     H_    0.196006 0.636150 0.232416 0.362131
H24   H     H_    0.636184 0.301405 0.173614 0.359007
H25   H     H_    0.802491 0.637085 0.797694 0.363647
H26   H     H_    0.386933 0.158463 0.853986 0.373983
H27   H     H_    0.613496 0.156971 0.149656 0.361787
H28   H     H_    0.889645 0.658508 0.839157 0.364536
H29   H     H_    0.110294 0.657151 0.163521 0.359849
H30   H     H_    0.923340 0.170153 0.989309 0.268242
H31   H     H_    0.894850 0.218828 0.964076 0.253274
H32   H     H_    0.872465 0.174193 0.903412 0.261174
H33   H     H_    0.873100 0.971322 0.220757 0.357448
H34   H     H_    0.898528 0.221900 0.850514 0.216932
H35   H     H_    0.927693 0.175864 0.878692 0.219499
H36   H     H_    0.075310 0.167095 0.006431 0.268597
H37   H     H_    0.104067 0.215113 0.029861 0.253167
H38   H     H_    0.126542 0.170951 0.091471 0.261091
H39   H     H_    0.101630 0.221048 0.144491 0.217173
H40   H     H_    0.072144 0.175640 0.118171 0.218961
H41   H     H_    0.424126 0.669519 0.991102 0.266709
H42   H     H_    0.395592 0.718109 0.967577 0.258198
H43   H     H_    0.372774 0.673726 0.906376 0.262788
H44   H     H_    0.559926 0.377643 0.731263 0.356046
H45   H     H_    0.397561 0.722163 0.852291 0.215678
H46   H     H_    0.426794 0.676246 0.878863 0.270804
H47   H     H_    0.573418 0.667617 0.000222 0.278353
H48   H     H_    0.602314 0.715535 0.023369 0.254302
H49   H     H_    0.625320 0.670949 0.083791 0.256360
H50   H     H_    0.602164 0.720698 0.140326 0.218915
H51   H     H_    0.572733 0.675327 0.114776 0.212939
H52   H     H_    0.435110 0.832095 0.843330 0.267273
H53   H     H_    0.407498 0.784028 0.802083 0.263147
H54   H     H_    0.380342 0.828803 0.805995 0.251416
H55   H     H_    0.373052 0.470549 0.220378 0.360195
H56   H     H_    0.393994 0.779758 0.903945 0.216941
H57   H     H_    0.422473 0.825235 0.944219 0.211899
H58   H     H_    0.565370 0.831002 0.153033 0.269171
H59   H     H_    0.592455 0.782236 0.192244 0.260157
H60   H     H_    0.619962 0.826310 0.189378 0.250262
H61   H     H_    0.605217 0.778004 0.089042 0.215892
H62   H     H_    0.576887 0.824032 0.050829 0.212148
H63   H     H_    0.937137 0.331599 0.842570 0.268749
H64   H     H_    0.910151 0.283248 0.801342 0.260193
H65   H     H_    0.882042 0.328008 0.802243 0.250288
H66   H     H_    0.801156 0.124956 0.390481 0.363319
H67   H     H_    0.894045 0.279875 0.900087 0.215863
H68   H     H_    0.922289 0.325440 0.940605 0.211533
H69   H     H_    0.064626 0.332030 0.153031 0.268544
H70   H     H_    0.091925 0.283612 0.194254 0.259926
H71   H     H_    0.119401 0.327509 0.190628 0.252885
H72   H     H_    0.105674 0.277821 0.092671 0.215881
H73   H     H_    0.077427 0.323685 0.052431 0.211237
H74   H     H_    0.925277 0.901987 0.620243 0.267291
H75   H     H_    0.870214 0.914459 0.568139 0.250390
H76   H     H_    0.891890 0.890229 0.522098 0.272389
H77   H     H_    0.196472 0.130626 0.761262 0.362152
H78   H     H_    0.879710 0.965600 0.492142 0.216723
H79   H     H_    0.932402 0.951074 0.540520 0.250222
H80   H     H_    0.082394 0.900970 0.379766 0.265382
H81   H     H_    0.136447 0.916125 0.441503 0.290068
H82   H     H_    0.111220 0.888783 0.477597 0.249591
H83   H     H_    0.117489 0.964753 0.508053 0.216566
H84   H     H_    0.065910 0.946314 0.453494 0.250310
H85   H     H_    0.371945 0.524268 0.582642 0.284395
H86   H     H_    0.360240 0.575366 0.540669 0.263293
H87   H     H_    0.349546 0.529598 0.484549 0.256046
H88   H     H_    0.301579 0.615688 0.414897 0.368132
H89   H     H_    0.414741 0.565666 0.514539 0.258418
H90   H     H_    0.422117 0.512897 0.547037 0.192316
H91   H     H_    0.582411 0.401366 0.381581 0.264112
H92   H     H_    0.636369 0.417272 0.440798 0.275095
H93   H     H_    0.612622 0.390335 0.480044 0.270553
H94   H     H_    0.618067 0.466212 0.508165 0.218181
H95   H     H_    0.566512 0.447617 0.454728 0.249350
H96   H     H_    0.811028 0.960822 0.544815 0.314274
H97   H     H_    0.219764 0.993948 0.532448 0.357571
H98   H     H_    0.379628 0.647258 0.617344 0.306396
H99   H     H_    0.696738 0.624631 0.611795 0.364007
H100  H     H_    0.719114 0.495981 0.534010 0.360051
H101  H     H_    0.796755 0.034588 0.647855 0.361964
H102  H     H_    0.199113 0.043555 0.352898 0.355918
H103  H     H_    0.461985 0.711855 0.754006 0.349827
H104  H     H_    0.699908 0.542531 0.352957 0.356532
H105  H     H_    0.885565 0.898605 0.790940 0.367639
H106  H     H_    0.117703 0.899189 0.212225 0.365920
H107  H     H_    0.397685 0.593670 0.828610 0.343530
H108  H     H_    0.618156 0.400018 0.211998 0.367970
H109  H     H_    0.134563 0.011346 0.957889 0.358029
H110  H     H_    0.868197 0.803270 0.810929 0.358580
H111  H     H_    0.864932 0.008272 0.041836 0.356490
H112  H     H_    0.590924 0.402473 0.928441 0.357721
H113  H     H_    0.364763 0.507115 0.041567 0.354452
H114  H     H_    0.814863 0.883393 0.221929 0.362695
H115  H     H_    0.159233 0.887184 0.618985 0.349476
H116  H     H_    0.313726 0.394667 0.193828 0.365347
H117  H     H_    0.687116 0.380955 0.773236 0.359923
H118  H     H_    0.722922 0.893469 0.282391 0.281675
H119  H     H_    0.673664 0.921273 0.236211 0.267968
H120  H     H_    0.677178 0.871745 0.200413 0.243540
O1    O     O_R   0.939010 0.034430 0.439030 -0.573827
O2    O     O_R   0.439000 0.999980 0.990770 -0.607449
O3    O     O_R   0.119867 0.925099 0.241107 -0.753019
O4    O     O_2   0.402930 0.538611 0.759266 -0.595185
O5    O     O_R   0.421951 0.599142 0.824355 -0.797323
O6    O     O_2   0.550823 0.417029 0.184912 -0.615218
O7    O     O_R   0.620161 0.425874 0.240857 -0.757256
O8    O     O_2   0.086827 0.954572 0.922286 -0.568046
O9    O     O_R   0.107300 0.018107 0.909047 -0.775954
O10   O     O_2   0.914697 0.952745 0.077271 -0.569345
O11   O     O_R   0.891916 0.015451 0.090768 -0.780254
O12   O     O_2   0.517765 0.414274 0.871963 -0.611698
O13   O     O_R   0.061000 0.499980 0.009230 -0.616216
O14   O     O_R   0.580956 0.426507 0.892126 -0.768747
O15   O     O_2   0.415030 0.452071 0.077263 -0.572871
O16   O     O_R   0.391671 0.514485 0.090487 -0.780839
O17   O     O_2   0.817086 0.908768 0.328493 -0.611527
O18   O     O_R   0.796853 0.909328 0.207863 -0.793515
O19   O     O_2   0.209436 0.920361 0.604447 -0.616091
O20   O     O_R   0.173787 0.910113 0.657433 -0.787864
O21   O     O_2   0.316926 0.408638 0.305806 -0.595735
O22   O     O_R   0.295798 0.419873 0.186149 -0.795024
O23   O     O_2   0.684154 0.408137 0.667517 -0.618744
O24   O     O_R   0.939000 0.499980 0.990770 -0.615139
O25   O     O_R   0.704733 0.406981 0.788320 -0.782503
O26   O     O_2   0.675216 0.076848 0.239716 -0.590569
O27   O     O_R   0.713884 0.113344 0.210322 -0.773838
O28   O     O_2   0.323167 0.086043 0.851201 -0.595555
O29   O     O_R   0.286176 0.081583 0.902782 -0.772874
O30   O     O_2   0.175542 0.570649 0.254543 -0.599761
O31   O     O_R   0.214267 0.613062 0.233269 -0.759133
O32   O     O_2   0.823531 0.576585 0.760962 -0.599030
O33   O     O_R   0.784504 0.612568 0.791482 -0.771079
O34   O     O_R   0.499990 0.061030 0.051640 -0.601588
O35   O     O_R   0.500010 0.061030 0.948360 -0.606483
O36   O     O_R   0.999990 0.561030 0.051640 -0.604307
O37   O     O_R   0.000010 0.561030 0.948360 -0.603868
O38   O     O_R   0.939020 0.965580 0.438990 -0.633966
O39   O     O_R   0.060980 0.965580 0.561010 -0.629044
O40   O     O_R   0.439020 0.465580 0.438990 -0.603308
O41   O     O_R   0.060990 0.034430 0.560970 -0.583749
O42   O     O_R   0.560980 0.465580 0.561010 -0.620471
O43   O     O_R   0.999990 0.034430 0.591600 -0.577234
O44   O     O_R   0.000010 0.034430 0.408400 -0.576448
O45   O     O_R   0.499990 0.534430 0.591600 -0.612216
O46   O     O_R   0.500010 0.534430 0.408400 -0.570210
O47   O     O_R   0.000000 0.965580 0.591570 -0.629502
O48   O     O_R   0.000000 0.965580 0.408430 -0.634333
O49   O     O_R   0.500000 0.465580 0.591570 -0.608975
O50   O     O_R   0.500000 0.465580 0.408430 -0.637386
O51   O     O_R   0.034430 0.939010 0.034360 -0.597424
O52   O     O_R   0.439010 0.534430 0.439030 -0.590246
O53   O     O_R   0.965570 0.939010 0.965640 -0.597024
O54   O     O_R   0.534430 0.439010 0.034360 -0.601191
O55   O     O_R   0.465570 0.439010 0.965640 -0.593630
O56   O     O_R   0.034440 0.999990 0.942790 -0.607168
O57   O     O_R   0.965560 0.999990 0.057210 -0.607489
O58   O     O_R   0.534440 0.499990 0.942790 -0.617020
O59   O     O_R   0.465560 0.499990 0.057210 -0.613028
O60   O     O_R   0.965580 1.000000 0.873950 -0.620914
O61   O     O_R   0.034420 0.000000 0.126050 -0.624459
O62   O     O_R   0.465580 0.500000 0.873950 -0.578775
O63   O     O_R   0.560990 0.534430 0.560970 -0.595275
O64   O     O_R   0.534420 0.500000 0.126050 -0.622962
O65   O     O_R   0.034440 0.060980 0.034440 -0.608024
O66   O     O_R   0.965560 0.060980 0.965560 -0.606609
O67   O     O_R   0.534440 0.560980 0.034440 -0.620060
O68   O     O_R   0.465560 0.560980 0.965560 -0.609482
O69   O     O_R   0.500010 0.939050 0.051750 -0.614381
O70   O     O_R   0.499990 0.939050 0.948250 -0.615502
O71   O     O_R   0.000010 0.439050 0.051750 -0.615150
O72   O     O_R   0.999990 0.439050 0.948250 -0.615946
O73   O     O_2   0.079563 0.032573 0.728558 -0.564531
O74   O     O_R   0.560990 0.000040 0.112660 -0.599276
O75   O     O_R   0.102352 0.968442 0.780221 -0.766109
O76   O     O_2   0.919301 0.029893 0.271401 -0.584036
O77   O     O_R   0.898401 0.965584 0.219399 -0.767086
O78   O     O_2   0.575609 0.449788 0.730404 -0.602175
O79   O     O_R   0.539607 0.395780 0.734873 -0.764656
O80   O     O_2   0.419090 0.529225 0.271295 -0.583619
O81   O     O_R   0.398381 0.464950 0.219049 -0.767740
O82   O     O_2   0.823483 0.088595 0.321761 -0.586203
O83   O     O_R   0.783208 0.099437 0.365853 -0.733849
O84   O     O_2   0.176949 0.061965 0.773156 -0.574248
O85   O     O_R   0.439010 0.000040 0.887340 -0.612771
O86   O     O_R   0.214465 0.109209 0.757219 -0.763682
O87   O     O_2   0.324096 0.587772 0.340321 -0.569036
O88   O     O_R   0.283459 0.591137 0.384887 -0.781632
O89   O     O_2   0.675409 0.587717 0.680535 -0.591807
O90   O     O_R   0.715052 0.599076 0.635682 -0.748422
O91   O     O_2   0.936589 0.823663 0.847246 -0.589283
O92   O     O_R   0.889911 0.785175 0.853676 -0.766181
O93   O     O_2   0.064462 0.823931 0.154119 -0.586342
O94   O     O_R   0.110873 0.783540 0.148203 -0.763824
O95   O     O_2   0.429971 0.324211 0.853396 -0.576272
O96   O     O_R   0.060990 0.500040 0.112660 -0.598847
O97   O     O_R   0.387835 0.284672 0.870555 -0.761634
O98   O     O_2   0.570633 0.323900 0.150121 -0.592902
O99   O     O_R   0.612970 0.283418 0.133215 -0.769067
O100  O     O_2   0.413351 0.213867 0.818333 -0.579875
O101  O     O_R   0.411439 0.172033 0.900145 -0.772101
O102  O     O_2   0.587303 0.213661 0.185029 -0.578403
O103  O     O_R   0.589090 0.170698 0.103422 -0.785776
O104  O     O_2   0.920563 0.713611 0.812088 -0.580854
O105  O     O_R   0.912534 0.672103 0.887275 -0.785220
O106  O     O_2   0.079702 0.713768 0.190099 -0.581498
O107  O     O_R   0.939010 0.500040 0.887340 -0.600689
O108  O     O_R   0.087549 0.670816 0.115291 -0.784249
O109  O     O_2   0.840440 0.037975 0.500703 -0.567117
O110  O     O_R   0.805965 0.985450 0.511770 -0.712998
O111  O     O_2   0.159183 0.030467 0.508942 -0.632084
O112  O     O_R   0.194606 0.985932 0.481537 -0.737356
O113  O     O_2   0.437864 0.641946 0.561570 -0.546032
O114  O     O_R   0.389852 0.657285 0.586220 -0.723146
O115  O     O_2   0.658258 0.533852 0.506174 -0.624422
O116  O     O_R   0.694225 0.487294 0.483271 -0.752715
O117  O     O_2   0.859484 0.004975 0.750822 -0.582035
O118  O     O_R   0.561000 0.999980 0.009230 -0.614920
O119  O     O_R   0.815464 0.025499 0.631386 -0.771621
O120  O     O_2   0.142573 0.004897 0.253581 -0.589550
O121  O     O_R   0.180418 0.033538 0.368495 -0.772935
O122  O     O_2   0.477421 0.652311 0.830682 -0.619783
O123  O     O_R   0.455178 0.685607 0.723078 -0.775176
O124  O     O_2   0.641827 0.506085 0.252411 -0.592269
O125  O     O_R   0.681310 0.532586 0.368814 -0.765705
O126  O     O_2   0.951993 0.916448 0.815836 -0.611250
O127  O     O_R   0.882592 0.924393 0.761638 -0.769154
O128  O     O_2   0.050376 0.917025 0.184362 -0.611125
Zn1   Zn    Zn3+2 0.000000 0.045980 0.500000 1.091747
Zn2   Zn    Zn3+2 0.500000 0.000050 0.930960 1.016375
Zn3   Zn    Zn3+2 1.000000 0.500050 0.069040 1.024944
Zn4   Zn    Zn3+2 0.000000 0.500050 0.930960 1.022861
Zn5   Zn    Zn3+2 0.500000 0.545980 0.500000 1.095763
Zn6   Zn    Zn3+2 1.000000 0.954030 0.500000 1.015034
Zn7   Zn    Zn3+2 0.500000 0.454030 0.500000 1.045234
Zn8   Zn    Zn3+2 0.045980 0.999990 0.045940 1.096706
Zn9   Zn    Zn3+2 0.954020 0.999990 0.954060 1.100690
Zn10  Zn    Zn3+2 0.545980 0.499990 0.045940 1.080279
Zn11  Zn    Zn3+2 0.454020 0.499990 0.954060 1.087420
Zn12  Zn    Zn3+2 0.500000 0.000050 0.069040 1.032330

loop_
_geom_bond_atom_site_label_1
_geom_bond_atom_site_label_2
_ccdc_geom_bond_type
C8    C78   S    
C133  C137  A    
C126  C127  S    
C181  O51   A    
C102  O120  D    
C142  C146  A    
C71   H31   S    
C49   C173  A    
C15   C32   A    
H33   O77   S    
O40   Zn7   S    
C135  C139  A    
C21   C76   S    
C98   O114  S    
O71   Zn3   S    
C138  C165  S    
C81   H61   S    
C117  O21   D    
C82   H58   S    
C128  C139  S    
C138  C143  A    
C128  O26   D    
C48   C162  A    
C92   H89   S    
C116  O19   D    
C84   H63   S    
C121  H9    S    
H110  O92   S    
C30   C96   S    
C146  C150  A    
O66   Zn9   S    
C204  C208  A    
C10   C20   A    
C169  C174  T    
O41   Zn1   S    
C41   C107  S    
C186  O62   A    
C116  C154  S    
C35   C109  S    
C187  O59   A    
C109  O8    D    
C60   O90   S    
C103  O122  D    
C185  O57   A    
C112  O41   A    
C115  C153  S    
C86   H70   S    
C64   C210  S    
H24   O99   S    
O61   Zn8   S    
C95   H91   S    
O37   Zn4   S    
C25   C29   S    
C111  O12   D    
C97   O111  D    
C27   C180  T    
C67   O104  D    
C167  C171  T    
C24   C195  A    
C69   O106  D    
H98   O114  S    
C59   O88   S    
C19   C23   A    
C66   O103  S    
C136  C141  A    
C118  O25   S    
C75   H42   S    
C208  C212  A    
C13   C184  A    
C120  H118  S    
O13   Zn4   S    
C189  O67   A    
C99   O115  D    
O50   Zn7   S    
C159  O49   A    
C188  O66   A    
C53   O76   D    
H105  O127  S    
C205  C214  S    
C151  O42   A    
C46   C110  S    
C88   H74   S    
H13   O97   S    
C148  C153  A    
C72   H39   S    
C125  H10   S    
C157  O43   A    
C5    C182  S    
C131  C143  S    
C89   H83   S    
C13   C54   S    
C77   H47   S    
C124  C135  A    
O51   Zn8   S    
C88   H76   S    
C50   C184  A    
C33   C38   A    
C72   C73   S    
C2    C53   S    
H77   O86   S    
C3    C213  S    
C140  O52   A    
C84   H65   S    
C16   C94   S    
C28   C197  T    
C100  O117  D    
H117  O25   S    
O67   Zn10  S    
C51   C195  A    
C8    C17   A    
C9    C21   A    
C57   C111  S    
C45   C50   A    
C10   C18   A    
C150  C168  S    
O43   Zn1   S    
C32   C98   S    
C157  O47   A    
H1    O75   S    
C67   C203  S    
C73   H38   S    
C182  O54   A    
C74   H45   S    
C193  O85   A    
C109  O9    S    
C126  C134  S    
C122  H6    S    
C41   C45   A    
C31   C36   A    
C129  O28   D    
O24   Zn3   S    
C157  C162  S    
O56   Zn8   S    
O1    Zn1   S    
C137  C142  A    
C11   C18   A    
C4    C216  T    
C76   H50   S    
C64   O98   D    
C10   C83   S    
C16   C51   A    
C14   C31   A    
H22   O29   S    
C59   O87   D    
C61   O92   S    
C26   C179  T    
C69   O108  S    
C193  O2    A    
C106  O3    S    
C6    C199  S    
C114  O15   D    
C78   C80   S    
C112  C171  S    
C13   C57   A    
O44   Zn1   S    
C120  H120  S    
C91   H80   S    
O42   Zn7   S    
C115  O18   S    
C139  C144  A    
C83   H68   S    
C114  O16   S    
C77   H49   S    
C22   C25   A    
C117  C155  S    
C112  O39   A    
C132  C154  A    
C118  C156  S    
C4    C181  S    
C89   C91   S    
H99   O90   S    
C126  H20   S    
C53   O77   S    
H112  O14   S    
C151  C174  S    
C124  C153  A    
C135  C161  S    
C20   C70   S    
C187  O64   A    
C1    O38   A    
C103  O123  S    
C127  H17   S    
C94   H95   S    
C30   C34   A    
C34   C39   A    
C100  O119  S    
C152  C156  A    
C93   H86   S    
H97   O112  S    
C160  O46   A    
C175  C192  S    
C190  O70   A    
C91   H82   S    
C23   C28   S    
C178  C196  S    
C111  O14   S    
O53   Zn9   S    
C33   C99   S    
O69   Zn12  S    
H27   O103  S    
H102  O121  S    
O64   Zn10  S    
H26   O101  S    
C35   C206  A    
C83   C84   S    
C20   C23   A    
C185  O61   A    
C132  C136  A    
C58   O84   D    
C65   O101  S    
C32   C37   A    
C56   O83   S    
C75   H43   S    
C166  C170  T    
C150  C155  A    
C119  H4    S    
C158  O48   A    
C191  O72   A    
C22   C74   S    
C121  C132  S    
C62   O94   S    
H100  O116  S    
C40   C106  S    
C21   C25   A    
O35   Zn2   S    
C80   H52   S    
C108  O6    D    
H55   O81   S    
C199  O34   A    
C63   C211  S    
C180  C191  S    
O47   Zn6   S    
C141  C145  A    
C210  C213  A    
C57   C101  A    
H104  O125  S    
C73   H36   S    
C160  O50   A    
C82   H59   S    
C123  H14   S    
C92   H90   S    
C116  O20   S    
C194  O13   A    
C84   H64   S    
C35   C79   A    
H115  O20   S    
C121  H8    S    
C79   C183  S    
C105  O127  S    
C37   C41   A    
C130  C142  S    
C7    C215  T    
C159  O45   A    
C66   C202  S    
C192  O74   A    
C40   C44   A    
C89   H84   S    
C69   C204  S    
C29   C198  T    
O57   Zn9   S    
C201  C205  A    
C130  O30   D    
C1    O1    A    
C201  C211  A    
H23   O31   S    
C196  O107  A    
C96   O109  D    
C44   C49   A    
C87   C88   S    
C85   H72   S    
C54   O78   D    
C148  C166  S    
C86   H71   S    
C200  O36   A    
C149  C167  S    
C12   C48   A    
C58   C145  S    
H114  O18   S    
C11   C19   A    
H103  O123  S    
C123  C133  S    
O70   Zn2   S    
O36   Zn3   S    
C2    C173  A    
C110  O10   D    
C123  C125  S    
C129  C141  S    
C113  C187  S    
H66   O83   S    
C209  C212  A    
C181  O53   A    
C80   H53   S    
C62   C208  S    
C7    C200  S    
C95   H93   S    
C74   H46   S    
C107  O4    D    
O45   Zn5   S    
C134  C156  A    
C75   H41   S    
C202  C205  A    
C34   C100  S    
C63   O95   D    
C70   C71   S    
C78   H56   S    
C159  C184  S    
C70   H34   S    
C63   O97   S    
C68   C113  A    
O63   Zn5   S    
C162  C206  A    
C186  O58   A    
C71   H32   S    
C72   H40   S    
H108  O7    S    
H96   O110  S    
H107  O5    S    
C87   H78   S    
C177  C194  S    
C81   H62   S    
C117  O22   S    
C188  O65   A    
O34   Zn12  S    
C37   C103  S    
C65   O100  D    
C47   C51   A    
C129  O29   S    
C85   C86   S    
C67   O105  S    
C200  O37   A    
C149  C154  A    
C14   C89   S    
O46   Zn5   S    
O65   Zn8   S    
C158  C173  S    
C6    C214  T    
C204  C207  A    
C194  O96   A    
C207  C215  S    
C61   C209  S    
C121  C122  S    
C45   C101  A    
C160  C195  S    
C73   H37   S    
C182  O55   A    
H21   O27   S    
C102  O121  S    
C122  H7    S    
C106  O128  D    
C86   H69   S    
C108  O7    S    
C56   O82   D    
C95   H92   S    
C14   C49   A    
C131  O33   S    
C47   C113  A    
C65   C201  S    
C12   C30   A    
C97   O112  S    
C1    C170  S    
C3    C5    T    
C119  C120  S    
C61   O91   D    
C90   C185  S    
C192  O118  A    
C85   H73   S    
C118  O23   D    
C66   O102  D    
C199  O35   A    
C140  O40   A    
C152  C169  S    
C188  C197  S    
C92   C93   S    
C189  O68   A    
C158  O44   A    
C115  O17   D    
C31   C97   S    
C94   C95   S    
O68   Zn11  S    
C83   H67   S    
C24   C68   A    
C183  O56   A    
C56   C144  S    
C168  C172  T    
C123  H15   S    
C71   H30   S    
C52   O73   D    
C125  H11   S    
C145  C149  A    
C196  O24   A    
C98   O113  D    
O48   Zn6   S    
C136  C163  S    
C189  C198  S    
C77   H48   S    
C88   H75   S    
C144  C148  A    
H101  O119  S    
C128  O27   S    
C81   C82   S    
C119  C124  S    
C2    C46   A    
C24   C55   S    
C143  C147  A    
C151  O63   A    
C52   C206  S    
C17   C26   S    
C93   H85   S    
C55   O80   D    
C11   C85   S    
C38   C42   A    
C161  C175  T    
O85   Zn2   S    
H44   O79   S    
C91   H81   S    
C43   C79   A    
C36   C102  S    
C15   C50   A    
C127  H16   S    
C38   C104  S    
H106  O3    S    
C183  O60   A    
C212  C216  S    
C122  H5    S    
H88   O88   S    
C46   C90   A    
C60   C147  S    
C43   C48   A    
C107  O5    S    
C15   C92   S    
O55   Zn11  S    
C140  C172  S    
C119  H3    S    
C165  C178  T    
C191  O71   A    
C19   C72   S    
C202  C210  A    
H109  O9    S    
C163  C176  T    
H116  O22   S    
C58   O86   S    
C74   C75   S    
C36   C40   A    
C76   C77   S    
O38   Zn6   S    
C104  O125  S    
C39   C43   A    
O54   Zn10  S    
C120  H119  S    
C203  C207  A    
C87   H79   S    
H29   O108  S    
O49   Zn7   S    
C82   H60   S    
C16   C33   A    
H28   O105  S    
H2    O94   S    
C8    C22   A    
O2    Zn12  S    
C105  O126  D    
C52   O75   S    
C126  H19   S    
O58   Zn10  S    
C9    C17   A    
C211  C213  A    
H25   O33   S    
C176  C193  S    
C130  O31   S    
C60   O89   D    
O74   Zn12  S    
C101  C186  S    
C125  H12   S    
C104  O124  D    
C44   C90   A    
C96   O110  S    
C39   C105  S    
C127  H18   S    
C94   H94   S    
C12   C87   S    
C54   O79   S    
C133  C155  A    
C93   H87   S    
C203  C209  A    
C18   C27   S    
C134  C138  A    
C137  C164  S    
C190  O69   A    
H113  O16   S    
O96   Zn3   S    
C131  O32   D    
C147  C152  A    
C110  O11   S    
C99   O116  S    
C179  C190  S    
C80   H54   S    
C42   C47   A    
O72   Zn4   S    
O118  Zn2   S    
O62   Zn11  S    
C59   C146  S    
O59   Zn11  S    
O60   Zn9   S    
H111  O11   S    
O107  Zn4   S    
C55   O81   S    
O39   Zn6   S    
C76   H51   S    
C68   C114  S    
C64   O99   S    
O52   Zn5   S    
C78   H57   S    
C62   O93   D    
C42   C108  S    
C70   H35   S    
C164  C177  T    
C9    C81   S    
