data_mof_unit_13036.cif
_audit_creation_date              2013-03-05T15:52:55-0500
_audit_creation_method            fapswitch 2.2
_symmetry_space_group_name_H-M    P1
_symmetry_Int_Tables_number       1
_space_group_crystal_system       triclinic
_cell_length_a                    10.68019
_cell_length_b                    10.744889
_cell_length_c                    17.06879
_cell_angle_alpha                 100.049976
_cell_angle_beta                  99.813624
_cell_angle_gamma                 60.889739
_cell_volume                      1676.73759137

loop_
_atom_site_label
_atom_site_type_symbol
_atom_site_description
_atom_site_fract_x
_atom_site_fract_y
_atom_site_fract_z
_atom_type_partial_charge
O1    O     O_R   0.749810 0.499790 0.438040 -0.481125
O2    O     O_R   0.477660 0.726260 0.439290 -0.510224
C1    C     C_R   0.353086 0.780566 0.403155 0.551811
O3    O     O_R   0.260150 0.743000 0.412270 -0.468953
O4    O     O_R   0.297740 0.466550 0.394720 -0.452954
C2    C     C_R   0.369241 0.345997 0.357562 0.563668
O5    O     O_R   0.488080 0.253500 0.386430 -0.512589
O6    O     O_R   0.722670 0.303800 0.421940 -0.508936
C3    C     C_R   0.779802 0.372909 0.404613 0.557795
O7    O     O_R   0.751130 0.502220 0.613520 -0.490304
O8    O     O_R   0.478890 0.728510 0.601960 -0.496517
C4    C     C_R   0.381449 0.714225 0.631296 0.512664
O9    O     O_R   0.261470 0.745430 0.587750 -0.493030
O10   O     O_R   0.298970 0.468800 0.557390 -0.492823
C5    C     C_R   0.407290 0.375052 0.600057 0.502298
O11   O     O_R   0.489400 0.255930 0.561910 -0.510161
O12   O     O_R   0.723890 0.306050 0.584610 -0.517863
C6    C     C_R   0.719827 0.411137 0.635821 0.509931
Cr1   Cr    Cr6+3 0.608100 0.610860 0.522250 1.048628
Cr2   Cr    Cr6+3 0.288890 0.599990 0.488420 1.106898
Cr3   Cr    Cr6+3 0.603040 0.289190 0.489390 1.023697
O13   O     O_3   0.500010 0.500010 0.500020 -0.311268
C7    C     C_1   0.342892 0.335734 0.274228 -0.021278
C8    C     C_1   0.331365 0.326462 0.203447 -0.024871
H1    H     H_    0.947159 0.457664 0.353698 0.196627
C9    C     C_R   0.860118 0.324751 0.169653 -0.001655
C10   C     C_R   0.805125 0.241064 0.190414 0.005169
C11   C     C_R   0.815834 0.225078 0.271841 0.007951
C12   C     C_R   0.911011 0.394167 0.308997 -0.140107
C13   C     C_R   0.919627 0.394122 0.229531 -0.144259
C14   C     C_R   0.747086 0.166966 0.132148 -0.092198
C15   C     C_R   0.718535 0.065016 0.153489 -0.103798
C16   C     C_R   0.742170 0.039692 0.232834 -0.101475
C17   C     C_R   0.792550 0.116094 0.291398 -0.078365
C18   C     C_R   0.849025 0.319309 0.330496 -0.016032
H2    H     H_    0.724730 0.185839 0.069871 0.138755
H3    H     H_    0.974046 0.448687 0.215103 0.172402
H4    H     H_    0.680085 0.003952 0.108332 0.139940
H5    H     H_    0.720171 0.961868 0.249632 0.152100
H6    H     H_    0.818366 0.083891 0.351058 0.164722
H7    H     H_    0.100367 0.940813 0.323356 0.156916
C19   C     C_R   0.296778 0.904632 0.177123 0.014257
C20   C     C_R   0.437132 0.842233 0.217363 0.014848
C21   C     C_R   0.450933 0.841330 0.300688 -0.018151
C22   C     C_R   0.193636 0.921071 0.296034 -0.133804
C23   C     C_R   0.176587 0.947266 0.217858 -0.146975
C24   C     C_R   0.563844 0.776078 0.177938 -0.141361
C25   C     C_R   0.698318 0.733498 0.221287 -0.145834
C26   C     C_R   0.709704 0.760281 0.304773 0.195980
C27   C     C_R   0.585475 0.814487 0.343993 -0.059407
C28   C     C_R   0.330881 0.860765 0.336766 -0.002857
H8    H     H_    0.562372 0.752078 0.113842 0.157033
H9    H     H_    0.068748 0.995558 0.187709 0.152369
H10   H     H_    0.792506 0.688010 0.189028 0.153254
H11   H     H_    0.593876 0.839800 0.408140 0.174790
H12   H     H_    0.176962 0.546985 0.683622 0.149219
C29   C     C_R   0.298183 0.276759 0.799292 -0.001992
C30   C     C_R   0.422703 0.175195 0.761342 0.036390
C31   C     C_R   0.476676 0.222578 0.710807 0.035577
C32   C     C_R   0.249682 0.446186 0.707726 -0.144903
C33   C     C_R   0.211115 0.410950 0.770884 -0.137722
C34   C     C_R   0.498894 0.029233 0.775313 -0.080089
C35   C     C_R   0.636471 0.939994 0.751828 -0.107131
C36   C     C_R   0.700852 0.995137 0.714158 -0.105875
C37   C     C_R   0.622149 0.134967 0.693861 -0.083800
C38   C     C_R   0.381123 0.352337 0.676378 -0.012323
H13   H     H_    0.453174 0.983725 0.804902 0.150920
H14   H     H_    0.113898 0.489036 0.797786 0.147959
H15   H     H_    0.694262 0.829505 0.764857 0.122659
H16   H     H_    0.810200 0.928632 0.698630 0.130862
H17   H     H_    0.676225 0.172027 0.663966 0.155659
C39   C     C_1   0.771445 0.367908 0.714801 -0.063308
C40   C     C_1   0.815795 0.328427 0.780521 -0.046863
C41   C     C_1   0.358988 0.763158 0.713692 -0.060558
C42   C     C_1   0.326267 0.809865 0.780751 -0.061593
O14   O     O_R   0.171100 0.914680 0.053100 -0.506503
O15   O     O_R   0.941680 0.184840 0.050710 -0.521013
C43   C     C_R   0.896836 0.308745 0.089499 0.525861
O16   O     O_R   0.922080 0.403420 0.072610 -0.524844
O17   O     O_R   0.196880 0.369150 0.083850 -0.488804
C44   C     C_R   0.319294 0.300077 0.120115 0.561348
O18   O     O_R   0.411730 0.181020 0.091530 -0.526184
O19   O     O_R   0.365010 0.944360 0.063320 -0.515421
C45   C     C_R   0.264582 0.945198 0.096551 0.554772
O20   O     O_R   0.159380 0.906670 0.876210 -0.493174
O21   O     O_R   0.930820 0.177420 0.886730 -0.490750
C46   C     C_R   0.880332 0.299986 0.860200 0.547890
O22   O     O_R   0.910360 0.395420 0.895720 -0.519372
O23   O     O_R   0.186010 0.361730 0.919870 -0.490857
C47   C     C_R   0.278702 0.252699 0.877092 0.548275
O24   O     O_R   0.400000 0.173010 0.914630 -0.518592
O25   O     O_R   0.354140 0.936940 0.899340 -0.530960
C48   C     C_R   0.281419 0.879981 0.857894 0.549471
Cr4   Cr    Cr6+3 0.053960 0.052250 0.967380 1.018411
Cr5   Cr    Cr6+3 0.059890 0.373160 0.992710 1.021712
Cr6   Cr    Cr6+3 0.373370 0.061690 0.991710 0.989002
O26   O     O_3   0.162410 0.162370 0.983930 -0.278737
N1    N     N_R   0.845501 0.736715 0.349138 0.044544
O27   O     O_R   0.857798 0.755047 0.426946 -0.360259
O28   O     O_R   0.957467 0.699642 0.312083 -0.374235

loop_
_geom_bond_atom_site_label_1
_geom_bond_atom_site_label_2
_geom_bond_distance
_ccdc_geom_bond_type
C30   C34   1.414707 A    
C46   O22   1.248457 A    
O11   Cr3   2.054642 S    
C4    C41   1.430440 S    
C2    C7    1.397708 S    
C20   C21   1.405912 A    
O14   C45   1.278919 A    
C44   O18   1.251692 A    
C29   C30   1.419150 A    
O4    Cr2   1.934412 S    
O15   C43   1.272901 A    
C25   H10   1.081903 S    
O8    Cr1   1.922474 S    
C9    C10   1.405400 A    
C34   C35   1.391005 A    
C34   H13   1.065454 S    
C17   H6    1.080351 S    
C15   H4    1.082125 S    
C14   H2    1.081529 S    
C31   C38   1.424018 A    
C35   H15   1.082702 S    
O4    C2    1.256670 A    
C22   C28   1.391947 A    
C5    O11   1.281767 A    
N1    O27   1.301647 A    
O15   Cr4   1.924233 S    
O25   Cr6   1.935099 S    
C19   C23   1.400721 A    
C40   C46   1.427835 S    
O21   Cr4   1.934302 S    
O14   Cr4   2.054863 S    
O24   Cr6   2.061641 S    
O20   C48   1.273881 A    
C24   C25   1.391420 A    
C11   C18   1.423937 A    
O6    C3    1.261045 A    
C36   C37   1.391967 A    
C7    C8    1.184870 T    
C36   H16   1.082681 S    
C9    C43   1.445784 S    
C26   N1    1.440917 S    
O22   Cr5   2.052710 S    
C11   C17   1.411605 A    
Cr3   O13   1.968347 S    
H1    C12   1.082069 S    
O12   C6    1.289067 A    
C6    C39   1.432861 S    
O1    Cr1   2.041170 S    
O18   Cr6   2.055605 S    
C29   C47   1.462843 S    
C10   C14   1.414536 A    
O10   Cr2   1.942375 S    
Cr1   O13   1.981442 S    
O1    C3    1.285570 A    
C41   C42   1.203887 T    
C1    C28   1.460575 S    
C43   O16   1.259495 A    
O17   C44   1.258433 A    
Cr4   O26   1.981584 S    
C30   C31   1.394219 A    
C37   H17   1.071266 S    
C5    C38   1.461573 S    
O12   Cr3   1.936475 S    
H12   C32   1.083353 S    
C13   H3    1.083018 S    
C32   C33   1.385893 A    
O23   Cr5   1.931802 S    
C8    C44   1.397303 S    
O16   Cr5   2.048374 S    
C12   C13   1.374963 A    
O20   Cr4   2.042117 S    
O19   C45   1.291695 A    
O7    Cr1   2.052212 S    
Cr6   O26   1.959836 S    
C16   C17   1.386614 A    
C19   C45   1.449744 S    
C16   H5    1.065110 S    
O17   Cr5   1.936153 S    
C2    O5    1.253744 A    
C21   C28   1.424982 A    
C25   C26   1.400040 A    
Cr2   O13   1.960259 S    
C9    C13   1.406327 A    
N1    O28   1.301956 A    
C19   C20   1.414276 A    
C1    O3    1.279344 A    
C42   C48   1.431251 S    
C21   C27   1.415422 A    
O9    Cr2   2.049800 S    
O2    Cr1   1.934686 S    
O21   C46   1.290018 A    
C14   C15   1.388453 A    
C39   C40   1.205031 T    
O6    Cr3   1.934482 S    
O8    C4    1.310422 A    
Cr5   O26   1.968683 S    
C29   C33   1.401626 A    
C24   H8    1.078563 S    
C12   C18   1.387021 A    
C27   H11   1.080351 S    
C15   C16   1.384640 A    
O2    C1    1.257599 A    
O5    Cr3   2.056787 S    
C31   C37   1.420862 A    
C33   H14   1.083202 S    
C47   O24   1.284997 A    
O7    C6    1.306231 A    
O19   Cr6   1.943162 S    
C23   H9    1.081783 S    
O25   C48   1.265834 A    
C32   C38   1.401514 A    
C35   C36   1.384689 A    
O3    Cr2   2.060834 S    
C22   C23   1.375239 A    
C4    O9    1.284971 A    
C26   C27   1.400910 A    
C10   C11   1.408658 A    
C3    C18   1.459108 S    
H7    C22   1.083049 S    
O10   C5    1.310875 A    
O23   C47   1.305789 A    
C20   C24   1.413178 A    
