data_mof_unit_31025.cif
_audit_creation_date              2012-12-11T14:08:13-0500
_audit_creation_method            fapswitch 2.2
_symmetry_space_group_name_H-M    P1
_symmetry_Int_Tables_number       1
_space_group_crystal_system       triclinic
_cell_length_a                    10.897863
_cell_length_b                    10.954603
_cell_length_c                    18.675267
_cell_angle_alpha                 90.231605
_cell_angle_beta                  89.686044
_cell_angle_gamma                 60.149284
_cell_volume                      1933.60173767

loop_
_atom_site_label
_atom_site_type_symbol
_atom_type_description
_atom_site_fract_x
_atom_site_fract_y
_atom_site_fract_z
_atom_type_partial_charge
C1    C     C_R   0.236420 0.645605 0.608876 0.552337
C2    C     C_3   0.663214 0.558558 0.800711 -0.236437
C3    C     C_3   0.698598 0.676696 0.811999 0.081009
C4    C     C_3   0.670468 0.649427 0.676038 0.026498
C5    C     C_3   0.820437 0.625009 0.690001 -0.266043
C6    C     C_3   0.645524 0.543115 0.720515 -0.221010
C7    C     C_2   0.676130 0.155357 0.670510 -0.120942
C8    C     C_2   0.689452 0.166760 0.827705 -0.126005
C9    C     C_2   0.801780 0.120897 0.783499 -0.180649
C10   C     C_2   0.783120 0.153848 0.706685 -0.178738
C11   C     C_2   0.181333 0.662726 0.681696 -0.118115
C12   C     C_R   0.654613 0.623354 0.600817 0.550545
C13   C     C_2   0.196041 0.661708 0.839452 -0.119578
C14   C     C_2   0.192750 0.560901 0.799967 -0.181808
C15   C     C_2   0.221073 0.548709 0.722838 -0.177841
C16   C     C_2   0.616356 0.607323 0.310798 -0.079509
C17   C     C_2   0.630779 0.658239 0.156622 -0.135870
C18   C     C_2   0.704170 0.531518 0.187337 -0.127532
C19   C     C_2   0.706138 0.506969 0.264548 0.117092
C20   C     C_2   0.600909 0.257191 0.313265 -0.077430
C21   C     C_2   0.630633 0.212403 0.160964 -0.113899
C22   C     C_2   0.507518 0.257045 0.195325 -0.155248
C23   C     C_R   0.628411 0.227414 0.601970 0.556030
C24   C     C_2   0.489774 0.307142 0.269285 -0.164020
C25   C     C_2   0.184824 0.662436 0.326665 -0.091192
C26   C     C_2   0.184422 0.645322 0.172546 -0.103576
C27   C     C_2   0.232468 0.719189 0.206709 -0.156134
C28   C     C_2   0.250856 0.708988 0.282854 -0.152368
C29   C     C_R   0.703325 0.102279 0.897513 0.540497
C30   C     C_R   0.723613 0.688793 0.888148 0.559077
C31   C     C_R   0.119656 0.706039 0.907499 0.544942
C32   C     C_R   0.672053 0.115087 0.101245 0.560488
C33   C     C_R   0.691036 0.687295 0.093745 0.560618
C34   C     C_R   0.224427 0.648341 0.400467 0.543679
C35   C     C_R   0.100753 0.704923 0.109956 0.564618
C36   C     C_R   0.614537 0.585898 0.387619 0.562018
C37   C     C_R   0.579513 0.294991 0.387883 0.553370
C38   C     C_3   0.576484 0.818672 0.781158 0.160101
C39   C     C_3   0.560847 0.800751 0.700317 -0.201794
C40   C     C_3   0.837712 0.639270 0.770344 -0.270924
Cr1   Cr    Cr6+3 0.393010 0.398050 0.501480 1.025559
Cr2   Cr    Cr6+3 0.398820 0.707980 0.501630 1.024961
Cr3   Cr    Cr6+3 0.708140 0.393940 0.496850 1.060302
Cr4   Cr    Cr6+3 0.937950 0.938450 0.008940 1.021673
Cr5   Cr    Cr6+3 0.626180 0.937030 0.994750 1.026294
Cr6   Cr    Cr6+3 0.937790 0.625760 0.001410 1.014857
H1    H     H_    0.608814 0.900269 0.788231 0.105639
H2    H     H_    0.722274 0.433452 0.703931 0.140828
H3    H     H_    0.926599 0.537777 0.789561 0.143931
H4    H     H_    0.902556 0.518147 0.671617 0.149050
H5    H     H_    0.908428 0.054370 0.803052 0.148079
H6    H     H_    0.855222 0.181541 0.680707 0.147774
H7    H     H_    0.583166 0.233779 0.807609 0.103677
H8    H     H_    0.609742 0.119941 0.696285 0.095368
H9    H     H_    0.161575 0.489789 0.823432 0.144726
H10   H     H_    0.275138 0.443352 0.699819 0.154271
H11   H     H_    0.234766 0.727268 0.816415 0.127104
H12   H     H_    0.125029 0.768122 0.704645 0.103631
H13   H     H_    0.786987 0.444829 0.156632 0.181705
H14   H     H_    0.542617 0.747455 0.182612 0.097707
H15   H     H_    0.535682 0.708539 0.291925 0.064325
H16   H     H_    0.424156 0.242506 0.172508 0.162122
H17   H     H_    0.383149 0.373596 0.289889 0.145127
H18   H     H_    0.710050 0.235100 0.181793 0.136849
H19   H     H_    0.707427 0.182518 0.295399 0.158651
H20   H     H_    0.240415 0.803657 0.180697 0.161649
H21   H     H_    0.451639 0.821937 0.689349 0.171420
H22   H     H_    0.314247 0.751571 0.303881 0.153956
H23   H     H_    0.186854 0.553664 0.196138 0.105964
H24   H     H_    0.118742 0.620886 0.307896 0.110563
H25   H     H_    0.576518 0.878899 0.669604 0.075737
H26   H     H_    0.867204 0.721882 0.779582 0.119702
H27   H     H_    0.837548 0.702971 0.659995 0.124618
H28   H     H_    0.749486 0.457204 0.821817 0.117682
H29   H     H_    0.564273 0.582994 0.830014 0.155335
H30   H     H_    0.537449 0.559964 0.710637 0.130597
O1    O     O_R   0.507110 0.256280 0.580300 -0.516603
O2    O     O_R   0.524640 0.695370 0.425100 -0.502403
O3    O     O_R   0.735890 0.504390 0.415980 -0.443432
O4    O     O_R   0.690560 0.277820 0.422350 -0.469759
O5    O     O_3   0.499990 0.499990 0.499980 -0.303917
O6    O     O_R   0.089190 0.825870 0.932320 -0.527319
O7    O     O_R   0.819070 0.053960 0.931440 -0.498660
O8    O     O_R   0.607070 0.076440 0.916460 -0.538900
O9    O     O_R   0.647110 0.806550 0.917690 -0.478043
O10   O     O_R   0.837080 0.593860 0.915300 -0.543021
O11   O     O_R   0.064770 0.636080 0.932550 -0.504668
O12   O     O_R   0.280830 0.527190 0.577940 -0.495876
O13   O     O_R   0.068250 0.829200 0.092940 -0.506338
O14   O     O_R   0.799650 0.057040 0.080330 -0.489884
O15   O     O_R   0.586130 0.079760 0.077080 -0.511715
O16   O     O_R   0.627700 0.809630 0.066580 -0.490718
O17   O     O_R   0.816140 0.597180 0.075920 -0.507089
O18   O     O_R   0.045360 0.639170 0.081440 -0.494439
O19   O     O_3   0.833980 0.833750 0.001700 -0.250398
O20   O     O_R   0.261360 0.738990 0.584270 -0.512951
O21   O     O_R   0.532590 0.694780 0.574370 -0.504600
O22   O     O_R   0.744470 0.503750 0.577000 -0.522614
O23   O     O_R   0.698520 0.277230 0.571620 -0.494864
O24   O     O_R   0.498530 0.256920 0.419280 -0.493160
O25   O     O_R   0.272880 0.527780 0.428680 -0.514637
O26   O     O_R   0.252780 0.739630 0.423250 -0.508076
O27   O     O_3   0.446756 0.857469 0.817248 -0.571889
C41   C     C_3   0.355488 0.005002 0.814926 -0.002599
H31   H     H_    0.347271 0.046008 0.759579 0.111925
H32   H     H_    0.395565 0.058054 0.851083 0.164635
C42   C     C_3   0.207777 0.040133 0.840156 -0.247627
H33   H     H_    0.168010 0.985597 0.804939 0.160480
H34   H     H_    0.213530 0.002032 0.895783 0.188741
C43   C     C_3   0.104307 0.198425 0.838209 -0.485437
H35   H     H_    0.141790 0.255447 0.873053 0.147740
H36   H     H_    0.998832 0.220473 0.857888 0.157604
H37   H     H_    0.093085 0.237950 0.782568 0.136839
Br1   Br    Br    0.864818 0.329351 0.293395 -0.524013

loop_
_geom_bond_atom_site_label_1
_geom_bond_atom_site_label_2
_ccdc_geom_bond_type
C7    C10   D    
C23   O23   A    
C1    C11   S    
Cr3   O22   S    
Cr4   O7    S    
C10   H6    S    
C41   H32   S    
C25   C28   D    
C26   C27   D    
C34   O26   A    
C31   O6    A    
C6    H2    S    
Cr2   O20   S    
C8    C29   S    
C28   H22   S    
Cr3   O23   S    
C29   O7    A    
Cr4   O6    S    
C1    O20   A    
Cr1   O1    S    
C38   C39   S    
C32   O15   A    
C13   H11   S    
Cr3   O3    S    
C40   H3    S    
C18   C19   S    
Cr5   O16   S    
C43   H35   S    
C21   H18   S    
C11   C15   D    
C32   O14   A    
Cr6   O19   S    
C20   C24   D    
C3    C38   S    
C8    C9    D    
C9    H5    S    
C42   H33   S    
C30   O10   A    
C11   H12   S    
C9    C10   S    
C12   O22   A    
C2    H28   S    
C25   C34   S    
C1    O12   A    
C14   H9    S    
C21   C22   D    
C42   H34   S    
C2    C6    S    
Cr2   O5    S    
C17   C33   S    
Cr2   O26   S    
C41   H31   S    
C37   O4    A    
C21   C32   S    
C34   O25   A    
C31   O11   A    
C20   H19   S    
C29   O8    A    
C4    C6    S    
Cr2   O21   S    
C19   Br1   S    
Cr3   O4    S    
C3    C30   S    
Cr5   O9    S    
C38   O27   S    
C22   H16   S    
C18   H13   S    
Cr6   O18   S    
C4    C39   S    
Cr1   O5    S    
C17   C18   D    
C12   O21   A    
Cr1   O24   S    
C23   O1    A    
C30   O9    A    
C43   H37   S    
C38   H1    S    
C35   O13   A    
C3    C40   S    
Cr2   O2    S    
C24   H17   S    
Cr3   O5    S    
C42   C43   S    
C22   C24   S    
C5    H4    S    
C33   O16   A    
Cr5   O8    S    
C4    C12   S    
C16   H15   S    
Cr5   O19   S    
C27   C28   S    
Cr4   O14   S    
Cr6   O11   S    
C35   O18   A    
Cr1   O12   S    
C40   H26   S    
C39   H21   S    
C13   C31   S    
C4    C5    S    
C36   O3    A    
C33   O17   A    
C8    H7    S    
C6    H30   S    
C15   H10   S    
C2    C3    S    
C27   H20   S    
C36   O2    A    
C16   C36   S    
C20   C37   S    
Cr6   O17   S    
C16   C19   D    
C7    C23   S    
Cr1   O25   S    
C41   C42   S    
C5    H27   S    
Cr5   O15   S    
C43   H36   S    
C2    H29   S    
C17   H14   S    
C26   C35   S    
C5    C40   S    
O27   C41   S    
Cr4   O19   S    
C26   H23   S    
C39   H25   S    
C14   C15   S    
C25   H24   S    
C7    H8    S    
C13   C14   D    
C37   O24   A    
Cr4   O13   S    
Cr6   O10   S    
