data_mof_unit_51795.cif
_audit_creation_date              2012-12-11T15:30:37-0500
_audit_creation_method            fapswitch 2.2
_symmetry_space_group_name_H-M    P1
_symmetry_Int_Tables_number       1
_space_group_crystal_system       triclinic
_cell_length_a                    6.946123
_cell_length_b                    20.497787
_cell_length_c                    24.33507
_cell_angle_alpha                 89.868549
_cell_angle_beta                  90.708552
_cell_angle_gamma                 89.844663
_cell_volume                      3464.54385129

loop_
_atom_site_label
_atom_site_type_symbol
_atom_type_description
_atom_site_fract_x
_atom_site_fract_y
_atom_site_fract_z
_atom_type_partial_charge
O1    O     O_R   0.507310 0.423620 0.460450 -0.537999
O2    O     O_R   0.170760 0.556060 0.437190 -0.537655
O3    O     O_R   0.004040 0.576380 0.539550 -0.537637
C1    C     C_R   0.338674 0.576197 0.421282 0.721005
O4    O     O_R   0.177350 0.422870 0.454070 -0.542390
O5    O     O_R   0.010680 0.442240 0.556560 -0.534212
C2    C     C_R   0.345019 0.397868 0.444511 0.712257
O6    O     O_R   0.500670 0.557760 0.443440 -0.534461
O7    O     O_3   0.340380 0.506510 0.533610 -0.364423
V1    V     V_3+5 0.064130 0.498790 0.493770 1.405186
O8    O     O_R   0.681170 0.443940 0.562810 -0.538394
C3    C     C_R   0.850697 0.423581 0.578467 0.721075
O9    O     O_R   0.674570 0.577130 0.545930 -0.541413
C4    C     C_R   0.843008 0.601850 0.555508 0.712592
V2    V     V_3+5 0.564560 0.501210 0.506230 1.406509
O10   O     O_3   0.838170 0.493490 0.466390 -0.365939
C5    C     C_R   0.968339 0.839679 0.909114 -0.123293
C6    C     C_R   0.848204 0.663843 0.586184 -0.064850
C7    C     C_R   0.935366 0.721129 0.909675 0.142386
C8    C     C_R   0.938373 0.781280 0.937182 -0.190537
C9    C     C_R   0.984317 0.839868 0.851037 0.062256
C10   C     C_R   0.936865 0.781242 0.821681 0.051908
C11   C     C_R   0.938399 0.721232 0.851228 0.049365
C12   C     C_R   0.892322 0.779426 0.764015 0.069848
C13   C     C_R   0.905788 0.719644 0.734175 0.064647
C14   C     C_R   0.937593 0.661924 0.764377 -0.181050
C15   C     C_R   0.943507 0.662462 0.821485 -0.201414
C16   C     C_R   0.811383 0.833773 0.736975 -0.187573
C17   C     C_R   0.776188 0.833510 0.680718 -0.198534
C18   C     C_R   0.810196 0.777569 0.649670 0.111036
C19   C     C_R   0.873184 0.719287 0.675792 0.083045
C20   C     C_R   0.771144 0.778942 0.593004 -0.194865
C21   C     C_R   0.787968 0.722654 0.560889 0.137294
C22   C     C_R   0.894235 0.662823 0.642624 -0.259399
H1    H     H_    0.954268 0.615667 0.841880 0.115468
H2    H     H_    0.715931 0.876954 0.661625 0.120835
H3    H     H_    0.927546 0.783549 0.981421 0.128562
H4    H     H_    0.723282 0.824072 0.573832 0.109782
C23   C     C_3   0.722357 0.228442 0.782837 -0.370605
C24   C     C_3   0.059884 0.266417 0.799860 -0.333342
C25   C     C_3   0.042215 0.315186 0.750994 -0.333263
H5    H     H_    0.644188 0.325554 0.751589 0.144919
H6    H     H_    0.012621 0.290930 0.838183 0.143701
H7    H     H_    0.995411 0.363633 0.766567 0.140634
C26   C     C_1   0.862976 0.377433 0.623693 -0.191577
C27   C     C_3   0.934490 0.204999 0.789285 0.243982
C28   C     C_3   0.700508 0.278705 0.735168 -0.343989
C29   C     C_3   0.896427 0.290309 0.707007 0.261635
C30   C     C_3   0.970394 0.223769 0.685455 -0.325399
C31   C     C_3   0.994565 0.172992 0.733468 0.029878
C32   C     C_1   0.876465 0.338354 0.661201 -0.088510
C33   C     C_1   0.949923 0.158414 0.836418 -0.107810
C34   C     C_1   0.961481 0.120673 0.874938 -0.196176
H8    H     H_    0.893232 0.131916 0.725510 0.124219
H9    H     H_    0.867258 0.204235 0.654269 0.124922
H10   H     H_    0.627429 0.185858 0.774695 0.135713
C35   C     C_3   0.562589 0.690277 0.256651 -0.329713
C36   C     C_3   0.196948 0.713553 0.253987 0.041952
C37   C     C_3   0.236031 0.757758 0.202745 -0.404362
H11   H     H_    0.577172 0.711746 0.168877 0.134440
H12   H     H_    0.556093 0.639840 0.240710 0.150696
H13   H     H_    0.089775 0.740701 0.278892 0.081613
H14   H     H_    0.234944 0.728683 0.164226 0.165278
C38   C     C_1   0.474927 0.878623 0.124793 -0.203253
C39   C     C_3   0.383170 0.707795 0.291398 0.256372
C40   C     C_3   0.588300 0.738953 0.208323 -0.331541
C41   C     C_3   0.432544 0.793544 0.209337 0.256322
C42   C     C_3   0.429971 0.828541 0.266934 0.038778
C43   C     C_3   0.423366 0.777195 0.314684 -0.406127
C44   C     C_1   0.458453 0.840495 0.162887 -0.078517
C45   C     C_1   0.360708 0.660303 0.337591 -0.074097
C46   C     C_1   0.347498 0.621788 0.375506 -0.201950
H15   H     H_    0.560060 0.776843 0.338952 0.165571
H16   H     H_    0.308515 0.791197 0.343963 0.119782
H17   H     H_    0.693661 0.691753 0.283397 0.129427
H18   H     H_    0.735702 0.759112 0.209321 0.147657
C47   C     C_R   0.479314 0.162776 0.088556 -0.048295
C48   C     C_R   0.344695 0.335804 0.413325 -0.074435
C49   C     C_R   0.594898 0.273205 0.097425 -0.157727
C50   C     C_R   0.573402 0.216547 0.066861 -0.169180
C51   C     C_R   0.409209 0.165970 0.142354 -0.191620
C52   C     C_R   0.436107 0.222805 0.175848 0.051802
C53   C     C_R   0.528081 0.277802 0.152085 0.063852
C54   C     C_R   0.381148 0.225574 0.232418 0.028120
C55   C     C_R   0.404174 0.284764 0.263518 -0.025539
C56   C     C_R   0.459738 0.342611 0.234647 0.076550
C57   C     C_R   0.547049 0.336817 0.182270 0.093949
C58   C     C_R   0.301540 0.170586 0.258818 -0.162957
C59   C     C_R   0.246328 0.172351 0.313185 -0.196372
C60   C     C_R   0.276951 0.227610 0.344996 0.119354
C61   C     C_R   0.363245 0.283693 0.321850 0.098471
C62   C     C_R   0.223952 0.226120 0.400431 -0.201210
C63   C     C_R   0.252170 0.280111 0.434627 0.145251
C64   C     C_R   0.410449 0.335023 0.358834 -0.286490
H19   H     H_    0.182899 0.128987 0.330966 0.116598
H20   H     H_    0.663944 0.313238 0.076725 0.129419
H21   H     H_    0.630874 0.214707 0.025676 0.106076
H22   H     H_    0.157520 0.182601 0.417017 0.109318
O11   O     O_R   0.323590 0.942280 0.056590 -0.534180
O12   O     O_R   0.647030 0.077140 0.045940 -0.537453
O13   O     O_R   0.813570 0.057750 0.943430 -0.534193
C65   C     C_R   0.479247 0.101252 0.056774 0.690675
O14   O     O_R   0.653510 0.943950 0.062820 -0.536717
O15   O     O_R   0.820100 0.923600 0.960440 -0.536299
C66   C     C_R   0.485366 0.923895 0.078795 0.728926
O16   O     O_R   0.317060 0.076430 0.039590 -0.535772
O17   O     O_3   0.483830 0.993520 0.966410 -0.365759
V3    V     V_3+5 0.760140 0.001200 0.006230 1.414775
O18   O     O_R   0.149560 0.922820 0.954030 -0.537469
C67   C     C_R   0.980190 0.899686 0.942463 0.698840
O19   O     O_R   0.143080 0.056020 0.937150 -0.540203
C68   C     C_R   0.973485 0.075904 0.921150 0.721300
V4    V     V_3+5 0.259690 0.998730 0.993720 1.411884
O20   O     O_3   0.986120 0.006480 0.033580 -0.365667
H23   H     H_    0.673061 0.251080 0.821765 0.150171
H24   H     H_    0.213261 0.252495 0.806449 0.134896
H25   H     H_    0.186108 0.321850 0.732165 0.137464
C69   C     C_3   0.201242 0.143979 0.735091 -0.361809
C70   C     C_3   0.237158 0.097503 0.687222 -0.797471
H26   H     H_    0.134945 0.055964 0.688581 0.227227
H27   H     H_    0.220767 0.123160 0.647218 0.229554
H28   H     H_    0.386108 0.077900 0.690363 0.218400
H29   H     H_    0.309236 0.183747 0.733832 0.183853
H30   H     H_    0.226252 0.116033 0.773665 0.189158
H31   H     H_    0.942217 0.616847 0.659553 0.105230
H32   H     H_    0.593141 0.260528 0.704558 0.139162
H33   H     H_    0.108696 0.231809 0.663896 0.143975
C71   C     C_3   0.089017 0.649661 0.239043 -0.345447
C72   C     C_3   0.207699 0.597327 0.210492 -0.755410
H34   H     H_    0.293336 0.617920 0.176466 0.223460
H35   H     H_    0.302788 0.572810 0.240925 0.230418
H36   H     H_    0.109773 0.559672 0.193167 0.209189
H37   H     H_    0.027422 0.628097 0.276911 0.176011
H38   H     H_    0.964997 0.662264 0.211717 0.176419
H39   H     H_    0.117360 0.794005 0.198067 0.118613
C73   C     C_3   0.737453 0.726514 0.500128 -0.374633
C74   C     C_3   0.917725 0.726032 0.464832 -0.756460
H40   H     H_    0.011896 0.767859 0.475806 0.223339
H41   H     H_    0.999743 0.679977 0.470540 0.230679
H42   H     H_    0.875631 0.730353 0.420784 0.208158
H43   H     H_    0.641644 0.685563 0.488094 0.182754
H44   H     H_    0.655909 0.772047 0.490792 0.173263
C75   C     C_3   0.580219 0.883279 0.277324 -0.327582
C76   C     C_3   0.791483 0.863708 0.271706 -0.761425
H45   H     H_    0.823041 0.816930 0.292924 0.217595
H46   H     H_    0.830040 0.860643 0.227703 0.219063
H47   H     H_    0.883930 0.901919 0.290540 0.206000
H48   H     H_    0.550400 0.924724 0.248893 0.171232
H49   H     H_    0.559300 0.902376 0.319580 0.170855
H50   H     H_    0.289724 0.855086 0.268439 0.087778
C77   C     C_3   0.667878 0.392703 0.159606 -0.317393
C78   C     C_3   0.555831 0.436565 0.119417 -0.777703
H51   H     H_    0.472345 0.407355 0.089135 0.225285
H52   H     H_    0.658341 0.467903 0.096809 0.212397
H53   H     H_    0.455499 0.469059 0.141493 0.226350
H54   H     H_    0.732243 0.422373 0.192749 0.189372
H55   H     H_    0.798073 0.373102 0.139378 0.156662
H56   H     H_    0.496166 0.375426 0.346293 0.159414
C79   C     C_3   0.184908 0.276367 0.493679 -0.369940
C80   C     C_3   0.354523 0.272497 0.534133 -0.758149
H57   H     H_    0.445618 0.229358 0.524916 0.223860
H58   H     H_    0.443890 0.317193 0.532136 0.224977
H59   H     H_    0.299744 0.267588 0.576615 0.209143
H60   H     H_    0.092694 0.318895 0.503569 0.187652
H61   H     H_    0.094098 0.232458 0.500006 0.171140
H62   H     H_    0.339646 0.122514 0.156859 0.093165
C81   C     C_3   0.373612 0.408928 0.250185 -0.307385
C82   C     C_3   0.519211 0.459739 0.271307 -0.801998
H63   H     H_    0.655577 0.436680 0.285805 0.222993
H64   H     H_    0.553530 0.495450 0.238572 0.221260
H65   H     H_    0.456425 0.487520 0.305938 0.211399
H66   H     H_    0.294765 0.429291 0.214110 0.177529
H67   H     H_    0.257480 0.403019 0.280685 0.168789
H68   H     H_    0.278542 0.124579 0.238734 0.115210
C83   C     C_3   0.923665 0.656906 0.941555 -0.347826
C84   C     C_3   0.910302 0.662149 0.004153 -0.783499
H69   H     H_    0.040396 0.686307 0.021511 0.224858
H70   H     H_    0.778555 0.689368 0.015846 0.225171
H71   H     H_    0.901698 0.612433 0.022183 0.217503
H72   H     H_    0.794714 0.629710 0.926908 0.177474
H73   H     H_    0.053645 0.627292 0.932462 0.175625
C85   C     C_3   0.087424 0.896994 0.823193 -0.356708
C86   C     C_3   0.276712 0.874969 0.797601 -0.712996
H74   H     H_    0.370120 0.850926 0.829077 0.227549
H75   H     H_    0.249969 0.840536 0.763244 0.232775
H76   H     H_    0.354095 0.917981 0.781100 0.202381
H77   H     H_    0.999021 0.922651 0.792098 0.164173
H78   H     H_    0.124656 0.936043 0.852743 0.173231
H79   H     H_    0.944183 0.614608 0.745318 0.117844
H80   H     H_    0.759501 0.875222 0.759708 0.120833

loop_
_geom_bond_atom_site_label_1
_geom_bond_atom_site_label_2
_ccdc_geom_bond_type
C36   H13   S    
C53   C57   A    
C13   C19   A    
C50   H21   S    
C4    C6    S    
C7    C11   A    
C7    C8    A    
O15   V3    S    
C35   C40   S    
C1    O6    A    
C5    C67   S    
C51   C52   A    
C55   C61   A    
C62   H22   S    
C38   C66   S    
C55   C56   A    
O13   C68   A    
C24   C27   S    
C74   H41   S    
C17   H2    S    
C14   C15   A    
C17   C18   A    
C77   H55   S    
C16   C17   A    
V4    O20   S    
C86   H75   S    
O5    C3    A    
C18   C19   A    
C47   C50   A    
C26   C32   T    
C48   C63   A    
V2    O10   S    
C27   C33   S    
C5    C8    A    
C58   H68   S    
C42   C75   S    
V3    O20   S    
C63   C79   S    
C69   C70   S    
O17   V4    S    
C73   H44   S    
C37   C41   S    
C85   C86   S    
O8    V2    S    
C82   H65   S    
C79   C80   S    
C42   C43   S    
C75   H49   S    
C77   C78   S    
C43   H15   S    
O14   V3    S    
O1    V2    S    
C20   H4    S    
C18   C20   A    
O7    V1    S    
O18   V4    S    
C83   H73   S    
C72   H36   S    
O13   V3    S    
C82   H64   S    
C40   C41   S    
H11   C40   S    
C64   H56   S    
C57   C77   S    
O9    C4    A    
C71   C72   S    
C47   C65   S    
C9    C85   S    
C71   H37   S    
C76   H47   S    
O11   C66   A    
H5    C28   S    
C14   H79   S    
C11   C15   A    
C70   H27   S    
C75   H48   S    
C30   H33   S    
C74   H42   S    
O12   V3    S    
O16   V4    S    
C41   C42   S    
C28   C29   S    
C54   C58   A    
C12   C13   A    
O14   C66   A    
C86   H76   S    
C81   C82   S    
O4    C2    A    
C56   C57   A    
C3    C26   S    
C85   H78   S    
C15   H1    S    
C13   C14   A    
C39   C45   S    
C5    C9    A    
C79   H61   S    
C80   H58   S    
C59   H19   S    
O2    C1    A    
C38   C44   T    
C80   H59   S    
C86   H74   S    
O5    V1    S    
C73   H43   S    
C71   H38   S    
C36   C39   S    
C60   C62   A    
C23   H10   S    
C78   H53   S    
C47   C51   A    
C51   H62   S    
C40   H18   S    
C24   H6    S    
O12   C65   A    
C19   C22   A    
C43   H16   S    
O19   V4    S    
C69   H30   S    
C77   H54   S    
C54   C55   A    
C6    C22   A    
C81   H66   S    
O3    C4    A    
C29   C32   S    
C23   C27   S    
C34   C68   S    
C76   H46   S    
C29   C30   S    
C78   H52   S    
C52   C53   A    
O6    V2    S    
C52   C54   A    
O9    V2    S    
C85   H77   S    
C25   H7    S    
C10   C12   A    
O17   V3    S    
O2    V1    S    
C1    C46   S    
C33   C34   T    
O15   C67   A    
C28   H32   S    
C23   C28   S    
C72   H34   S    
C70   H28   S    
C82   H63   S    
O19   C68   A    
C31   C69   S    
C37   H14   S    
C10   C11   A    
C56   C81   S    
C12   C16   A    
C35   C39   S    
C73   C74   S    
C16   H80   S    
O11   V4    S    
C70   H26   S    
C35   H12   S    
C83   H72   S    
C74   H40   S    
C27   C31   S    
C23   H23   S    
C81   H67   S    
C76   H45   S    
C41   C44   S    
C20   C21   A    
C84   H71   S    
C84   H69   S    
C36   C37   S    
O4    V1    S    
C31   H8    S    
C83   C84   S    
C30   H9    S    
C36   C71   S    
C80   H57   S    
C61   C64   A    
C49   C53   A    
C8    H3    S    
C21   C73   S    
C35   H17   S    
C60   C61   A    
C24   H24   S    
V1    O10   S    
C48   C64   A    
C22   H31   S    
C39   C43   S    
C37   H39   S    
C62   C63   A    
C25   C29   S    
C65   O16   A    
C69   H29   S    
O7    V2    S    
C6    C21   A    
C7    C83   S    
C42   H50   S    
C2    C48   S    
C49   C50   A    
C49   H20   S    
C45   C46   T    
C58   C59   A    
C30   C31   S    
O18   C67   A    
O3    V1    S    
C79   H60   S    
O1    C2    A    
C24   C25   S    
C78   H51   S    
C25   H25   S    
C59   C60   A    
C9    C10   A    
C75   C76   S    
O8    C3    A    
C84   H70   S    
C72   H35   S    
