data_mof_unit_57927.cif
_audit_creation_date              2012-12-10T20:42:44-0500
_audit_creation_method            fapswitch 2.2
_symmetry_space_group_name_H-M    P1
_symmetry_Int_Tables_number       1
_space_group_crystal_system       triclinic
_cell_length_a                    8.907419
_cell_length_b                    10.675981
_cell_length_c                    9.870963
_cell_angle_alpha                 90.092766
_cell_angle_beta                  90.033815
_cell_angle_gamma                 89.82269
_cell_volume                      938.677644418

loop_
_atom_site_label
_atom_site_type_symbol
_atom_type_description
_atom_site_fract_x
_atom_site_fract_y
_atom_site_fract_z
_atom_type_partial_charge
C1    C     C_R   0.505635 0.260025 0.499965 0.909165
C2    C     C_R   0.430517 0.592395 0.928870 0.220045
C3    C     C_3   0.267826 0.625269 0.923373 -0.515643
C4    C     C_R   0.218724 0.499983 0.499971 0.948429
C5    C     C_3   0.268113 0.625665 0.077167 -0.509049
C6    C     C_R   0.503841 0.740099 0.500016 0.873861
C7    C     C_R   0.781302 0.499837 0.500057 0.925695
C8    C     C_1   0.065424 0.499848 0.500004 -0.220389
C9    C     C_1   0.934626 0.499777 0.500104 -0.197595
C10   C     C_R   0.538593 0.063892 0.622294 0.045437
C11   C     C_R   0.530994 0.128747 0.500053 -0.062681
C12   C     C_R   0.550223 0.935047 0.377368 -0.222488
C13   C     C_R   0.551894 0.064503 0.377404 -0.235889
C14   C     C_3   0.241388 0.171111 0.845313 0.105422
C15   C     C_3   0.091396 0.235232 0.815693 -0.309605
C16   C     C_3   0.019419 0.285467 0.945191 -0.990525
C17   C     C_R   0.527622 0.871452 0.499969 -0.061299
C18   C     C_R   0.536266 0.936268 0.622137 0.051567
C19   C     C_3   0.440520 0.930394 0.746412 -0.535593
C20   C     C_3   0.445997 0.072789 0.748525 0.330496
C21   C     C_R   0.430622 0.592423 0.071335 0.213873
C22   C     C_R   0.579016 0.411237 0.071793 -0.135922
C23   C     C_R   0.578866 0.411208 0.927823 -0.155830
H1    H     H_    0.558231 0.113133 0.281329 0.161889
H2    H     H_    0.639759 0.339293 0.873354 0.140935
H3    H     H_    0.248213 0.719506 0.879195 0.197580
H4    H     H_    0.316613 0.240959 0.894531 0.143241
H5    H     H_    0.222320 0.091060 0.915483 0.130604
H6    H     H_    0.109787 0.314331 0.744637 0.238977
H7    H     H_    0.013806 0.167391 0.766894 0.218336
H8    H     H_    0.992415 0.207145 0.014893 0.264062
H9    H     H_    0.914124 0.335952 0.919711 0.266594
H10   H     H_    0.096317 0.351707 0.997102 0.268047
H11   H     H_    0.198270 0.549278 0.878942 0.228411
H12   H     H_    0.249450 0.720239 0.121433 0.201104
H13   H     H_    0.198401 0.550063 0.121823 0.223465
H14   H     H_    0.555860 0.886110 0.281254 0.166819
H15   H     H_    0.327049 0.891676 0.725454 0.215363
H16   H     H_    0.500509 0.886937 0.833292 0.165253
H17   H     H_    0.512484 0.113181 0.833909 0.041543
H18   H     H_    0.640679 0.339591 0.125880 0.146165
N1    N     N_R   0.499010 0.499140 0.142800 -0.104166
N2    N     N_R   0.499010 0.499180 0.857150 -0.103146
O1    O     O_R   0.500020 0.316790 0.614690 -0.608208
O2    O     O_R   0.500000 0.316760 0.385350 -0.637511
O3    O     O_R   0.285350 0.500020 0.614650 -0.620258
O4    O     O_R   0.285340 0.499980 0.385310 -0.613654
O5    O     O_R   0.500000 0.683240 0.614650 -0.613819
O6    O     O_R   0.499980 0.683210 0.385310 -0.628134
O7    O     O_R   0.714660 0.500020 0.614690 -0.619382
O8    O     O_R   0.714650 0.499980 0.385350 -0.615032
O9    O     O_3   0.304308 0.128030 0.722587 -0.613239
Zn1   Zn    Zn3+2 0.500010 0.500020 0.653130 0.946444
Zn2   Zn    Zn3+2 0.499990 0.499980 0.346870 0.940232

loop_
_geom_bond_atom_site_label_1
_geom_bond_atom_site_label_2
_ccdc_geom_bond_type
C12   C17   A    
C19   H15   S    
C16   H10   S    
C16   H9    S    
C1    O1    A    
C19   C20   S    
C1    C11   S    
C2    N2    A    
C4    C8    S    
O8    Zn2   S    
C2    C21   A    
C2    C3    S    
C7    O8    A    
C20   O9    S    
C4    O3    A    
N1    Zn2   S    
C16   H8    S    
C11   C13   A    
C1    O2    A    
C22   N1    A    
C6    O5    A    
C10   C18   A    
O4    Zn2   S    
C20   H17   S    
C15   C16   S    
C19   H16   S    
O3    Zn1   S    
O2    Zn2   S    
C15   H6    S    
C23   H2    S    
C6    O6    A    
O5    Zn1   S    
C14   H4    S    
O7    Zn1   S    
C10   C11   A    
O6    Zn2   S    
C22   H18   S    
C5    H13   S    
C5    H12   S    
C5    C21   S    
C12   C13   A    
C7    O7    A    
C15   H7    S    
C17   C18   A    
C18   C19   S    
C12   H14   S    
C7    C9    S    
C6    C17   S    
C14   C15   S    
C3    H11   S    
C14   H5    S    
C22   C23   A    
C23   N2    A    
O1    Zn1   S    
N2    Zn1   S    
C3    H3    S    
C14   O9    S    
C21   N1    A    
C13   H1    S    
C10   C20   S    
C8    C9    T    
C3    C5    S    
C4    O4    A    
