data_mof_unit_16188.cif
_audit_creation_date              2012-12-11T15:11:49-0500
_audit_creation_method            fapswitch 2.2
_symmetry_space_group_name_H-M    P1
_symmetry_Int_Tables_number       1
_space_group_crystal_system       triclinic
_cell_length_a                    20.184566
_cell_length_b                    7.10123
_cell_length_c                    13.479059
_cell_angle_alpha                 90.00003
_cell_angle_beta                  103.501498
_cell_angle_gamma                 90.000409
_cell_volume                      1878.63045642

loop_
_atom_site_label
_atom_site_type_symbol
_atom_type_description
_atom_site_fract_x
_atom_site_fract_y
_atom_site_fract_z
_atom_type_partial_charge
O1    O     O_R   0.449830 0.506740 0.599960 -0.534827
O2    O     O_R   0.550170 0.006740 0.400040 -0.534807
O3    O     O_R   0.588980 0.179860 0.596720 -0.522430
O4    O     O_R   0.411020 0.679860 0.403280 -0.522460
C1    C     C_R   0.615811 0.344450 0.620629 0.832583
C2    C     C_R   0.384189 0.844448 0.379371 0.832472
O5    O     O_R   0.452740 0.177340 0.612040 -0.538798
O6    O     O_R   0.547260 0.677340 0.387960 -0.538810
O7    O     O_R   0.412960 0.002070 0.415460 -0.520999
O8    O     O_R   0.587040 0.502070 0.584540 -0.520988
C3    C     C_R   0.436612 0.345517 0.638727 0.693766
C4    C     C_R   0.563386 0.845518 0.361272 0.693791
O9    O     O_3   0.487110 0.337570 0.435490 -0.363604
O10   O     O_3   0.512890 0.837570 0.564510 -0.363589
V1    V     V_3+5 0.502390 0.064650 0.511970 1.634322
V2    V     V_3+5 0.497610 0.564650 0.488030 1.634275
C5    C     C_R   0.609261 0.823833 0.107512 -0.114829
C6    C     C_R   0.390733 0.323684 0.892478 -0.114838
H1    H     H_    0.515724 0.820734 0.157183 0.141345
H2    H     H_    0.484270 0.320574 0.842807 0.141402
H3    H     H_    0.692501 0.806732 0.982259 0.196058
H4    H     H_    0.307491 0.306522 0.017725 0.196022
H5    H     H_    0.583228 0.808815 0.027922 0.147557
H6    H     H_    0.416764 0.308590 0.972064 0.147535
C7    C     C_R   0.603047 0.851142 0.283562 -0.036804
C8    C     C_R   0.396951 0.351132 0.716437 -0.036809
C9    C     C_R   0.931240 0.881764 0.318622 -0.147806
C10   C     C_R   0.068758 0.381854 0.681379 -0.147756
C11   C     C_R   0.895798 0.886570 0.395343 -0.053974
C12   C     C_R   0.104201 0.386704 0.604659 -0.053978
C13   C     C_R   0.824951 0.875594 0.371473 -0.062808
C14   C     C_R   0.175048 0.375694 0.628526 -0.062797
C15   C     C_R   0.787404 0.859178 0.268918 0.059321
C16   C     C_R   0.212593 0.359200 0.731078 0.059334
C17   C     C_R   0.824296 0.850744 0.190695 0.044614
C18   C     C_R   0.175699 0.350714 0.809299 0.044626
C19   C     C_R   0.714620 0.851961 0.241321 0.073845
C20   C     C_R   0.285377 0.351952 0.758675 0.073861
C21   C     C_R   0.680665 0.833290 0.136709 0.106358
C22   C     C_R   0.319330 0.333189 0.863282 0.106379
C23   C     C_R   0.718046 0.823069 0.061902 -0.066775
C24   C     C_R   0.281947 0.322921 0.938087 -0.066775
C25   C     C_R   0.788613 0.833012 0.088150 -0.112136
C26   C     C_R   0.211381 0.332899 0.911840 -0.112163
C27   C     C_R   0.674090 0.861706 0.313799 -0.141256
C28   C     C_R   0.325909 0.361755 0.686202 -0.141279
C29   C     C_R   0.570723 0.831503 0.180658 -0.160590
C30   C     C_R   0.429272 0.331393 0.819334 -0.160573
C31   C     C_R   0.896370 0.862554 0.216655 -0.077898
C32   C     C_R   0.103627 0.362562 0.783342 -0.077898
H7    H     H_    0.695863 0.874019 0.394488 0.140618
H8    H     H_    0.304137 0.374151 0.605518 0.140597
H9    H     H_    0.986187 0.894326 0.338828 0.187237
H10   H     H_    0.013811 0.394444 0.661177 0.187190
H11   H     H_    0.801358 0.880958 0.435258 0.173402
H12   H     H_    0.198641 0.381087 0.564743 0.173373
H13   H     H_    0.923442 0.900623 0.474140 0.175818
H14   H     H_    0.076559 0.400821 0.525865 0.175789
H15   H     H_    0.815028 0.825907 0.026996 0.113383
H16   H     H_    0.184965 0.325757 0.972991 0.113336
C33   C     C_3   0.219195 0.657749 0.189575 -0.404331
C34   C     C_3   0.780774 0.157798 0.810517 -0.404458
H17   H     H_    0.187684 0.552213 0.218724 0.210838
H18   H     H_    0.812279 0.052135 0.781444 0.210778
H19   H     H_    0.218873 0.613760 0.110230 0.236786
H20   H     H_    0.781070 0.113980 0.889882 0.236782
C35   C     C_3   0.292561 0.653559 0.257343 0.224074
C36   C     C_3   0.707418 0.153602 0.742715 0.223980
H21   H     H_    0.294525 0.544215 0.317041 0.221235
H22   H     H_    0.705461 0.044206 0.683045 0.221347
C37   C     C_3   0.185262 0.911936 0.300258 0.785730
C38   C     C_3   0.814751 0.411743 0.699725 0.785680
C39   C     C_3   0.235754 0.997887 0.150474 0.377664
C40   C     C_3   0.764263 0.498033 0.849471 0.377600
C41   C     C_3   0.187328 0.857674 0.188289 -0.270188
C42   C     C_3   0.812671 0.357673 0.811716 -0.270161
H23   H     H_    0.214264 0.142724 0.146361 0.150145
H24   H     H_    0.785768 0.642853 0.853502 0.150177
C43   C     C_3   0.312798 0.849624 0.309482 -0.309010
C44   C     C_3   0.687202 0.349629 0.690519 -0.309005
C45   C     C_3   0.259114 0.902766 0.371820 0.112853
C46   C     C_3   0.740895 0.402634 0.628170 0.112813
C47   C     C_3   0.307900 0.999064 0.223307 0.377040
C48   C     C_3   0.692113 0.499166 0.776652 0.377010
H25   H     H_    0.346866 0.969545 0.179125 0.167911
H26   H     H_    0.653152 0.469713 0.820854 0.167966
H27   H     H_    0.272070 0.045260 0.405107 0.193733
H28   H     H_    0.727962 0.545124 0.594863 0.193726
O11   O     O_R   0.912980 0.203550 0.915410 -0.545193
O12   O     O_R   0.087020 0.703550 0.084590 -0.545191
O13   O     O_R   0.047270 0.535570 0.887960 -0.537681
O14   O     O_R   0.952730 0.035570 0.112040 -0.537693
C49   C     C_R   0.063969 0.368455 0.861680 0.705612
C50   C     C_R   0.936030 0.868454 0.138319 0.705600
O15   O     O_R   0.911030 0.532970 0.903270 -0.530517
O16   O     O_R   0.088970 0.032970 0.096730 -0.530506
O17   O     O_R   0.949820 0.708150 0.099970 -0.535940
O18   O     O_R   0.050180 0.208150 0.900030 -0.535946
C51   C     C_R   0.883646 0.364846 0.882533 0.845518
C52   C     C_R   0.116353 0.864846 0.117470 0.845465
O19   O     O_3   0.012900 0.375230 0.064480 -0.375063
O20   O     O_3   0.987100 0.875230 0.935520 -0.375056
V3    V     V_3+5 0.997610 0.648190 0.988040 1.566645
V4    V     V_3+5 0.002390 0.148190 0.011960 1.566622
Cl1   Cl    Cl    0.351243 0.578987 0.183072 -0.638966
Cl2   Cl    Cl    0.648707 0.079140 0.816965 -0.639201
Cl3   Cl    Cl    0.124567 0.766611 0.344030 -0.597934
Cl4   Cl    Cl    0.875412 0.266184 0.656009 -0.597797
Cl5   Cl    Cl    0.266455 0.752079 0.481633 -0.642860
Cl6   Cl    Cl    0.733526 0.251878 0.518378 -0.642821
F1    F     F_    0.240750 0.949687 0.052750 -0.696381
F2    F     F_    0.759273 0.450038 0.947227 -0.696430
F3    F     F_    0.321593 0.177426 0.264826 -0.679457
F4    F     F_    0.678421 0.677492 0.735083 -0.679527
F5    F     F_    0.161751 0.095477 0.300989 -0.676594
F6    F     F_    0.838310 0.595228 0.698923 -0.676582

loop_
_geom_bond_atom_site_label_1
_geom_bond_atom_site_label_2
_ccdc_geom_bond_type
C36   C44   S    
C20   C22   A    
C37   Cl3   S    
C9    C11   A    
C23   C25   A    
C47   F3    S    
O1    C3    A    
C38   C42   S    
O2    C4    A    
C2    O7    A    
O3    V1    S    
C21   C23   A    
C33   C41   S    
C42   C51   S    
O5    C3    A    
C5    H5    S    
C40   C42   S    
O16   C52   A    
O11   C51   A    
C6    H6    S    
C46   Cl6   S    
C48   H26   S    
C40   F2    S    
O15   C51   A    
C27   H7    S    
C28   H8    S    
C5    C21   A    
C33   H17   S    
C6    C22   A    
C34   H18   S    
C10   C32   A    
C38   Cl4   S    
C17   C31   A    
C13   C15   A    
C45   Cl5   S    
C31   C50   S    
C12   C14   A    
C17   C25   A    
C7    C29   A    
C46   H28   S    
C8    C30   A    
O6    V2    S    
O5    V1    S    
O19   V3    S    
C11   C13   A    
C39   C41   S    
C34   C42   S    
C24   C26   A    
C36   Cl2   S    
O12   C52   A    
O15   V3    S    
C39   F1    S    
C37   C41   S    
C34   H20   S    
C44   C48   S    
C35   C43   S    
C44   C46   S    
C40   C48   S    
C43   C45   S    
C10   H10   S    
C35   Cl1   S    
C3    C8    S    
C15   C19   A    
C35   H21   S    
C14   C16   A    
O4    V2    S    
O13   C49   A    
C33   C35   S    
O14   V4    S    
O6    C4    A    
O14   C50   A    
C37   F5    S    
O1    V2    S    
H2    C30   S    
C1    C44   S    
O20   V4    S    
O2    V1    S    
O17   V3    S    
H3    C23   S    
O4    C2    A    
C47   H25   S    
C11   H13   S    
O19   V4    S    
O16   V4    S    
O11   V4    S    
C18   C26   A    
C19   C27   A    
C7    C27   A    
C18   C32   A    
C48   F4    S    
C16   C20   A    
C5    C29   A    
O13   V3    S    
O3    C1    A    
C6    C30   A    
C9    H9    S    
C32   C49   S    
C25   H15   S    
C38   F6    S    
C50   O17   A    
C34   C36   S    
C4    C7    S    
H1    C29   S    
C10   C12   A    
O7    V1    S    
C1    O8    A    
C19   C21   A    
O8    V2    S    
C43   C47   S    
C45   H27   S    
C2    C43   S    
H4    C24   S    
C26   H16   S    
O18   V4    S    
C12   H14   S    
C22   C24   A    
C41   C52   S    
C15   C17   A    
C14   H12   S    
C16   C18   A    
O20   V3    S    
O12   V3    S    
C20   C28   A    
C8    C28   A    
C33   H19   S    
C36   H22   S    
C40   H24   S    
O9    V2    S    
C39   H23   S    
O10   V1    S    
C13   H11   S    
C49   O18   A    
C39   C47   S    
C38   C46   S    
C9    C31   A    
C37   C45   S    
