data_mof_unit_49975.cif
_audit_creation_date              2012-12-11T14:36:25-0500
_audit_creation_method            fapswitch 2.2
_symmetry_space_group_name_H-M    P1
_symmetry_Int_Tables_number       1
_space_group_crystal_system       triclinic
_cell_length_a                    13.46616
_cell_length_b                    13.466637
_cell_length_c                    27.541901
_cell_angle_alpha                 90.607883
_cell_angle_beta                  90.356316
_cell_angle_gamma                 60.034741
_cell_volume                      4326.6793325

loop_
_atom_site_label
_atom_site_type_symbol
_atom_type_description
_atom_site_fract_x
_atom_site_fract_y
_atom_site_fract_z
_atom_type_partial_charge
C1    C     C_R   0.620497 0.101277 0.570216 0.545270
C2    C     C_1   0.651349 0.702796 0.658243 -0.057994
C3    C     C_3   0.154287 0.472768 0.187197 -0.370128
C4    C     C_3   0.012983 0.562791 0.340041 0.002035
C5    C     C_3   0.140006 0.473374 0.341464 -0.354191
C6    C     C_3   0.059870 0.056258 0.409500 -0.029047
C7    C     C_3   0.964316 0.070770 0.443147 -0.357115
C8    C     C_3   0.032526 0.873800 0.292462 -0.026079
C9    C     C_3   0.120330 0.793717 0.329102 -0.391278
C10   C     C_3   0.068645 0.171042 0.735874 -0.118883
C11   C     C_R   0.599967 0.779262 0.568783 0.547982
C12   C     C_3   0.142900 0.077235 0.773384 -0.148611
C13   C     C_1   0.093673 0.202909 0.901433 -0.014356
C14   C     C_1   0.230562 0.137624 0.617690 -0.013423
C15   C     C_3   0.067768 0.264213 0.769863 -0.135784
C16   C     C_3   0.141928 0.170579 0.806720 0.050264
C17   C     C_3   0.178315 0.248103 0.745333 -0.066168
C18   C     C_3   0.178836 0.155008 0.712049 0.019207
C19   C     C_1   0.632360 0.730946 0.616311 -0.015487
C20   C     C_3   0.250455 0.154137 0.782252 0.306286
C21   C     C_3   0.253949 0.060403 0.748495 -0.111395
C22   C     C_1   0.119531 0.184267 0.859129 -0.043448
C23   C     C_R   0.278101 0.121647 0.569794 0.551559
C24   C     C_1   0.202547 0.146811 0.659761 -0.055195
C25   C     C_3   0.616833 0.281249 0.739815 -0.106717
C26   C     C_3   0.553806 0.248644 0.777902 -0.084639
C27   C     C_1   0.691815 0.209016 0.902532 -0.017700
C28   C     C_1   0.636593 0.133341 0.618214 -0.016422
C29   C     C_3   0.728279 0.219878 0.770355 -0.099898
C30   C     C_3   0.712597 0.556051 0.767735 -0.099517
C31   C     C_3   0.665045 0.187075 0.807607 0.045800
C32   C     C_3   0.764399 0.106303 0.742562 -0.099095
C33   C     C_3   0.653222 0.167832 0.712813 0.045556
C34   C     C_3   0.701436 0.073720 0.780538 -0.109300
C35   C     C_R   0.622179 0.100027 0.431271 0.536981
C36   C     C_3   0.590040 0.134997 0.750063 -0.087956
C37   C     C_1   0.675865 0.198157 0.860155 -0.064647
C38   C     C_1   0.645658 0.152467 0.660390 -0.058926
C39   C     C_R   0.731966 0.671698 0.362373 -0.115123
C40   C     C_R   0.751388 0.654700 0.312323 -0.020825
C41   C     C_3   0.680289 0.652998 0.805215 0.052678
C42   C     C_R   0.782905 0.617375 0.211911 -0.043192
C43   C     C_R   0.878642 0.565718 0.243399 0.278320
C44   C     C_R   0.862058 0.580610 0.293813 0.288052
C45   C     C_R   0.793683 0.587296 0.163020 -0.129228
C46   C     C_R   0.696707 0.629642 0.132923 -0.009242
C47   C     C_R   0.600049 0.778682 0.429875 0.540704
C48   C     C_R   0.529027 0.800732 0.347573 -0.125490
C49   C     C_R   0.545728 0.785240 0.298123 0.019058
C50   C     C_R   0.657187 0.712512 0.280142 0.005754
C51   C     C_R   0.452022 0.840394 0.266603 -0.125153
C52   C     C_3   0.600690 0.634336 0.739623 -0.095292
C53   C     C_R   0.467160 0.819343 0.217024 -0.124244
C54   C     C_R   0.576193 0.743413 0.198716 0.029144
C55   C     C_R   0.672634 0.692910 0.230173 0.007724
C56   C     C_R   0.589073 0.710857 0.150061 -0.134917
C57   C     C_R   0.621519 0.744629 0.379538 0.002243
C58   C     C_R   0.131264 0.152369 0.368443 0.239908
C59   C     C_R   0.277507 0.120918 0.431427 0.582688
C60   C     C_R   0.099140 0.170586 0.319175 0.033230
C61   C     C_R   0.038993 0.203649 0.220599 0.029646
C62   C     C_R   0.959718 0.211061 0.255171 -0.141097
C63   C     C_3   0.665505 0.680703 0.710509 0.054439
C64   C     C_R   0.989177 0.195556 0.304149 -0.105502
C65   C     C_R   0.009522 0.220587 0.171841 -0.108039
C66   C     C_R   0.087458 0.217391 0.137586 0.012023
C67   C     C_R   0.318056 0.127621 0.346911 -0.190546
C68   C     C_R   0.288719 0.142653 0.298251 -0.018776
C69   C     C_R   0.178992 0.164365 0.284144 0.022351
C70   C     C_R   0.367267 0.137104 0.263625 -0.122026
C71   C     C_3   0.777306 0.602825 0.737816 -0.100990
C72   C     C_R   0.337136 0.153823 0.214740 -0.139288
C73   C     C_R   0.228244 0.176081 0.200086 0.018821
C74   C     C_3   0.568645 0.730792 0.777811 -0.106402
C75   C     C_R   0.148884 0.180969 0.234939 0.086421
C76   C     C_R   0.196309 0.195464 0.151294 -0.152972
C77   C     C_R   0.239879 0.133754 0.381659 0.010574
C78   C     C_R   0.557947 0.235011 0.361621 -0.142396
C79   C     C_R   0.565500 0.252182 0.312129 0.009914
C80   C     C_R   0.577718 0.280639 0.211712 0.018465
C81   C     C_R   0.487036 0.365455 0.239155 -0.133067
C82   C     C_R   0.479994 0.350475 0.288929 -0.129832
C83   C     C_3   0.745264 0.699321 0.776164 -0.100646
C84   C     C_R   0.589697 0.296632 0.162283 -0.140841
C85   C     C_3   0.633335 0.777558 0.747978 -0.107414
C86   C     C_R   0.682042 0.210439 0.135910 -0.009121
C87   C     C_R   0.739939 0.056453 0.357634 -0.122261
C88   C     C_R   0.746521 0.068938 0.307873 0.016889
C89   C     C_R   0.657981 0.167067 0.284925 0.007362
C90   C     C_R   0.837933 0.983255 0.280495 0.257539
C91   C     C_R   0.835428 0.993057 0.229891 -0.127119
C92   C     C_R   0.749775 0.091335 0.207319 -0.041195
C93   C     C_R   0.661554 0.179632 0.234652 0.037093
C94   C     C_R   0.755511 0.104950 0.157903 -0.134657
C95   C     C_1   0.696826 0.607607 0.899917 -0.019637
C96   C     C_1   0.688295 0.632971 0.857654 -0.062758
C97   C     C_R   0.643028 0.135097 0.384017 -0.031241
C98   C     C_R   0.048602 0.236539 0.949624 0.543055
C99   C     C_R   0.711406 0.562971 0.948091 0.544008
C100  C     C_R   0.722089 0.225717 0.950760 0.544611
C101  C     C_R   0.047619 0.245135 0.088292 0.534494
C102  C     C_R   0.709310 0.573905 0.086386 0.540861
C103  C     C_R   0.718755 0.233659 0.089452 0.538638
C104  C     C_3   0.409207 0.044805 0.830038 -0.017412
C105  C     C_3   0.483282 0.054919 0.869418 -0.369582
C106  C     C_3   0.036270 0.554199 0.207916 -0.017579
Cr1   Cr    Cr6+3 0.417550 0.169090 0.500530 1.023434
Cr2   Cr    Cr6+3 0.669180 0.913420 0.499920 1.020027
Cr3   Cr    Cr6+3 0.413260 0.917540 0.499520 1.015263
Cr4   Cr    Cr6+3 0.909170 0.177380 0.020380 1.017003
Cr5   Cr    Cr6+3 0.912710 0.429210 0.018220 1.019214
Cr6   Cr    Cr6+3 0.657170 0.432570 0.019030 1.021067
H1    H     H_    0.804130 0.726623 0.791787 0.103205
H2    H     H_    0.862842 0.549905 0.720857 0.104615
H3    H     H_    0.801367 0.630031 0.388187 0.141087
H4    H     H_    0.515026 0.743345 0.126277 0.114334
H5    H     H_    0.366487 0.896874 0.280457 0.107989
H6    H     H_    0.443730 0.859600 0.361247 0.127946
H7    H     H_    0.924435 0.239702 0.160492 0.120573
H8    H     H_    0.874707 0.229402 0.244342 0.121415
H9    H     H_    0.601386 0.868687 0.738824 0.095914
H10   H     H_    0.925706 0.202698 0.330051 0.157419
H11   H     H_    0.254929 0.194432 0.124203 0.098905
H12   H     H_    0.194194 0.317630 0.733687 0.111403
H13   H     H_    0.398574 0.150070 0.188490 0.118357
H14   H     H_    0.451864 0.120040 0.274394 0.133306
H15   H     H_    0.402278 0.111531 0.358117 0.130907
H16   H     H_    0.531561 0.377598 0.145263 0.123568
H17   H     H_    0.483274 0.296296 0.382003 0.127530
H18   H     H_    0.421579 0.443078 0.222139 0.103425
H19   H     H_    0.408225 0.416105 0.309346 0.103704
H20   H     H_    0.825264 0.036451 0.137578 0.135089
H21   H     H_    0.482996 0.783296 0.794731 0.090446
H22   H     H_    0.901820 0.925001 0.208183 0.098207
H23   H     H_    0.991013 0.347829 0.778919 0.107519
H24   H     H_    0.806340 0.980319 0.375196 0.181320
H25   H     H_    0.541691 0.607106 0.724078 0.102836
H26   H     H_    0.745321 0.464583 0.776492 0.097640
H27   H     H_    0.127827 0.007444 0.785400 0.110008
H28   H     H_    0.993156 0.178089 0.716239 0.113174
H29   H     H_    0.330688 0.976958 0.739223 0.093245
H30   H     H_    0.466200 0.980827 0.802726 0.122492
H31   H     H_    0.355510 0.013467 0.847396 0.128226
H32   H     H_    0.428184 0.117543 0.897624 0.162403
H33   H     H_    0.537476 0.970173 0.886572 0.099005
H34   H     H_    0.467198 0.306566 0.793015 0.135548
H35   H     H_    0.539680 0.084030 0.853543 0.164229
H36   H     H_    0.735607 0.988540 0.797711 0.099991
H37   H     H_    0.046528 0.605404 0.237342 0.126077
H38   H     H_    0.983248 0.613441 0.178513 0.118927
H39   H     H_    0.209384 0.410797 0.215257 0.166235
H40   H     H_    0.146278 0.425498 0.155576 0.170754
H41   H     H_    0.195362 0.522077 0.175034 0.084171
H42   H     H_    0.985803 0.597120 0.377403 0.133926
H43   H     H_    0.000897 0.635319 0.316863 0.136092
H44   H     H_    0.170659 0.438277 0.304478 0.172226
H45   H     H_    0.582603 0.366380 0.722600 0.103423
H46   H     H_    0.190201 0.512589 0.355386 0.074221
H47   H     H_    0.154412 0.402006 0.365739 0.184754
H48   H     H_    0.393182 0.859384 0.193239 0.107814
H49   H     H_    0.143511 0.992682 0.425634 0.145708
H50   H     H_    0.048508 0.022186 0.374242 0.116492
H51   H     H_    0.879707 0.133257 0.427568 0.162903
H52   H     H_    0.967799 0.987202 0.447557 0.101561
H53   H     H_    0.974087 0.102180 0.479313 0.165121
H54   H     H_    0.031119 0.957263 0.294199 0.125114
H55   H     H_    0.061327 0.835059 0.255770 0.125470
H56   H     H_    0.532983 0.099904 0.741072 0.132510
H57   H     H_    0.135045 0.705617 0.324008 0.138575
H58   H     H_    0.202869 0.792008 0.323772 0.097805
H59   H     H_    0.089596 0.823259 0.366680 0.150637
H60   H     H_    0.851068 0.048196 0.727538 0.105394
H61   H     H_    0.785734 0.254530 0.779298 0.100818
H62   H     H_    0.876479 0.522526 0.149239 0.178141
O1    O     O_R   0.301710 0.195650 0.554160 -0.504417
O2    O     O_R   0.635520 0.542770 0.964420 -0.508129
O3    O     O_R   0.665950 0.325030 0.970100 -0.493551
O4    O     O_R   0.522390 0.158990 0.550460 -0.493738
O5    O     O_R   0.816620 0.158530 0.074540 -0.525791
O6    O     O_R   0.004460 0.188870 0.069750 -0.502556
O7    O     O_R   0.025800 0.341780 0.072300 -0.517740
O8    O     O_R   0.807650 0.528950 0.067500 -0.510699
O9    O     O_R   0.633420 0.550490 0.071810 -0.513396
O10   O     O_R   0.664000 0.332180 0.069640 -0.499147
O11   O     O_3   0.826350 0.346390 0.019210 -0.244742
O12   O     O_R   0.658900 0.818120 0.449760 -0.497962
O13   O     O_R   0.694390 0.003530 0.554040 -0.508492
O14   O     O_R   0.657700 0.819660 0.549320 -0.493345
O15   O     O_R   0.501930 0.803280 0.552920 -0.506405
O16   O     O_R   0.318170 0.023580 0.549580 -0.494751
O17   O     O_R   0.303010 0.193990 0.446760 -0.515489
O18   O     O_R   0.523600 0.157450 0.450900 -0.504428
O19   O     O_R   0.695690 0.001860 0.446640 -0.523181
O20   O     O_3   0.342910 0.152130 0.807563 -0.567956
O21   O     O_3   0.987192 0.490256 0.225781 -0.532757
O22   O     O_3   0.950837 0.509196 0.324386 -0.528386
O23   O     O_R   0.503220 0.801620 0.445520 -0.522298
O24   O     O_3   0.053974 0.163198 0.403908 -0.557733
O25   O     O_3   0.924041 0.886732 0.303293 -0.584066
O26   O     O_R   0.319370 0.022040 0.450020 -0.514666
O27   O     O_3   0.499990 0.000010 0.499990 -0.248427
O28   O     O_R   0.818720 0.150820 0.967160 -0.507809
O29   O     O_R   0.006410 0.181720 0.970200 -0.496519
O30   O     O_R   0.027890 0.334070 0.964920 -0.504760
O31   O     O_R   0.809600 0.521790 0.967960 -0.493671

loop_
_geom_bond_atom_site_label_1
_geom_bond_atom_site_label_2
_ccdc_geom_bond_type
C84   H16   S    
C84   C86   A    
C4    H42   S    
C87   C88   A    
C49   C50   A    
Cr4   O11   S    
C35   O18   A    
C106  H38   S    
C18   C21   S    
C83   H1    S    
Cr2   O13   S    
Cr3   O23   S    
C95   C96   T    
C67   C77   A    
Cr5   O7    S    
C80   C84   A    
C59   C77   S    
C105  H32   S    
C81   C82   A    
C90   C91   A    
C48   C57   A    
Cr6   O10   S    
C53   C54   A    
C61   C75   A    
C46   C102  S    
C11   C19   S    
C3    H40   S    
Cr1   O1    S    
C99   O31   A    
C18   C24   S    
C102  O9    A    
Cr4   O5    S    
Cr2   O12   S    
C78   H17   S    
C10   C18   S    
Cr1   O27   S    
C29   C32   S    
C52   C74   S    
C10   C15   S    
C40   C50   A    
C41   C96   S    
C15   H23   S    
C86   C103  S    
C95   C99   S    
C58   C60   A    
C15   C16   S    
C41   C83   S    
C74   H21   S    
C36   H56   S    
C17   C20   S    
C104  H31   S    
C43   O21   S    
C14   C24   T    
C13   C98   S    
C26   H34   S    
C3    H41   S    
C32   H60   S    
C62   C64   A    
C86   C94   A    
C58   C77   A    
C41   C74   S    
C68   C69   A    
C59   O17   A    
C79   C89   A    
C99   O2    A    
C12   C16   S    
Cr3   O15   S    
C8    C9    S    
C49   C51   A    
Cr1   O18   S    
C1    C28   S    
C34   H36   S    
C30   C41   S    
C85   H9    S    
Cr4   O6    S    
Cr5   O31   S    
C40   C44   A    
C62   H8    S    
C30   H26   S    
C70   H14   S    
C7    H53   S    
C66   C76   A    
C26   C31   S    
C106  H37   S    
C63   C85   S    
C73   C75   A    
C66   C101  S    
C9    H58   S    
C10   H28   S    
C100  O3    A    
C20   O20   S    
C104  C105  S    
C14   C23   S    
C30   C71   S    
Cr6   O9    S    
C71   C83   S    
C1    O13   A    
C3    C106  S    
C25   C29   S    
C54   C56   A    
C27   C100  S    
C44   O22   S    
Cr5   O11   S    
C67   C68   A    
C102  O8    A    
C6    H50   S    
C98   O29   A    
C91   C92   A    
C6    O24   S    
C78   C79   A    
C80   C81   A    
C48   H6    S    
C90   O25   S    
C5    H47   S    
C25   C26   S    
C45   C46   A    
C7    H51   S    
C12   C21   S    
Cr5   O8    S    
C94   H20   S    
C31   C37   S    
C71   H2    S    
Cr4   O29   S    
C51   C53   A    
C42   C45   A    
C32   C34   S    
C9    H57   S    
C43   C44   A    
Cr2   O27   S    
C8    H55   S    
C67   H15   S    
C42   C55   A    
C47   C57   S    
C1    O4    A    
C17   H12   S    
C6    H49   S    
C28   C38   T    
C59   O26   A    
C16   C20   S    
C105  H33   S    
C78   C97   A    
C92   C94   A    
C52   H25   S    
C56   H4    S    
C12   H27   S    
C103  O10   A    
C20   C21   S    
C47   O12   A    
C39   C57   A    
C6    C7    S    
C10   C12   S    
C11   O14   A    
C26   C36   S    
C48   C49   A    
Cr6   O2    S    
C63   C71   S    
C65   C66   A    
C39   H3    S    
Cr1   O4    S    
C25   H45   S    
C73   C76   A    
C104  H30   S    
C9    H59   S    
C42   C43   A    
C46   C56   A    
Cr6   O11   S    
C101  O7    A    
C2    C63   S    
C98   O30   A    
C4    O22   S    
C33   C36   S    
C54   C55   A    
C58   O24   S    
C53   H48   S    
C16   C22   S    
C83   C85   S    
C2    C19   T    
C76   H11   S    
C87   H24   S    
Cr2   O14   S    
C31   C34   S    
C33   C38   S    
C29   H61   S    
C72   C73   A    
Cr3   O26   S    
C52   C63   S    
Cr5   O30   S    
C79   C82   A    
C15   C17   S    
C106  O21   S    
C5    H44   S    
C7    H52   S    
C3    H39   S    
C50   C55   A    
C17   C18   S    
Cr4   O28   S    
C72   H13   S    
C60   C64   A    
C32   C33   S    
Cr3   O27   S    
C88   C90   A    
C80   C93   A    
C100  O28   A    
C82   H19   S    
C29   C31   S    
C101  O6    A    
C45   H62   S    
C81   H18   S    
C91   H22   S    
C30   C52   S    
C60   C69   A    
C27   C37   T    
C64   H10   S    
C8    H54   S    
C92   C93   A    
C51   H5    S    
C34   C36   S    
C13   C22   T    
C69   C75   A    
C103  O5    A    
C74   C85   S    
C89   C93   A    
C61   C62   A    
C65   H7    S    
C35   O19   A    
C21   H29   S    
C39   C40   A    
C61   C65   A    
C4    C5    S    
C4    H43   S    
C23   O1    A    
C88   C89   A    
C68   C70   A    
C5    H46   S    
Cr1   O17   S    
C104  O20   S    
C47   O23   A    
C8    O25   S    
C70   C72   A    
Cr3   O16   S    
C11   O15   A    
Cr2   O19   S    
C35   C97   S    
C23   O16   A    
C25   C33   S    
Cr6   O3    S    
C87   C97   A    
C105  H35   S    
