data_mof_unit_8713.cif
_audit_creation_date              2012-12-10T17:57:48-0500
_audit_creation_method            fapswitch 2.2
_symmetry_space_group_name_H-M    P1
_symmetry_Int_Tables_number       1
_space_group_crystal_system       triclinic
_cell_length_a                    10.812427
_cell_length_b                    9.626231
_cell_length_c                    14.997964
_cell_angle_alpha                 89.987655
_cell_angle_beta                  92.200194
_cell_angle_gamma                 89.976315
_cell_volume                      1559.88089779

loop_
_atom_site_label
_atom_site_type_symbol
_atom_type_description
_atom_site_fract_x
_atom_site_fract_y
_atom_site_fract_z
_atom_type_partial_charge
C1    C     C_R   0.262379 0.500020 0.499492 0.844421
C2    C     C_R   0.737621 0.499984 0.500497 0.845168
C3    C     C_R   0.274233 0.494360 0.042817 0.240654
C4    C     C_R   0.725441 0.515944 0.957194 0.239507
C5    C     C_R   0.063959 0.373800 0.499816 -0.109095
C6    C     C_R   0.936038 0.626222 0.500148 -0.114458
C7    C     C_R   0.936140 0.373778 0.500140 -0.113093
C8    C     C_R   0.063858 0.626243 0.499813 -0.119121
C9    C     C_R   0.871641 0.499986 0.500447 -0.014176
C10   C     C_R   0.128357 0.500031 0.499519 -0.014396
C11   C     C_R   0.421938 0.074051 0.442998 0.286633
C12   C     C_R   0.578055 0.925938 0.557011 0.288165
C13   C     C_R   0.578063 0.073952 0.556998 0.287091
C14   C     C_R   0.421947 0.926035 0.442988 0.288049
C15   C     C_R   0.501300 0.500038 0.329337 0.880301
C16   C     C_R   0.498716 0.500003 0.670664 0.880200
C17   C     C_R   0.608516 0.506209 0.815015 -0.213036
C18   C     C_R   0.391483 0.494978 0.184977 -0.213020
C19   C     C_R   0.496100 0.500255 0.766908 -0.101217
C20   C     C_R   0.503901 0.500397 0.233095 -0.101104
C21   C     C_R   0.383319 0.496105 0.809980 0.200555
C22   C     C_R   0.616554 0.507670 0.190026 0.201513
C23   C     C_R   0.384245 0.497458 0.903867 0.051264
C24   C     C_R   0.615538 0.508641 0.096133 0.052061
C25   C     C_R   0.498918 0.503891 0.952995 -0.016678
C26   C     C_R   0.500823 0.503917 0.046993 -0.017070
C27   C     C_R   0.611733 0.509323 0.908128 0.094729
C28   C     C_R   0.388037 0.498248 0.091862 0.094927
C29   C     C_R   0.273464 0.492714 0.949713 -0.216998
C30   C     C_R   0.726267 0.514239 0.050296 -0.216222
Cu1   Cu    Cu3+1 0.500000 0.640660 0.500000 1.058573
Cu2   Cu    Cu3+1 0.500000 0.359340 0.500000 1.061058
H1    H     H_    0.693392 0.508022 0.778809 0.196705
H2    H     H_    0.306783 0.488364 0.221176 0.197354
H3    H     H_    0.184625 0.488934 0.914174 0.191425
H4    H     H_    0.815032 0.518442 0.085852 0.188053
H5    H     H_    0.111966 0.275049 0.499947 0.189294
H6    H     H_    0.888029 0.724971 0.500025 0.190470
H7    H     H_    0.888215 0.275021 0.500023 0.188690
H8    H     H_    0.111784 0.724999 0.499925 0.189607
N1    N     N_R   0.500000 0.852070 0.500000 -0.247059
N2    N     N_R   0.500000 0.147930 0.500000 -0.249837
O1    O     O_R   0.319640 0.618740 0.499990 -0.560086
O2    O     O_R   0.680360 0.381260 0.500010 -0.560897
O3    O     O_R   0.680360 0.618740 0.500010 -0.557721
O4    O     O_R   0.319640 0.381260 0.499990 -0.559076
O5    O     O_R   0.499970 0.618800 0.370260 -0.536853
O6    O     O_R   0.500030 0.381200 0.629740 -0.535789
O7    O     O_R   0.500030 0.618800 0.629740 -0.540315
O8    O     O_R   0.499970 0.381200 0.370260 -0.539007
Br1   Br    Br    0.230232 0.488815 0.738944 -0.542434
Br2   Br    Br    0.769606 0.515337 0.261083 -0.548027
N3    N     N_2   0.159698 0.490577 0.086638 -0.431580
H9    H     H_    0.092882 0.430831 0.054102 0.257449
C31   C     C_3   0.113007 0.626006 0.110203 -0.623573
H10   H     H_    0.027481 0.613691 0.148086 0.256183
H11   H     H_    0.090868 0.687635 0.048988 0.220075
H12   H     H_    0.182152 0.683055 0.152894 0.262514
N4    N     N_2   0.839970 0.522274 0.913458 -0.433369
H13   H     H_    0.910804 0.468902 0.946329 0.256085
C32   C     C_3   0.876954 0.661315 0.889427 -0.614302
H14   H     H_    0.963846 0.656494 0.852391 0.253249
H15   H     H_    0.893462 0.725336 0.950383 0.220327
H16   H     H_    0.804512 0.711476 0.845854 0.263828
Br3   Br    Br    0.309310 0.168414 0.360631 -0.427203
Br4   Br    Br    0.690645 0.831561 0.639431 -0.455871
Br5   Br    Br    0.690693 0.168198 0.639339 -0.425287
Br6   Br    Br    0.309369 0.831767 0.360579 -0.448209

loop_
_geom_bond_atom_site_label_1
_geom_bond_atom_site_label_2
_ccdc_geom_bond_type
C32   H16   S    
C6    C8    A    
C31   H10   S    
C6    H6    S    
C12   Br4   S    
C12   N1    A    
C15   O5    A    
C25   C27   A    
C3    N3    S    
C29   H3    S    
C26   C28   A    
Cu1   Cu2   S    
C30   H4    S    
C16   O6    A    
C6    C9    A    
C31   H11   S    
Cu2   O2    S    
C5    C7    A    
N4    H13   S    
C17   H1    S    
Cu1   N1    S    
Cu1   O5    S    
N3    H9    S    
C16   O7    A    
Cu2   O6    S    
Cu2   O8    S    
C15   C20   S    
Cu1   O1    S    
Cu1   O7    S    
C16   C19   S    
C18   H2    S    
C23   C29   A    
C4    N4    S    
C22   Br2   S    
C13   N2    A    
C17   C19   A    
C24   C26   A    
C31   H12   S    
C14   Br6   S    
C18   C20   A    
N3    C31   S    
C2    O3    A    
C13   Br5   S    
C32   H14   S    
C11   C14   A    
C24   C30   A    
C1    O4    A    
N4    C32   S    
C5    H5    S    
C20   C22   A    
C14   N1    A    
C17   C27   A    
C7    C9    A    
C21   Br1   S    
C23   C25   A    
C18   C28   A    
C12   C13   A    
C11   N2    A    
C8    C10   A    
Cu1   O3    S    
C15   O8    A    
C32   H15   S    
C7    H7    S    
C3    C28   A    
C3    C29   A    
Cu2   N2    S    
C4    C27   A    
C8    H8    S    
C5    C10   A    
C25   C26   A    
C2    C9    S    
Cu2   O4    S    
C21   C23   A    
C1    O1    A    
C4    C30   A    
C1    C10   S    
C11   Br3   S    
C22   C24   A    
C2    O2    A    
C19   C21   A    
