data_mof_unit_9050.cif
_audit_creation_date              2012-10-26T19:45:14-0400
_audit_creation_method            fapswitch 2.2
_symmetry_space_group_name_H-M    P1
_symmetry_Int_Tables_number       1
_space_group_crystal_system       triclinic
_cell_length_a                    9.993041
_cell_length_b                    11.883902
_cell_length_c                    14.001516
_cell_angle_alpha                 95.76488
_cell_angle_beta                  85.048091
_cell_angle_gamma                 82.631039
_cell_volume                      1632.38237981

loop_
_atom_site_label
_atom_site_type_symbol
_atom_type_description
_atom_site_fract_x
_atom_site_fract_y
_atom_site_fract_z
_atom_type_partial_charge
C1    C     C_R   0.497754 0.736873 0.496366 0.529810
C2    C     C_R   0.945338 0.453717 0.417424 0.135998
C3    C     C_1   0.538116 0.502412 0.215043 0.059164
C4    C     C_1   0.461818 0.497884 0.784989 0.057785
C5    C     C_2   0.558044 0.499032 0.023299 0.008108
C6    C     C_2   0.441871 0.501517 0.976748 0.008019
C7    C     C_1   0.450761 0.499645 0.872006 0.035233
C8    C     C_1   0.549160 0.500771 0.128032 0.035907
C9    C     C_R   0.626410 0.922205 0.484098 -0.031408
C10   C     C_R   0.377810 0.074029 0.516957 -0.015853
C11   C     C_R   0.623680 0.046628 0.499105 -0.007925
C12   C     C_R   0.503197 0.262399 0.503841 0.534126
C13   C     C_R   0.380941 0.950247 0.500468 -0.011376
C14   C     C_R   0.072546 0.647010 0.659948 0.052877
C15   C     C_R   0.193856 0.699381 0.672392 -0.021019
C16   C     C_R   0.201332 0.783731 0.748117 -0.115191
C17   C     C_R   0.085650 0.832682 0.807924 -0.062059
C18   C     C_R   0.960633 0.797968 0.791010 -0.059796
C19   C     C_R   0.953645 0.708274 0.718638 -0.081639
C20   C     C_R   0.926480 0.351066 0.341112 0.049036
C21   C     C_R   0.804485 0.299892 0.328047 -0.022034
C22   C     C_R   0.796806 0.215096 0.252721 -0.114791
C23   C     C_R   0.501865 0.126855 0.507429 -0.073139
C24   C     C_R   0.912489 0.165025 0.193565 -0.061184
C25   C     C_R   0.037728 0.198738 0.210978 -0.058302
C26   C     C_R   0.045132 0.288323 0.283315 -0.083183
C27   C     C_2   0.300652 0.506417 0.028020 0.579671
C28   C     C_2   0.699259 0.494224 0.972033 0.579614
C29   C     C_2   0.757180 0.845181 0.460444 0.631222
C30   C     C_2   0.245166 0.147187 0.546435 0.615372
C31   C     C_2   0.743207 0.088694 0.534040 0.625301
C32   C     C_2   0.261862 0.908242 0.464297 0.631285
C33   C     C_R   0.502189 0.870663 0.492990 -0.080362
C34   C     C_R   0.476976 0.497653 0.681997 0.529778
C35   C     C_R   0.522982 0.502517 0.318027 0.530597
C36   C     C_R   0.918255 0.510684 0.588527 -0.016694
C37   C     C_R   0.083173 0.484831 0.412986 -0.003828
C38   C     C_R   0.054717 0.544415 0.583317 0.133568
Cu1   Cu    Cu3+1 0.359340 0.499980 0.500000 0.985800
Cu2   Cu    Cu3+1 0.640660 0.500020 0.500000 0.986196
H1    H     H_    0.855640 0.518609 0.659038 0.130360
H2    H     H_    0.905975 0.096998 0.136894 0.126518
H3    H     H_    0.129922 0.154784 0.168783 0.129955
H4    H     H_    0.148214 0.301415 0.293837 0.116340
H5    H     H_    0.179514 0.508737 0.153336 0.348632
H6    H     H_    0.820382 0.492205 0.846734 0.347268
H7    H     H_    0.833500 0.666071 0.530489 0.369512
H8    H     H_    0.174535 0.319807 0.473799 0.372018
H9    H     H_    0.952724 0.071317 0.513340 0.397589
H10   H     H_    0.052157 0.925061 0.483914 0.399039
H11   H     H_    0.146881 0.474649 0.343528 0.129840
H12   H     H_    0.288194 0.677944 0.638994 0.183294
H13   H     H_    0.299296 0.812061 0.759272 0.105878
H14   H     H_    0.091935 0.900571 0.864785 0.126179
H15   H     H_    0.868353 0.841029 0.833768 0.129179
H16   H     H_    0.850697 0.693652 0.708885 0.116705
H17   H     H_    0.709850 0.322125 0.360689 0.183228
H18   H     H_    0.698657 0.187333 0.241304 0.106910
N1    N     N_R   0.147930 0.499970 0.499980 -0.274523
N2    N     N_R   0.852070 0.500030 0.500020 -0.279139
O1    O     O_R   0.381260 0.680340 0.500000 -0.506965
O2    O     O_R   0.278904 0.505403 0.128699 -0.700156
O3    O     O_2   0.797288 0.489134 0.019038 -0.480427
O4    O     O_R   0.720994 0.495507 0.871366 -0.701438
O5    O     O_2   0.866935 0.858938 0.470322 -0.427298
O6    O     O_R   0.815629 0.743952 0.515255 -0.598112
O7    O     O_2   0.137938 0.137992 0.525406 -0.426214
O8    O     O_R   0.200162 0.242053 0.487022 -0.597113
O9    O     O_2   0.738284 0.128044 0.620277 -0.472962
O10   O     O_R   0.867817 0.056833 0.475878 -0.642429
O11   O     O_2   0.267750 0.869322 0.377922 -0.468611
O12   O     O_R   0.618740 0.319660 0.500000 -0.509043
O13   O     O_R   0.136693 0.939294 0.522007 -0.645977
O14   O     O_R   0.618830 0.680370 0.500010 -0.491326
O15   O     O_R   0.381170 0.319630 0.499990 -0.488135
O16   O     O_R   0.364420 0.499960 0.637840 -0.536572
O17   O     O_R   0.635580 0.500040 0.362160 -0.534945
O18   O     O_R   0.601990 0.499990 0.637850 -0.485611
O19   O     O_R   0.398010 0.500010 0.362150 -0.485315
O20   O     O_2   0.202631 0.511377 0.981009 -0.480815

loop_
_geom_bond_atom_site_label_1
_geom_bond_atom_site_label_2
_ccdc_geom_bond_type
C19   H16   S    
Cu2   N2    S    
C24   H2    S    
C13   C32   S    
C25   H3    S    
C1    C33   S    
C13   C33   A    
C12   C23   S    
C1    O14   A    
C5    C6    D    
C37   H11   S    
C2    N2    A    
C15   C16   A    
H5    O2    S    
C18   C19   A    
C35   O19   A    
C16   H13   S    
C31   O10   S    
C16   C17   A    
Cu1   O15   S    
H7    O6    S    
C30   O7    D    
C9    C29   S    
C12   O12   A    
C11   C31   S    
C21   C22   A    
C9    C33   A    
C36   H1    S    
C4    C7    T    
C32   O11   D    
Cu1   O1    S    
C4    C34   S    
C26   H4    S    
C24   C25   A    
C27   O20   D    
H10   O13   S    
C32   O13   S    
C25   C26   A    
Cu1   O16   S    
C2    C20   S    
C35   O17   A    
C38   N1    A    
H6    O4    S    
Cu1   O19   S    
C21   H17   S    
C27   O2    S    
C14   C38   S    
C5    C28   S    
C10   C30   S    
C6    C27   S    
C3    C35   S    
Cu1   N1    S    
C17   C18   A    
C15   H12   S    
H8    O8    S    
C9    C11   A    
C37   N1    A    
C18   H15   S    
C29   O5    D    
C28   O4    S    
C3    C8    T    
H9    O10   S    
C22   C24   A    
Cu1   Cu2   S    
Cu2   O12   S    
Cu2   O17   S    
C14   C19   A    
C36   N2    A    
C10   C13   A    
C1    O1    A    
C22   H18   S    
C5    C8    S    
C6    C7    S    
C10   C23   A    
C36   C38   A    
C34   O18   A    
C2    C37   A    
C20   C26   A    
C11   C23   A    
Cu2   O14   S    
Cu2   O18   S    
C29   O6    S    
C28   O3    D    
C31   O9    D    
C20   C21   A    
C12   O15   A    
C14   C15   A    
C17   H14   S    
C30   O8    S    
C34   O16   A    
