data_mof_unit_31668.cif
_audit_creation_date              2012-12-10T18:47:41-0500
_audit_creation_method            fapswitch 2.2
_symmetry_space_group_name_H-M    P1
_symmetry_Int_Tables_number       1
_space_group_crystal_system       triclinic
_cell_length_a                    9.845817
_cell_length_b                    10.722417
_cell_length_c                    15.393037
_cell_angle_alpha                 90.350546
_cell_angle_beta                  68.78221
_cell_angle_gamma                 90.206955
_cell_volume                      1514.86730839

loop_
_atom_site_label
_atom_site_type_symbol
_atom_type_description
_atom_site_fract_x
_atom_site_fract_y
_atom_site_fract_z
_atom_type_partial_charge
C1    C     C_R   0.500110 0.740134 0.500140 0.868355
C2    C     C_R   0.499925 0.259873 0.499798 0.855267
C3    C     C_R   0.299544 0.425071 0.113109 0.454281
C4    C     C_R   0.625846 0.322515 0.916904 0.465074
C5    C     C_R   0.200740 0.441348 0.068141 -0.220678
C6    C     C_R   0.725520 0.308350 0.961504 -0.217016
C7    C     C_R   0.629718 0.936489 0.487528 -0.167043
C8    C     C_R   0.370395 0.063537 0.512257 -0.170199
C9    C     C_R   0.629669 0.064232 0.487196 -0.190326
C10   C     C_R   0.370450 0.935798 0.512570 -0.191350
C11   C     C_R   0.499968 0.127425 0.499644 -0.014316
C12   C     C_R   0.500130 0.872597 0.500174 -0.014826
C13   C     C_R   0.954510 0.411009 0.452010 -0.267910
C14   C     C_R   0.045208 0.588571 0.548448 -0.307262
C15   C     C_R   0.098984 0.409820 0.452453 0.584649
C16   C     C_R   0.900018 0.588645 0.549194 0.564378
C17   C     C_R   0.409815 0.499481 0.676444 0.898155
C18   C     C_R   0.590209 0.498194 0.323836 0.911932
C19   C     C_R   0.354644 0.486432 0.778248 -0.122491
C20   C     C_R   0.642073 0.470495 0.224140 -0.100718
C21   C     C_R   0.152866 0.476166 0.926247 -0.186555
C22   C     C_R   0.799897 0.350455 0.092980 -0.204196
C23   C     C_R   0.204346 0.489429 0.829765 -0.267596
C24   C     C_R   0.769439 0.400850 0.181728 -0.285155
C25   C     C_R   0.453052 0.467106 0.824252 0.397726
C26   C     C_R   0.547736 0.492574 0.176405 0.403880
C27   C     C_R   0.399351 0.430497 0.918367 -0.053572
C28   C     C_R   0.562909 0.421141 0.096246 -0.050543
C29   C     C_R   0.249929 0.448828 0.971197 0.051177
C30   C     C_R   0.697243 0.360242 0.049698 0.049028
C31   C     C_R   0.492712 0.387728 0.963240 -0.120243
C32   C     C_R   0.451118 0.412371 0.059104 -0.114310
N1    N     N_R   0.142780 0.500030 0.500020 -0.097750
N2    N     N_R   0.857220 0.499970 0.499980 -0.100721
O1    O     O_R   0.385370 0.683250 0.500010 -0.630296
O2    O     O_R   0.614630 0.316750 0.499990 -0.637048
O3    O     O_R   0.614700 0.683220 0.500000 -0.576152
O4    O     O_R   0.385300 0.316780 0.500000 -0.576110
O5    O     O_R   0.319830 0.500020 0.632250 -0.641060
O6    O     O_R   0.680170 0.499980 0.367750 -0.637611
O7    O     O_R   0.549160 0.499990 0.632240 -0.496427
O8    O     O_R   0.450840 0.500010 0.367760 -0.516078
Zn1   Zn    Zn3+2 0.346870 0.500020 0.500000 1.020150
Zn2   Zn    Zn3+2 0.653130 0.499980 0.500000 1.026757
H1    H     H_    0.086104 0.452044 0.109407 0.165161
H2    H     H_    0.826247 0.258370 0.926310 0.168935
O9    O     O_3   0.444640 0.585793 0.208923 -0.727958
H3    H     H_    0.422598 0.619211 0.155615 0.341264
O10   O     O_3   0.599325 0.492895 0.778157 -0.700515
H4    H     H_    0.640006 0.526755 0.823688 0.336676
H5    H     H_    0.842978 0.382574 0.218140 0.182596
H6    H     H_    0.127007 0.506419 0.795943 0.184513
H7    H     H_    0.037538 0.487251 0.965482 0.159770
H8    H     H_    0.900404 0.299328 0.060018 0.154217
O11   O     O_3   0.242675 0.412736 0.208631 -0.739084
H9    H     H_    0.311154 0.361916 0.227354 0.363616
O12   O     O_3   0.658022 0.264227 0.831618 -0.731656
H10   H     H_    0.565727 0.247438 0.821658 0.342257
H11   H     H_    0.730846 0.888224 0.477453 0.176875
H12   H     H_    0.269251 0.111792 0.522366 0.179891
H13   H     H_    0.730851 0.113040 0.476887 0.159221
H14   H     H_    0.269266 0.886999 0.522874 0.159502
H15   H     H_    0.919949 0.340526 0.413772 0.148599
H16   H     H_    0.079612 0.658742 0.586989 0.148419
O13   O     O_3   0.196606 0.318290 0.406208 -0.744806
H17   H     H_    0.147233 0.258169 0.378221 0.309362
O14   O     O_3   0.800061 0.676451 0.599344 -0.718826
H18   H     H_    0.847365 0.733336 0.630911 0.306720

loop_
_geom_bond_atom_site_label_1
_geom_bond_atom_site_label_2
_ccdc_geom_bond_type
C4    O12   S    
C19   C23   A    
O11   H9    S    
C21   C29   A    
C14   C16   A    
C27   C29   A    
O1    Zn1   S    
C2    O4    A    
C26   C28   A    
C31   C32   A    
C13   H15   S    
C13   C15   A    
C1    O3    A    
C3    C5    A    
C14   H16   S    
C24   H5    S    
C28   C30   A    
O12   H10   S    
C13   N2    A    
C22   H8    S    
C16   O14   S    
C8    H12   S    
C21   H7    S    
C9    C11   A    
C23   H6    S    
C10   H14   S    
C1    C12   S    
C10   C12   A    
C26   O9    S    
C14   N1    A    
C8    C11   A    
C9    H13   S    
C2    C11   S    
C28   C32   A    
C7    H11   S    
C17   C19   S    
C15   N1    A    
O13   H17   S    
C5    C29   A    
C18   O8    A    
C21   C23   A    
C6    H2    S    
C3    C32   A    
C19   C25   A    
O7    Zn2   S    
C22   C24   A    
C7    C12   A    
O2    Zn2   S    
C4    C31   A    
C25   C27   A    
O8    Zn1   S    
C27   C31   A    
O14   H18   S    
N1    Zn1   S    
O3    Zn2   S    
C20   C24   A    
O6    Zn2   S    
N2    Zn2   S    
C1    O1    A    
C18   C20   S    
C4    C6    A    
O10   H4    S    
C17   O5    A    
C2    O2    A    
C7    C9    A    
C18   O6    A    
O5    Zn1   S    
C22   C30   A    
C17   O7    A    
C16   N2    A    
C3    O11   S    
C5    H1    S    
C6    C30   A    
C8    C10   A    
O4    Zn1   S    
O9    H3    S    
C20   C26   A    
C25   O10   S    
C15   O13   S    
