data_mof_unit_60327.cif
_audit_creation_date              2012-12-10T20:06:46-0500
_audit_creation_method            fapswitch 2.2
_symmetry_space_group_name_H-M    P1
_symmetry_Int_Tables_number       1
_space_group_crystal_system       triclinic
_cell_length_a                    32.111427
_cell_length_b                    32.109227
_cell_length_c                    38.625827
_cell_angle_alpha                 90.027426
_cell_angle_beta                  89.990454
_cell_angle_gamma                 90.11202
_cell_volume                      39825.9699136

loop_
_atom_site_label
_atom_site_type_symbol
_atom_type_description
_atom_site_fract_x
_atom_site_fract_y
_atom_site_fract_z
_atom_type_partial_charge
C1    C     C_R   0.919405 0.499965 0.999992 0.891514
C2    C     C_R   0.497864 0.228137 0.967871 0.090846
C3    C     C_R   0.514286 0.965239 0.840218 0.137997
C4    C     C_R   0.035181 0.485201 0.159621 0.138187
C5    C     C_R   0.513279 0.035943 0.159563 0.137362
C6    C     C_R   0.964811 0.514818 0.159621 0.137913
C7    C     C_R   0.486829 0.964197 0.159545 0.138678
C8    C     C_R   0.464083 0.986646 0.340449 0.137355
C9    C     C_R   0.987078 0.536105 0.340498 0.137168
C10   C     C_R   0.535804 0.013153 0.340441 0.138688
C11   C     C_R   0.013043 0.464287 0.340406 0.138777
C12   C     C_R   0.534798 0.985774 0.659751 0.138010
C13   C     C_R   0.228063 0.508639 0.968876 0.089908
C14   C     C_R   0.013356 0.535950 0.659519 0.138761
C15   C     C_R   0.464228 0.014900 0.659475 0.137965
C16   C     C_R   0.986709 0.464274 0.659584 0.137381
C17   C     C_R   0.000151 0.500331 0.822574 -0.098460
C18   C     C_R   0.499643 0.000607 0.822544 -0.098428
C19   C     C_R   0.999992 0.500022 0.177474 -0.098387
C20   C     C_R   0.500216 0.000010 0.177422 -0.098456
C21   C     C_R   0.500001 0.999741 0.322576 -0.098458
C22   C     C_R   0.999902 0.500159 0.322594 -0.098603
C23   C     C_R   0.499444 0.000440 0.677458 -0.098428
C24   C     C_R   0.500668 0.771844 0.968123 0.091261
C25   C     C_R   0.999897 0.500197 0.677420 -0.098576
C26   C     C_R   0.000179 0.499926 0.894845 -0.147405
C27   C     C_R   0.499957 0.000266 0.894812 -0.149339
C28   C     C_R   0.000019 0.500013 0.105194 -0.149620
C29   C     C_R   0.499931 0.000119 0.105152 -0.147336
C30   C     C_R   0.499893 0.000031 0.394846 -0.147383
C31   C     C_R   0.000099 0.500155 0.394852 -0.147347
C32   C     C_R   0.499752 0.000083 0.605189 -0.149366
C33   C     C_R   0.000076 0.499980 0.605152 -0.147535
C34   C     C_R   0.999950 0.500258 0.715126 0.379274
C35   C     C_R   0.228140 0.497773 0.032099 0.090908
C36   C     C_R   0.499322 0.000656 0.715140 0.380041
C37   C     C_R   0.999863 0.500175 0.284899 0.379626
C38   C     C_R   0.500018 0.999739 0.284870 0.379273
C39   C     C_R   0.500235 0.999984 0.215128 0.379277
C40   C     C_R   0.999971 0.500049 0.215167 0.379712
C41   C     C_R   0.499424 0.000737 0.784861 0.380044
C42   C     C_R   0.000167 0.500415 0.784868 0.379312
C43   C     C_R   0.728011 0.501945 0.031665 0.115289
C44   C     C_R   0.507535 0.271919 0.031091 0.115553
C45   C     C_R   0.271985 0.496736 0.031714 0.115698
C46   C     C_R   0.508676 0.228070 0.031103 0.089972
C47   C     C_R   0.498877 0.727977 0.031746 0.115840
C48   C     C_R   0.271909 0.507491 0.968893 0.115548
C49   C     C_R   0.496856 0.271984 0.968259 0.115853
C50   C     C_R   0.727967 0.498520 0.968280 0.115731
C51   C     C_R   0.501554 0.727995 0.968333 0.115301
C52   C     C_R   0.227989 0.003161 0.531710 0.115882
C53   C     C_R   0.002324 0.772082 0.531757 0.116204
C54   C     C_R   0.771974 0.998305 0.531690 0.115249
C55   C     C_R   0.993008 0.228154 0.531242 0.115594
C56   C     C_R   0.772050 0.001299 0.468290 0.115849
C57   C     C_R   0.771858 0.501066 0.031881 0.091229
C58   C     C_R   0.993416 0.771827 0.468736 0.115586
C59   C     C_R   0.228111 0.992490 0.468872 0.115508
C60   C     C_R   0.001930 0.227920 0.468221 0.116294
C61   C     C_R   0.706586 0.500224 0.999983 -0.034309
C62   C     C_R   0.501665 0.293361 0.999765 -0.033824
C63   C     C_R   0.293357 0.501585 0.000215 -0.033778
C64   C     C_R   0.500217 0.706584 0.000029 -0.034341
C65   C     C_R   0.206640 0.998356 0.500199 -0.033800
C66   C     C_R   0.998370 0.793364 0.500152 -0.033971
C67   C     C_R   0.793415 0.999803 0.500002 -0.034323
C68   C     C_R   0.499587 0.771829 0.031998 0.091079
C69   C     C_R   0.998024 0.206629 0.499834 -0.033969
C70   C     C_3   0.924745 0.474221 0.896385 -0.382119
C71   C     C_3   0.922846 0.427071 0.901501 -0.764626
C72   C     C_3   0.471791 0.074761 0.896723 -0.380737
C73   C     C_3   0.424619 0.075333 0.901907 -0.762335
C74   C     C_3   0.076213 0.523791 0.896518 -0.384799
C75   C     C_3   0.079793 0.570668 0.902607 -0.759811
C76   C     C_3   0.527906 0.925687 0.896003 -0.381991
C77   C     C_3   0.575097 0.924846 0.900991 -0.761433
C78   C     C_3   0.074372 0.471463 0.103635 -0.380757
C79   C     C_R   0.271958 0.991347 0.468863 0.090036
C80   C     C_3   0.074759 0.424280 0.098476 -0.761936
C81   C     C_3   0.523735 0.076177 0.103585 -0.384898
C82   C     C_3   0.570611 0.079778 0.097533 -0.759866
C83   C     C_3   0.925592 0.528348 0.103656 -0.381454
C84   C     C_3   0.924965 0.575526 0.098532 -0.760890
C85   C     C_3   0.474330 0.924648 0.103502 -0.382086
C86   C     C_3   0.427193 0.922673 0.098330 -0.764548
C87   C     C_3   0.423859 0.976164 0.396442 -0.384864
C88   C     C_3   0.420296 0.929283 0.402478 -0.759899
C89   C     C_3   0.976747 0.576265 0.396536 -0.385424
C90   C     C_R   0.992337 0.727972 0.468733 0.090089
C91   C     C_3   0.929879 0.579947 0.402514 -0.759914
C92   C     C_3   0.575341 0.025690 0.396469 -0.382062
C93   C     C_3   0.577288 0.072834 0.401654 -0.764504
C94   C     C_3   0.025493 0.424705 0.396399 -0.381603
C95   C     C_3   0.072629 0.422878 0.401567 -0.765591
C96   C     C_3   0.574311 0.972091 0.603931 -0.381941
C97   C     C_3   0.575117 0.924891 0.598943 -0.761424
C98   C     C_3   0.025957 0.575363 0.603440 -0.381402
C99   C     C_3   0.073092 0.577108 0.598182 -0.765100
C100  C     C_3   0.425265 0.028261 0.603344 -0.380745
C101  C     C_R   0.728201 0.000574 0.468030 0.091004
C102  C     C_3   0.424691 0.075432 0.598162 -0.762372
C103  C     C_3   0.976136 0.423958 0.603632 -0.385181
C104  C     C_3   0.929252 0.420418 0.597611 -0.759720
C105  C     C_3   0.795689 0.501745 0.065945 -0.368699
C106  C     C_3   0.806052 0.546292 0.076727 -0.797091
C107  C     C_3   0.515664 0.204184 0.064635 -0.372429
C108  C     C_3   0.474361 0.193571 0.082098 -0.785400
C109  C     C_3   0.204359 0.493140 0.065981 -0.368289
C110  C     C_3   0.194348 0.447532 0.073363 -0.794911
C111  C     C_3   0.499166 0.795597 0.066103 -0.368854
C112  C     C_R   0.500066 0.080592 0.999982 0.891799
C113  C     C_R   0.001003 0.271766 0.467816 0.090686
C114  C     C_3   0.454654 0.804816 0.077550 -0.796276
C115  C     C_3   0.204172 0.515650 0.935346 -0.372453
C116  C     C_3   0.193559 0.474355 0.917852 -0.785340
C117  C     C_3   0.493208 0.204358 0.933984 -0.368389
C118  C     C_3   0.447574 0.194574 0.926512 -0.794607
C119  C     C_3   0.795572 0.498515 0.933922 -0.368701
C120  C     C_3   0.804930 0.453905 0.922812 -0.796659
C121  C     C_3   0.500937 0.795660 0.934053 -0.368620
C122  C     C_3   0.545351 0.806009 0.922905 -0.797111
C123  C     C_3   0.295581 0.006786 0.565995 -0.368322
C124  C     C_R   0.728127 0.999188 0.531899 0.091328
C125  C     C_3   0.305400 0.052416 0.573489 -0.794709
C126  C     C_3   0.005319 0.704578 0.566136 -0.368574
C127  C     C_3   0.050830 0.695616 0.574603 -0.793963
C128  C     C_3   0.704281 0.998753 0.565965 -0.368582
C129  C     C_3   0.693928 0.954283 0.576940 -0.797326
C130  C     C_3   0.985698 0.295986 0.564850 -0.372544
C131  C     C_3   0.027411 0.306751 0.581557 -0.785604
C132  C     C_3   0.704464 0.001128 0.433925 -0.368737
C133  C     C_3   0.695171 0.045683 0.422657 -0.796382
C134  C     C_3   0.986244 0.703975 0.435102 -0.372510
C135  C     C_R   0.001438 0.728231 0.532151 0.090734
C136  C     C_3   0.027998 0.693430 0.418432 -0.785440
C137  C     C_3   0.295873 0.984367 0.435329 -0.372443
C138  C     C_3   0.306503 0.025677 0.417897 -0.785488
C139  C     C_3   0.004870 0.295420 0.433823 -0.368513
C140  C     C_3   0.050382 0.304460 0.425281 -0.794031
C141  C     C_R   0.271833 0.002147 0.532102 0.090795
C142  C     C_R   0.991871 0.272004 0.531232 0.090179
C143  C     C_R   0.793415 0.500089 0.999941 0.030168
C144  C     C_R   0.502940 0.206537 0.999497 0.028908
C145  C     C_R   0.206536 0.502889 0.000476 0.028989
C146  C     C_R   0.500060 0.793414 0.000071 0.030056
C147  C     C_R   0.293462 0.997074 0.500476 0.028914
C148  C     C_R   0.080592 0.500066 0.000023 0.891985
C149  C     C_R   0.997270 0.706534 0.500452 0.028706
C150  C     C_R   0.706586 0.999946 0.499952 0.030101
C151  C     C_R   0.996825 0.293455 0.499511 0.028513
C152  C     C_1   0.662063 0.500164 0.000000 0.082160
C153  C     C_1   0.500817 0.337895 0.999911 0.082194
C154  C     C_1   0.337893 0.500760 0.000075 0.082234
C155  C     C_1   0.500164 0.662062 0.000014 0.082108
C156  C     C_1   0.162105 0.999196 0.500052 0.082258
C157  C     C_1   0.999180 0.837899 0.500004 0.082092
C158  C     C_1   0.837938 0.999851 0.500021 0.082143
C159  C     C_R   0.499964 0.919406 0.000002 0.891659
C160  C     C_1   0.998966 0.162099 0.499997 0.082140
C161  C     C_1   0.838068 0.499957 0.999932 -0.019774
C162  C     C_1   0.501425 0.161908 0.999641 -0.018414
C163  C     C_1   0.161907 0.501406 0.000334 -0.018371
C164  C     C_1   0.499939 0.838067 0.000077 -0.019891
C165  C     C_1   0.338091 0.998580 0.500340 -0.018400
C166  C     C_1   0.998832 0.661911 0.500358 -0.018656
C167  C     C_1   0.661933 0.000061 0.499941 -0.019814
C168  C     C_1   0.998473 0.338084 0.499609 -0.018597
C169  C     C_1   0.875300 0.499911 0.999955 -0.200478
C170  C     C_R   0.419407 0.999934 0.500019 0.891825
C171  C     C_1   0.500438 0.124690 0.999808 -0.201141
C172  C     C_1   0.124689 0.500435 0.000179 -0.201177
C173  C     C_1   0.499904 0.875301 0.000048 -0.200371
C174  C     C_1   0.375309 0.999563 0.500182 -0.201158
C175  C     C_1   0.999781 0.624693 0.500207 -0.200964
C176  C     C_1   0.624700 0.000095 0.499961 -0.200401
C177  C     C_1   0.999537 0.375303 0.499773 -0.200961
C178  C     C_1   0.624788 0.500093 1.000000 -0.105275
C179  C     C_1   0.500314 0.375179 0.999973 -0.105338
C180  C     C_1   0.375177 0.500283 0.000015 -0.105381
C181  C     C_R   0.000007 0.580593 0.500033 0.892292
C182  C     C_1   0.500094 0.624787 0.000014 -0.105264
C183  C     C_1   0.124822 0.999693 0.499997 -0.105309
C184  C     C_1   0.999672 0.875183 0.499968 -0.105395
C185  C     C_1   0.875212 0.999914 0.500016 -0.105335
C186  C     C_1   0.999569 0.124817 0.500034 -0.105313
C187  C     C_R   0.499960 0.419366 0.999993 0.888655
C188  C     C_R   0.419365 0.499955 0.000002 0.888615
C189  C     C_R   0.500019 0.580621 0.000006 0.888730
C190  C     C_R   0.580622 0.500017 0.999999 0.888704
C191  C     C_R   0.000026 0.919368 0.499990 0.888657
C192  C     C_R   0.580596 0.000035 0.499997 0.891624
C193  C     C_R   0.919378 0.999982 0.500004 0.888729
C194  C     C_R   0.000025 0.080633 0.500011 0.888602
C195  C     C_R   0.080634 0.000041 0.499997 0.888636
C196  C     C_R   0.000102 0.499982 0.932589 0.899700
C197  C     C_R   0.499997 0.000047 0.932577 0.897466
C198  C     C_R   0.000021 0.500006 0.067425 0.897483
C199  C     C_R   0.499987 0.000098 0.067409 0.899686
C200  C     C_R   0.499907 0.000001 0.432590 0.899714
C201  C     C_R   0.000017 0.500090 0.432592 0.899666
C202  C     C_R   0.499953 0.000015 0.567423 0.897496
C203  C     C_R   0.999932 0.419406 0.499964 0.892458
C204  C     C_R   0.000010 0.499928 0.567409 0.899701
C205  C     C_R   0.963921 0.487105 0.876832 0.073228
C206  C     C_R   0.485647 0.036072 0.876995 0.073668
C207  C     C_R   0.036546 0.512599 0.876919 0.074057
C208  C     C_R   0.514105 0.964637 0.876652 0.073835
C209  C     C_R   0.035633 0.485541 0.123182 0.073554
C210  C     C_R   0.512546 0.036478 0.123132 0.073993
C211  C     C_R   0.964384 0.514451 0.123185 0.073940
C212  C     C_R   0.487125 0.963824 0.123111 0.073293
C213  C     C_R   0.463548 0.987381 0.376881 0.074013
C214  C     C_R   0.771816 0.499256 0.968021 0.091088
C215  C     C_R   0.987738 0.536575 0.376929 0.074180
C216  C     C_R   0.536177 0.012862 0.376875 0.073271
C217  C     C_R   0.012751 0.463869 0.376839 0.073014
C218  C     C_R   0.535382 0.985932 0.623317 0.073824
C219  C     C_R   0.013017 0.536270 0.623085 0.073088
C220  C     C_R   0.463962 0.014416 0.623038 0.073669
C221  C     C_R   0.987398 0.463678 0.623154 0.074103
C222  C     C_R   0.964335 0.486874 0.840397 0.138698
C223  C     C_R   0.485186 0.035823 0.840558 0.137968
C224  C     C_R   0.036053 0.513385 0.840488 0.137296
H1    H     H_    0.921493 0.410741 0.876216 0.277076
H2    H     H_    0.481839 0.103476 0.883101 0.226010
H3    H     H_    0.516647 0.825358 0.063953 0.202261
H4    H     H_    0.222401 0.456660 0.912027 0.283429
H5    H     H_    0.173185 0.455271 0.934853 0.254211
H6    H     H_    0.176852 0.480386 0.893204 0.251006
H7    H     H_    0.174967 0.533185 0.940194 0.201674
H8    H     H_    0.221926 0.535618 0.917174 0.239285
H9    H     H_    0.434381 0.174634 0.947302 0.253704
H10   H     H_    0.429188 0.223747 0.924776 0.283987
H11   H     H_    0.445033 0.177715 0.901495 0.257069
H12   H     H_    0.506799 0.221938 0.912023 0.238843
H13   H     H_    0.080463 0.587782 0.877677 0.277842
H14   H     H_    0.511106 0.174804 0.934579 0.200897
H15   H     H_    0.824420 0.438165 0.942602 0.252658
H16   H     H_    0.775571 0.436065 0.919348 0.284446
H17   H     H_    0.822066 0.454155 0.897847 0.258345
H18   H     H_    0.778122 0.514671 0.913161 0.239040
H19   H     H_    0.825274 0.516118 0.935944 0.202216
H20   H     H_    0.560716 0.826035 0.942589 0.253056
H21   H     H_    0.563755 0.777042 0.919566 0.284229
H22   H     H_    0.544759 0.822957 0.897866 0.257344
H23   H     H_    0.485075 0.777923 0.913258 0.239059
H24   H     H_    0.053148 0.582119 0.918178 0.269903
H25   H     H_    0.482791 0.824959 0.936167 0.202307
H26   H     H_    0.325369 0.065590 0.552708 0.253722
H27   H     H_    0.276243 0.070829 0.575233 0.283960
H28   H     H_    0.322239 0.054942 0.598509 0.257025
H29   H     H_    0.277970 0.993215 0.587949 0.238853
H30   H     H_    0.325116 0.988858 0.565395 0.200931
H31   H     H_    0.064968 0.676011 0.554044 0.253212
H32   H     H_    0.068736 0.725110 0.576829 0.284208
H33   H     H_    0.052807 0.678724 0.599622 0.257623
H34   H     H_    0.990785 0.721966 0.587769 0.238743
H35   H     H_    0.109021 0.577503 0.916896 0.236091
H36   H     H_    0.987871 0.674702 0.565184 0.201134
H37   H     H_    0.673915 0.939014 0.557201 0.253103
H38   H     H_    0.722890 0.935863 0.580202 0.284208
H39   H     H_    0.676967 0.954754 0.601984 0.257420
H40   H     H_    0.721997 0.014516 0.586821 0.239102
H41   H     H_    0.674985 0.016907 0.563920 0.202265
H42   H     H_    0.045258 0.277957 0.587198 0.283354
H43   H     H_    0.046061 0.327005 0.564131 0.254492
H44   H     H_    0.021984 0.323651 0.606226 0.250778
H45   H     H_    0.967973 0.325138 0.560276 0.201694
H46   H     H_    0.077775 0.507613 0.921863 0.186926
H47   H     H_    0.966254 0.278250 0.583422 0.239348
H48   H     H_    0.675717 0.061581 0.442403 0.252576
H49   H     H_    0.724557 0.063455 0.419111 0.284453
H50   H     H_    0.678024 0.045302 0.397702 0.258392
H51   H     H_    0.721905 0.984816 0.413224 0.239060
H52   H     H_    0.674737 0.983577 0.436005 0.202255
H53   H     H_    0.045839 0.722316 0.412846 0.283344
H54   H     H_    0.046623 0.673232 0.435858 0.254438
H55   H     H_    0.022637 0.676551 0.393736 0.250928
H56   H     H_    0.968544 0.674734 0.439648 0.201658
H57   H     H_    0.104076 0.512550 0.882389 0.226784
H58   H     H_    0.966813 0.721621 0.416517 0.239454
H59   H     H_    0.277667 0.043376 0.412084 0.283408
H60   H     H_    0.326858 0.044749 0.434934 0.254240
H61   H     H_    0.323238 0.019669 0.393249 0.250975
H62   H     H_    0.325073 0.966825 0.440159 0.201678
H63   H     H_    0.278132 0.964419 0.417123 0.239256
H64   H     H_    0.064596 0.324102 0.445812 0.253188
H65   H     H_    0.068229 0.275002 0.423039 0.284253
H66   H     H_    0.052345 0.321339 0.400251 0.257601
H67   H     H_    0.990251 0.277994 0.412221 0.238670
H68   H     H_    0.591374 0.924459 0.875667 0.276991
H69   H     H_    0.987492 0.325267 0.434796 0.201147
H70   H     H_    0.585678 0.952507 0.915807 0.270325
H71   H     H_    0.583967 0.896460 0.915595 0.238949
H72   H     H_    0.512701 0.923263 0.921721 0.188082
H73   H     H_    0.950555 0.415950 0.915899 0.270755
H74   H     H_    0.517647 0.897198 0.882154 0.225612
H75   H     H_    0.075558 0.407901 0.123737 0.276519
H76   H     H_    0.046727 0.413937 0.084047 0.270663
H77   H     H_    0.102763 0.415261 0.083413 0.238674
H78   H     H_    0.076786 0.486761 0.077963 0.187574
H79   H     H_    0.103047 0.481389 0.117384 0.226075
H80   H     H_    0.587706 0.080417 0.122477 0.277887
H81   H     H_    0.582076 0.053156 0.081937 0.269873
H82   H     H_    0.577446 0.109030 0.083285 0.236125
H83   H     H_    0.507574 0.077766 0.078231 0.186914
H84   H     H_    0.894605 0.418818 0.916578 0.239014
H85   H     H_    0.512478 0.104021 0.117738 0.226834
H86   H     H_    0.924465 0.591924 0.123804 0.276823
H87   H     H_    0.952760 0.585950 0.083829 0.270419
H88   H     H_    0.896715 0.584437 0.083762 0.238825
H89   H     H_    0.923226 0.513036 0.077975 0.188095
H90   H     H_    0.896997 0.518264 0.117430 0.225400
H91   H     H_    0.410832 0.921278 0.123593 0.277058
H92   H     H_    0.416044 0.950372 0.083935 0.270778
H93   H     H_    0.419009 0.894423 0.083226 0.238980
H94   H     H_    0.489734 0.922838 0.077835 0.187745
H95   H     H_    0.922881 0.489590 0.922068 0.187742
H96   H     H_    0.485127 0.896316 0.117208 0.226269
H97   H     H_    0.419670 0.912181 0.377528 0.277861
H98   H     H_    0.446927 0.917842 0.418055 0.269880
H99   H     H_    0.391053 0.922427 0.416741 0.236122
H100  H     H_    0.422255 0.992331 0.421802 0.186927
H101  H     H_    0.396008 0.987395 0.382307 0.226814
H102  H     H_    0.918221 0.553309 0.418027 0.269947
H103  H     H_    0.923178 0.609178 0.416821 0.236127
H104  H     H_    0.912856 0.580677 0.377539 0.277918
H105  H     H_    0.992853 0.577774 0.421921 0.186960
H106  H     H_    0.896408 0.484983 0.882663 0.226381
H107  H     H_    0.988206 0.604116 0.382463 0.226988
H108  H     H_    0.578684 0.089188 0.376395 0.277061
H109  H     H_    0.549578 0.083975 0.416057 0.270785
H110  H     H_    0.605524 0.081040 0.416754 0.238983
H111  H     H_    0.577157 0.010296 0.422131 0.187734
H112  H     H_    0.603681 0.014907 0.382747 0.226317
H113  H     H_    0.083865 0.450800 0.415696 0.270997
H114  H     H_    0.080760 0.394871 0.416935 0.238973
H115  H     H_    0.088951 0.421140 0.376301 0.276780
H116  H     H_    0.010089 0.422860 0.422066 0.187218
H117  H     H_    0.408226 0.076470 0.876657 0.276424
H118  H     H_    0.014688 0.396321 0.382682 0.226941
H119  H     H_    0.575535 0.908635 0.624267 0.276961
H120  H     H_    0.547430 0.914312 0.584172 0.270361
H121  H     H_    0.603474 0.915992 0.584294 0.238939
H122  H     H_    0.576729 0.987275 0.578211 0.188099
H123  H     H_    0.602813 0.982344 0.617753 0.225606
H124  H     H_    0.089490 0.578831 0.623413 0.276758
H125  H     H_    0.084144 0.549164 0.584042 0.271003
H126  H     H_    0.081339 0.605099 0.582791 0.238921
H127  H     H_    0.010506 0.577182 0.577799 0.187223
H128  H     H_    0.414151 0.047205 0.916137 0.270752
H129  H     H_    0.015339 0.603796 0.617132 0.226790
H130  H     H_    0.423588 0.091845 0.623413 0.276446
H131  H     H_    0.452799 0.085887 0.583892 0.270724
H132  H     H_    0.396782 0.084291 0.582932 0.238689
H133  H     H_    0.423075 0.012905 0.577673 0.187563
H134  H     H_    0.396559 0.018223 0.616993 0.226048
H135  H     H_    0.912168 0.419841 0.622565 0.277887
H136  H     H_    0.917818 0.447034 0.582015 0.269911
H137  H     H_    0.922368 0.391154 0.583373 0.236234
H138  H     H_    0.992280 0.422300 0.578268 0.186873
H139  H     H_    0.415750 0.103224 0.917178 0.238683
H140  H     H_    0.987360 0.396116 0.617786 0.226964
H141  H     H_    0.826090 0.561403 0.056927 0.253072
H142  H     H_    0.777094 0.564750 0.079897 0.284222
H143  H     H_    0.822987 0.546004 0.101778 0.257526
H144  H     H_    0.777958 0.486145 0.086870 0.239157
H145  H     H_    0.824980 0.483566 0.063979 0.202236
H146  H     H_    0.456667 0.222415 0.087921 0.283424
H147  H     H_    0.455286 0.173200 0.065077 0.254227
H148  H     H_    0.480375 0.176856 0.106743 0.250970
H149  H     H_    0.533203 0.174977 0.059796 0.201674
H150  H     H_    0.487127 0.076937 0.922396 0.187574
H151  H     H_    0.535616 0.221942 0.082825 0.239261
H152  H     H_    0.174312 0.434490 0.052565 0.253884
H153  H     H_    0.223431 0.428996 0.075046 0.283908
H154  H     H_    0.177506 0.445015 0.098385 0.256678
H155  H     H_    0.222007 0.506581 0.087974 0.238789
H156  H     H_    0.174900 0.511196 0.065417 0.200923
H157  H     H_    0.438616 0.824209 0.057859 0.252536
H158  H     H_    0.436959 0.775399 0.081183 0.284459
H159  H     H_    0.455127 0.822002 0.102495 0.258415
H160  H     H_    0.515616 0.778201 0.086737 0.239034
I1    I     I_    0.911420 0.464673 0.811556 -0.305502
I2    I     I_    0.965385 0.589202 0.311778 -0.302875
I3    I     I_    0.588764 0.035379 0.311671 -0.305561
I4    I     I_    0.034813 0.411297 0.311531 -0.304915
I5    I     I_    0.586807 0.962204 0.688840 -0.304289
I6    I     I_    0.035737 0.588897 0.688236 -0.305244
I7    I     I_    0.411960 0.038666 0.688149 -0.304843
I8    I     I_    0.964366 0.411411 0.688383 -0.303476
I9    I     I_    0.693015 0.506657 0.078913 -0.321434
I10   I     I_    0.513224 0.306847 0.078311 -0.322043
I11   I     I_    0.307013 0.486553 0.078323 -0.324045
I12   I     I_    0.461454 0.088117 0.811932 -0.304933
I13   I     I_    0.495140 0.692926 0.079022 -0.323362
I14   I     I_    0.306825 0.513224 0.921681 -0.321965
I15   I     I_    0.486805 0.307010 0.921633 -0.323817
I16   I     I_    0.692901 0.494177 0.921040 -0.323429
I17   I     I_    0.505697 0.692976 0.921048 -0.321699
I18   I     I_    0.192923 0.013220 0.578338 -0.323225
I19   I     I_    0.010816 0.807267 0.578566 -0.323914
I20   I     I_    0.806947 0.993929 0.578960 -0.322431
I21   I     I_    0.988608 0.193351 0.578591 -0.321877
I22   I     I_    0.807141 0.005307 0.421034 -0.322545
I23   I     I_    0.089041 0.535670 0.811806 -0.303968
I24   I     I_    0.989011 0.806629 0.421396 -0.321456
I25   I     I_    0.193229 0.986811 0.421644 -0.322797
I26   I     I_    0.010406 0.192761 0.421410 -0.324128
I27   I     I_    0.537854 0.913232 0.811082 -0.304219
I28   I     I_    0.087111 0.461049 0.188471 -0.305045
I29   I     I_    0.535513 0.088908 0.188325 -0.303805
I30   I     I_    0.912830 0.538947 0.188467 -0.304919
I31   I     I_    0.464635 0.911219 0.188297 -0.305767
I32   I     I_    0.411141 0.964363 0.311704 -0.303964
N1    N     N_R   0.974444 0.526224 0.767225 -0.117369
N2    N     N_R   0.026322 0.525314 0.267232 -0.118301
N3    N     N_R   0.525785 0.973996 0.267177 -0.117212
N4    N     N_R   0.973467 0.474961 0.267229 -0.117644
N5    N     N_R   0.525101 0.026547 0.732764 -0.118186
N6    N     N_R   0.025799 0.474579 0.732771 -0.118285
N7    N     N_R   0.473564 0.974837 0.732840 -0.117929
N8    N     N_R   0.974227 0.526038 0.732827 -0.117299
N9    N     N_R   0.473522 0.974970 0.767237 -0.118196
N10   N     N_R   0.025779 0.474530 0.767166 -0.118188
N11   N     N_R   0.525244 0.026494 0.767161 -0.117920
N12   N     N_R   0.973618 0.474797 0.232832 -0.117763
N13   N     N_R   0.526002 0.974227 0.232780 -0.117227
N14   N     N_R   0.026269 0.525364 0.232835 -0.118036
N15   N     N_R   0.474351 0.025605 0.232822 -0.118238
N16   N     N_R   0.474373 0.025613 0.267217 -0.118253
O1    O     O_R   0.939070 0.534360 0.999910 -0.611862
O2    O     O_R   0.034360 0.560930 0.499910 -0.611827
O3    O     O_R   0.560930 0.965640 0.499910 -0.611810
O4    O     O_R   0.965640 0.439070 0.499910 -0.612396
O5    O     O_R   0.560930 0.034360 0.500090 -0.611388
O6    O     O_R   0.965640 0.560930 0.500090 -0.612228
O7    O     O_R   0.439070 0.965640 0.500090 -0.612236
O8    O     O_R   0.034360 0.439070 0.500090 -0.611631
O9    O     O_R   0.000050 0.534360 0.948990 -0.617905
O10   O     O_R   0.534360 0.999950 0.948990 -0.617514
O11   O     O_R   0.999950 0.465640 0.948990 -0.618343
O12   O     O_R   0.534360 0.060930 0.999910 -0.612233
O13   O     O_R   0.465640 0.000050 0.948990 -0.617675
O14   O     O_R   0.999950 0.534360 0.051010 -0.617575
O15   O     O_R   0.465640 0.999950 0.051010 -0.618359
O16   O     O_R   0.000050 0.465640 0.051010 -0.617649
O17   O     O_R   0.534360 0.000050 0.051010 -0.617917
O18   O     O_R   0.500050 0.034360 0.448990 -0.618349
O19   O     O_R   0.034360 0.499950 0.448990 -0.618413
O20   O     O_R   0.499950 0.965640 0.448990 -0.617927
O21   O     O_R   0.965640 0.500050 0.448990 -0.617857
O22   O     O_R   0.499950 0.034360 0.551010 -0.617682
O23   O     O_R   0.060930 0.465640 0.999910 -0.612105
O24   O     O_R   0.965640 0.499950 0.551010 -0.617894
O25   O     O_R   0.500050 0.965640 0.551010 -0.617513
O26   O     O_R   0.034360 0.500050 0.551010 -0.618426
O27   O     O_R   0.500080 0.438950 0.971150 -0.601612
O28   O     O_R   0.438950 0.499920 0.971150 -0.601090
O29   O     O_R   0.499920 0.561050 0.971150 -0.601088
O30   O     O_R   0.561050 0.500080 0.971150 -0.601555
O31   O     O_R   0.499920 0.438950 0.028850 -0.601111
O32   O     O_R   0.561050 0.499920 0.028850 -0.601077
O33   O     O_R   0.500080 0.561050 0.028850 -0.601548
O34   O     O_R   0.465640 0.939070 0.999910 -0.611385
O35   O     O_R   0.438950 0.500080 0.028850 -0.601635
O36   O     O_R   0.000080 0.938950 0.471150 -0.601167
O37   O     O_R   0.938950 0.999920 0.471150 -0.601251
O38   O     O_R   0.999920 0.061050 0.471150 -0.601459
O39   O     O_R   0.061050 0.000080 0.471150 -0.601386
O40   O     O_R   0.999920 0.938950 0.528850 -0.601465
O41   O     O_R   0.061050 0.999920 0.528850 -0.601327
O42   O     O_R   0.000080 0.061050 0.528850 -0.601208
O43   O     O_R   0.938950 0.000080 0.528850 -0.601357
O44   O     O_R   0.060930 0.534360 0.000090 -0.612205
O45   O     O_R   0.465640 0.060930 0.000090 -0.612042
O46   O     O_R   0.939070 0.465640 0.000090 -0.611339
O47   O     O_R   0.534360 0.939070 0.000090 -0.611825
O48   O     O_R   0.439070 0.034360 0.499910 -0.612049
Zn1   Zn    Zn3+2 0.000000 0.545910 0.000000 0.968463
Zn2   Zn    Zn3+2 0.500000 0.500000 0.038460 1.063111
Zn3   Zn    Zn3+2 0.000000 1.000000 0.461540 1.063146
Zn4   Zn    Zn3+2 0.000000 0.000000 0.538460 1.063082
Zn5   Zn    Zn3+2 0.545910 0.000000 0.000000 0.968683
Zn6   Zn    Zn3+2 0.000000 0.454090 0.000000 0.967948
Zn7   Zn    Zn3+2 0.454090 0.000000 0.000000 0.967909
Zn8   Zn    Zn3+2 0.500000 0.045910 0.500000 0.967921
Zn9   Zn    Zn3+2 0.045910 0.500000 0.500000 0.967814
Zn10  Zn    Zn3+2 0.500000 0.954090 0.500000 0.968696
Zn11  Zn    Zn3+2 0.954090 0.500000 0.500000 0.969099
Zn12  Zn    Zn3+2 0.500000 0.500000 0.961540 1.063125

loop_
_geom_bond_atom_site_label_1
_geom_bond_atom_site_label_2
_ccdc_geom_bond_type
C83   H90   S    
C126  C127  S    
C113  C151  A    
O24   Zn11  S    
C98   H129  S    
C26   C196  S    
C3    I27   S    
C7    C212  A    
O21   Zn11  S    
C155  C182  T    
C29   C210  A    
C92   H111  S    
C5    C210  A    
C148  O44   A    
C12   C23   A    
C73   H117  S    
O26   Zn9   S    
C116  H4    S    
C37   N4    A    
C38   N3    A    
C56   C101  A    
C65   C156  S    
C90   C149  A    
C90   C134  S    
C131  H43   S    
C137  H63   S    
O5    Zn8   S    
C56   I22   S    
O14   Zn1   S    
C195  O41   A    
C69   C160  S    
C54   I20   S    
C35   C145  A    
C193  O43   A    
C192  O3    A    
C100  H133  S    
C54   C124  A    
C77   H70   S    
C224  I23   S    
C162  C171  T    
C29   C199  S    
C138  H59   S    
C128  H41   S    
C148  O23   A    
C35   C109  S    
C25   C34   S    
C122  H22   S    
C24   C51   A    
C33   C219  A    
C55   C142  A    
C189  O33   A    
C110  H154  S    
C202  O25   A    
C203  O4    A    
C71   H1    S    
C12   C218  A    
C2    C117  S    
C44   C46   A    
C80   H77   S    
C10   C21   A    
C126  H34   S    
O18   Zn8   S    
C136  H55   S    
C47   C64   A    
O10   Zn5   S    
C139  H67   S    
C86   H93   S    
C72   C206  S    
C117  H12   S    
C28   C209  A    
C34   N6    A    
C123  H29   S    
C97   H120  S    
C142  C151  A    
O37   Zn3   S    
C112  O45   A    
C64   C155  S    
C39   N13   A    
C123  C141  S    
C184  C191  S    
C164  C173  T    
C18   C223  A    
C13   C115  S    
O6    Zn11  S    
C82   H81   S    
C102  H131  S    
C79   C137  S    
C188  O35   A    
C73   H139  S    
C72   H150  S    
C129  H38   S    
C35   C45   A    
C158  C185  T    
C187  O27   A    
C53   I19   S    
C68   C146  A    
C43   C61   A    
C29   C212  A    
C170  C174  S    
C108  H146  S    
C16   C25   A    
C78   H78   S    
C104  H135  S    
C49   C62   A    
C116  H6    S    
C1    O1    A    
C197  O10   A    
O29   Zn12  S    
C51   C64   A    
C72   C73   S    
C71   H84   S    
O2    Zn9   S    
C139  C140  S    
C103  H140  S    
N2    N14   A    
C195  O39   A    
C191  O36   A    
C181  O2    A    
C130  C131  S    
C103  C221  S    
C30   C213  A    
C223  I12   S    
C107  H151  S    
C24   C121  S    
O44   Zn1   S    
C120  H17   S    
C200  O18   A    
C204  O26   A    
O8    Zn9   S    
N1    N8    A    
C141  C147  A    
C120  H15   S    
C101  C132  S    
C23   C36   S    
C110  H152  S    
C88   H97   S    
C143  C161  S    
C32   C218  A    
C52   C65   A    
O47   Zn5   S    
C132  H52   S    
C30   C200  S    
C2    C144  A    
C101  C150  A    
C53   C135  A    
C13   C145  A    
C91   H103  S    
C128  C129  S    
C100  H134  S    
C74   H46   S    
C86   H91   S    
C5    C20   A    
C85   C86   S    
C9    C215  A    
C28   C211  A    
C6    C19   A    
C127  H31   S    
C190  O32   A    
C4    I28   S    
O23   Zn6   S    
C5    I29   S    
O48   Zn8   S    
C106  H142  S    
O22   Zn8   S    
C94   H118  S    
C222  I1    S    
C31   C215  A    
C115  C116  S    
C40   N12   A    
O13   Zn7   S    
C204  O24   A    
C197  O13   A    
C92   C93   S    
C123  H30   S    
C147  C165  S    
C118  H11   S    
C21   C38   S    
N15   N16   A    
O4    Zn11  S    
C194  O38   A    
O34   Zn7   S    
C113  C139  S    
C109  H156  S    
C157  C184  T    
C89   C91   S    
C167  C176  T    
C175  C181  S    
C161  C169  T    
C98   H127  S    
C108  H148  S    
C140  H65   S    
C96   C97   S    
C114  H159  S    
O11   Zn6   S    
C49   I15   S    
O42   Zn4   S    
C82   H80   S    
C196  O9    A    
C43   I9    S    
C103  H138  S    
C74   C207  S    
C201  O19   A    
C133  H49   S    
C125  H27   S    
C93   H108  S    
C46   C144  A    
C6    C211  A    
C145  C163  S    
C73   H128  S    
C165  C174  T    
C9    I2    S    
C95   H114  S    
C146  C164  S    
C107  H149  S    
C94   C217  S    
C4    C209  A    
C200  O20   A    
C136  H54   S    
C71   H73   S    
C53   C66   A    
C170  O7    A    
C89   H105  S    
C83   C84   S    
C102  H130  S    
C127  H33   S    
C59   I25   S    
C42   N1    A    
C194  O42   A    
C55   C69   A    
C148  C172  S    
C88   H99   S    
C115  H8    S    
C32   C220  A    
C159  O34   A    
C75   H35   S    
C98   C99   S    
C15   I7    S    
C51   I17   S    
C47   C68   A    
C45   I11   S    
C81   H83   S    
C10   I3    S    
C83   H89   S    
C42   N10   A    
C186  C194  S    
C70   H106  S    
C94   H116  S    
C92   H112  S    
C52   C141  A    
C62   C153  S    
C134  H56   S    
C198  O16   A    
O27   Zn12  S    
O28   Zn12  S    
C117  C118  S    
C59   C65   A    
C130  H47   S    
C118  H9    S    
C10   C216  A    
O25   Zn10  S    
C60   C69   A    
C58   I24   S    
C32   C202  S    
C130  C142  S    
C97   H121  S    
C19   C40   S    
C87   H101  S    
C30   C216  A    
C76   C208  S    
C100  C220  S    
C119  C214  S    
C138  H60   S    
C50   C61   A    
C14   I6    S    
C84   H87   S    
C196  O11   A    
C33   C221  A    
C87   C88   S    
C153  C179  T    
C154  C180  T    
C191  O40   A    
C96   H123  S    
C26   C207  A    
C27   C197  S    
C77   H68   S    
C99   H126  S    
C48   I14   S    
N7    N9    A    
C70   C205  S    
C138  H61   S    
C166  C175  T    
C134  H58   S    
C8    I32   S    
C12   I5    S    
C178  C190  S    
C129  H37   S    
C123  C125  S    
C179  C187  S    
C168  C177  T    
C205  C222  A    
C27   C208  A    
C97   H119  S    
C17   C42   S    
C52   I18   S    
C180  C188  S    
C80   H75   S    
O36   Zn3   S    
C156  C183  T    
C112  O12   A    
C183  C195  S    
C177  C203  S    
C70   C71   S    
C160  C186  T    
O43   Zn4   S    
C11   C217  A    
C81   H85   S    
C124  C128  S    
C82   H82   S    
C102  H132  S    
C81   C210  S    
C72   H2    S    
C98   C219  S    
C16   C221  A    
C159  O47   A    
C192  O5    A    
C190  O30   A    
C87   H100  S    
C78   H79   S    
C104  H136  S    
C198  O14   A    
C8    C213  A    
C59   C79   A    
C20   C39   S    
C133  H48   S    
C122  H20   S    
C131  H44   S    
C132  H51   S    
C28   C198  S    
C77   H71   S    
C95   H115  S    
C140  H64   S    
C188  O28   A    
C58   C90   A    
C121  C122  S    
C120  H16   S    
C122  H21   S    
C117  H14   S    
C110  H153  S    
C96   H122  S    
C14   C219  A    
C75   H13   S    
C26   C205  A    
C7    I31   S    
O33   Zn2   S    
C203  O8    A    
O12   Zn5   S    
C88   H98   S    
C99   H124  S    
C130  H45   S    
C124  C150  A    
C199  O15   A    
C63   C154  S    
C48   C63   A    
C79   C147  A    
C119  C120  S    
C86   H92   S    
C105  C106  S    
C33   C204  S    
C27   C206  A    
C24   C146  A    
C109  C110  S    
C76   H74   S    
C22   C37   S    
O20   Zn10  S    
C150  C167  S    
C104  H137  S    
C89   H107  S    
C50   I16   S    
C92   C216  S    
C111  C114  S    
C78   C80   S    
C128  H40   S    
C14   C25   A    
C94   C95   S    
C119  H18   S    
C199  O17   A    
O7    Zn10  S    
O1    Zn1   S    
C112  C171  S    
C121  H23   S    
O15   Zn7   S    
C7    C20   A    
C103  C104  S    
C109  H155  S    
C129  H39   S    
C41   N9    A    
C106  H141  S    
C31   C217  A    
C16   I8    S    
N5    N11   A    
C57   C105  S    
C116  H5    S    
C38   N16   A    
O17   Zn5   S    
C84   H86   S    
C81   C82   S    
C131  H42   S    
O16   Zn6   S    
O40   Zn4   S    
C170  O48   A    
C3    C208  A    
C137  H62   S    
C125  H26   S    
C189  O29   A    
C105  H144  S    
C70   H95   S    
C76   H72   S    
C34   N8    A    
C9    C22   A    
C176  C192  S    
C50   C214  A    
C151  C168  S    
C95   H113  S    
C3    C18   A    
O30   Zn12  S    
C44   I10   S    
C17   C222  A    
O32   Zn2   S    
C85   H94   S    
C4    C19   A    
C58   C66   A    
C132  C133  S    
O35   Zn2   S    
C193  O37   A    
C182  C189  S    
C47   I13   S    
C115  H7    S    
C89   C215  S    
C15   C23   A    
O9    Zn1   S    
C207  C224  A    
C40   N14   A    
O45   Zn7   S    
C60   C113  A    
O3    Zn10  S    
C91   H104  S    
C36   N5    A    
C60   I26   S    
C74   C75   S    
C57   C143  A    
C127  H32   S    
C76   C77   S    
C74   H57   S    
C18   C41   S    
C187  O31   A    
C111  H160  S    
C139  H69   S    
C43   C57   A    
C134  C136  S    
C54   C67   A    
C44   C62   A    
C135  C149  A    
C140  H66   S    
C45   C63   A    
C37   N2    A    
C68   C111  S    
C163  C172  T    
C2    C49   A    
C118  H10   S    
O31   Zn2   S    
C121  H25   S    
C206  C223  A    
C107  C108  S    
C11   I4    S    
C100  C102  S    
C8    C21   A    
C87   C213  S    
C181  O6    A    
O38   Zn3   S    
C41   N11   A    
C78   C209  S    
C143  C214  A    
C93   H110  S    
C108  H147  S    
C105  H145  S    
N6    N10   A    
C46   C107  S    
O41   Zn4   S    
C114  H158  S    
N4    N12   A    
N3    N13   A    
C85   C212  S    
C84   H88   S    
C114  H157  S    
C133  H50   S    
C144  C162  S    
C125  H28   S    
C149  C166  S    
C185  C193  S    
C126  C135  S    
C13   C48   A    
C99   H125  S    
C56   C67   A    
C137  C138  S    
C11   C22   A    
C126  H36   S    
C111  H3    S    
C136  H53   S    
C93   H109  S    
C75   H24   S    
C17   C224  A    
C85   H96   S    
C96   C218  S    
C1    C169  S    
C6    I30   S    
C55   I21   S    
C67   C158  S    
O39   Zn3   S    
C106  H143  S    
C66   C157  S    
C152  C178  T    
C61   C152  S    
C31   C201  S    
C80   H76   S    
O46   Zn6   S    
C39   N15   A    
C159  C173  S    
O19   Zn9   S    
C15   C220  A    
C91   H102  S    
C119  H19   S    
C36   N7    A    
C83   C211  S    
C202  O22   A    
C201  O21   A    
C1    O46   A    
