data_mof_unit_48563.cif
_audit_creation_date              2013-03-05T16:15:18-0500
_audit_creation_method            fapswitch 2.2
_symmetry_space_group_name_H-M    P1
_symmetry_Int_Tables_number       1
_space_group_crystal_system       triclinic
_cell_length_a                    27.853096
_cell_length_b                    10.599192
_cell_length_c                    9.423087
_cell_angle_alpha                 90.639594
_cell_angle_beta                  90.272714
_cell_angle_gamma                 90.223322
_cell_volume                      2781.66013592

loop_
_atom_site_label
_atom_site_type_symbol
_atom_site_description
_atom_site_fract_x
_atom_site_fract_y
_atom_site_fract_z
_atom_type_partial_charge
O1    O     O_R   0.500020 0.316850 0.620870 -0.598173
O2    O     O_R   0.499980 0.683150 0.379130 -0.602045
O3    O     O_R   0.500000 0.316860 0.379090 -0.533053
O4    O     O_R   0.500000 0.683140 0.620910 -0.522696
C1    C     C_R   0.500069 0.259450 0.499301 0.852519
C2    C     C_R   0.500140 0.740546 0.500724 0.861000
O5    O     O_R   0.430270 0.500020 0.620880 -0.539166
O6    O     O_R   0.569730 0.499980 0.379120 -0.555274
O7    O     O_R   0.430250 0.500030 0.379090 -0.581384
O8    O     O_R   0.569750 0.499970 0.620910 -0.579400
C3    C     C_R   0.407399 0.499299 0.499780 0.885683
C4    C     C_R   0.592310 0.501032 0.500355 0.913352
Cu1   Cu    Cu3+1 0.500010 0.499990 0.643150 1.026405
Cu2   Cu    Cu3+1 0.499990 0.500010 0.356850 1.015694
C5    C     C_R   0.175600 0.387354 0.528347 0.574731
C6    C     C_R   0.822705 0.610557 0.467071 0.579322
O9    O     O_2   0.198972 0.276021 0.528191 -0.542092
O10   O     O_2   0.798837 0.708543 0.410208 -0.550281
N1    N     N_R   0.200791 0.497694 0.515008 -0.439923
N2    N     N_R   0.797809 0.508401 0.515178 -0.441600
C7    C     C_R   0.177829 0.611806 0.514537 0.609264
C8    C     C_R   0.820782 0.407739 0.574267 0.608375
C9    C     C_R   0.276500 0.544762 0.385430 -0.024102
C10   C     C_R   0.722071 0.423010 0.410886 -0.036312
C11   C     C_R   0.327241 0.555069 0.388584 -0.120002
C12   C     C_R   0.671248 0.417553 0.413201 -0.159964
C13   C     C_R   0.328677 0.436547 0.610972 -0.048010
C14   C     C_R   0.670420 0.591052 0.588778 -0.055756
C15   C     C_R   0.278789 0.443018 0.615383 -0.219049
C16   C     C_R   0.720413 0.588636 0.592152 -0.220644
C17   C     C_R   0.252420 0.494022 0.503831 0.334398
C18   C     C_R   0.746293 0.507171 0.504392 0.348548
C19   C     C_R   0.100885 0.504436 0.528888 -0.102772
C20   C     C_R   0.897657 0.508269 0.528906 -0.101075
C21   C     C_R   0.125490 0.389169 0.541186 -0.000573
C22   C     C_R   0.872929 0.613535 0.475545 0.006901
C23   C     C_R   0.099616 0.277856 0.563211 -0.155053
C24   C     C_R   0.898766 0.718568 0.429371 -0.165965
C25   C     C_R   0.127239 0.617336 0.512416 -0.118164
C26   C     C_R   0.871412 0.403293 0.578359 -0.115139
C27   C     C_R   0.353934 0.497062 0.499751 -0.089513
C28   C     C_R   0.645257 0.503053 0.501202 -0.085563
H1    H     H_    0.259732 0.402969 0.704423 0.157158
H2    H     H_    0.739936 0.653249 0.661574 0.142721
H3    H     H_    0.117708 0.188095 0.572966 0.192679
H4    H     H_    0.880638 0.799438 0.385063 0.175122
C29   C     C_R   0.973391 0.398245 0.573899 -0.021740
C30   C     C_R   0.025234 0.620084 0.505480 -0.021919
C31   C     C_R   0.974425 0.618196 0.493047 0.091300
C32   C     C_R   0.024121 0.393886 0.561617 0.087534
C33   C     C_R   0.948623 0.508235 0.532165 0.073183
C34   C     C_R   0.049944 0.506261 0.532273 0.072387
C35   C     C_R   0.946591 0.296327 0.627599 -0.301430
C36   C     C_R   0.052229 0.732152 0.491494 -0.303891
C37   C     C_R   0.896435 0.297356 0.629256 0.474240
C38   C     C_R   0.102362 0.731599 0.492970 0.474974
O11   O     O_2   0.794455 0.312347 0.627404 -0.503950
O12   O     O_2   0.204082 0.719058 0.515733 -0.500339
C39   C     C_R   0.049935 0.280074 0.574528 -0.201610
C40   C     C_R   0.948493 0.721699 0.439402 -0.206702
H5    H     H_    0.963747 0.215520 0.674108 0.156409
H6    H     H_    0.035374 0.823140 0.482179 0.151166
H7    H     H_    0.032471 0.190000 0.587805 0.140088
H8    H     H_    0.965828 0.804857 0.398759 0.134946
C41   C     C_3   0.541693 0.043515 0.556844 -0.110504
C42   C     C_3   0.459168 0.956603 0.443387 -0.182441
C43   C     C_3   0.537724 0.957204 0.423852 -0.124296
C44   C     C_3   0.463151 0.042664 0.576352 -0.192551
H9    H     H_    0.568265 0.918396 0.362210 0.143462
H10   H     H_    0.432558 0.080114 0.638495 0.192659
H11   H     H_    0.575418 0.082434 0.603245 0.157537
H12   H     H_    0.425284 0.919012 0.397076 0.197529
C45   C     C_3   0.500478 0.877472 0.501903 0.025939
C46   C     C_3   0.500302 0.122517 0.498266 0.024201
C47   C     C_3   0.504520 0.961343 0.634985 -0.149220
C48   C     C_3   0.496338 0.038621 0.365201 -0.157208
H13   H     H_    0.508328 0.927228 0.745359 0.167211
H14   H     H_    0.492443 0.072731 0.254847 0.161466
C49   C     C_3   0.523416 0.597299 0.052751 -0.209610
C50   C     C_3   0.476617 0.402763 0.947187 -0.226341
C51   C     C_3   0.480117 0.599054 0.952195 0.617386
C52   C     C_3   0.519908 0.400940 0.047616 0.596830
H15   H     H_    0.542798 0.678476 0.102071 0.132626
H16   H     H_    0.457303 0.321464 0.898068 0.169293
N3    N     N_3   0.500040 0.499970 0.858290 -0.192911
N4    N     N_3   0.499960 0.500030 0.141710 -0.195211
C53   C     C_3   0.543668 0.496466 0.949944 -0.170297
C54   C     C_3   0.456365 0.503535 0.049885 -0.170419
H17   H     H_    0.580194 0.491310 0.903718 0.147038
H18   H     H_    0.419824 0.507496 0.095606 0.142856
C55   C     C_2   0.351948 0.360356 0.722755 0.394118
H19   H     H_    0.337015 0.359391 0.828957 0.060386
O13   O     O_2   0.385719 0.291411 0.695406 -0.581967
C56   C     C_2   0.646773 0.690842 0.675363 0.351343
H20   H     H_    0.665180 0.729971 0.767752 0.074299
O14   O     O_2   0.608148 0.735457 0.641146 -0.568826
O15   O     O_3   0.456551 0.703824 0.893038 -0.563184
C57   C     C_3   0.453244 0.801226 0.995979 -0.000574
H21   H     H_    0.488253 0.851643 0.005094 0.135857
H22   H     H_    0.442989 0.765104 0.102294 0.191046
C58   C     C_3   0.415049 0.894821 0.950783 -0.740554
H23   H     H_    0.379437 0.847418 0.945863 0.256290
H24   H     H_    0.413481 0.974052 0.028747 0.201172
H25   H     H_    0.423617 0.933040 0.844794 0.244534
O16   O     O_3   0.543409 0.295521 0.105720 -0.541234
C59   C     C_3   0.546925 0.199406 0.001155 0.016155
H26   H     H_    0.558539 0.236746 0.896474 0.146823
H27   H     H_    0.511625 0.151003 0.988262 0.135119
C60   C     C_3   0.583828 0.102562 0.047136 -0.753411
H28   H     H_    0.574885 0.065979 0.153555 0.258124
H29   H     H_    0.584233 0.022610 0.969939 0.194575
H30   H     H_    0.620081 0.146313 0.051054 0.245464
C61   C     C_2   0.645786 0.321887 0.323548 0.393201
H31   H     H_    0.657403 0.303844 0.215574 0.062735
O17   O     O_2   0.612679 0.259754 0.371089 -0.542431
C62   C     C_2   0.351476 0.629891 0.277276 0.344709
H32   H     H_    0.341984 0.616475 0.166325 0.044909
O18   O     O_2   0.380968 0.710788 0.309565 -0.573764
C63   C     C_2   0.749734 0.338456 0.313991 0.378797
H33   H     H_    0.735186 0.247701 0.280937 0.062431
O19   O     O_2   0.788778 0.370116 0.267666 -0.527725
C64   C     C_2   0.248700 0.589195 0.260034 0.368965
H34   H     H_    0.261745 0.666751 0.196650 0.065928
O20   O     O_2   0.211201 0.537624 0.224297 -0.547064
O21   O     O_3   0.872305 0.197312 0.689902 -0.531543
C65   C     C_3   0.870770 0.095396 0.592118 0.090013
H35   H     H_    0.907334 0.056359 0.574314 0.117481
H36   H     H_    0.855062 0.124744 0.488559 0.161994
C66   C     C_3   0.839251 0.991448 0.652018 -0.697349
H37   H     H_    0.802538 0.027916 0.671938 0.271838
H38   H     H_    0.836804 0.911536 0.575385 0.208695
H39   H     H_    0.854765 0.956981 0.753147 0.240948
O22   O     O_3   0.126680 0.844549 0.476704 -0.539176
C67   C     C_3   0.129027 0.871656 0.330392 0.064369
H40   H     H_    0.092678 0.893655 0.287756 0.127406
H41   H     H_    0.144524 0.791096 0.268852 0.167336
C68   C     C_3   0.161214 0.986045 0.308990 -0.656523
H42   H     H_    0.197790 0.967056 0.351007 0.276323
H43   H     H_    0.163778 0.007025 0.194063 0.191759
H44   H     H_    0.146107 0.069492 0.364940 0.249382

loop_
_geom_bond_atom_site_label_1
_geom_bond_atom_site_label_2
_geom_bond_distance
_ccdc_geom_bond_type
C42   C44   1.544860 S    
C19   C34   1.419563 A    
C58   H23   1.110677 S    
C13   C15   1.392295 A    
O16   C59   1.413359 S    
C50   H16   1.109630 S    
N1    C17   1.443018 S    
C8    O11   1.348980 S    
C49   C53   1.544570 S    
O15   C57   1.412253 S    
C44   C47   1.545394 S    
O5    C3    1.304180 A    
C68   H43   1.110560 S    
C20   C33   1.419751 A    
C19   C25   1.411828 A    
C31   C40   1.412740 A    
C46   C48   1.532375 S    
O1    C1    1.291084 A    
C32   C39   1.412861 A    
N1    C7    1.370434 A    
C10   C12   1.416824 A    
C61   H31   1.084308 S    
C60   H29   1.110774 S    
N4    C54   1.488470 S    
C59   H26   1.115822 S    
C44   C46   1.530649 S    
C52   C53   1.526943 S    
C1    C46   1.451344 S    
C50   C54   1.543475 S    
C62   H32   1.084871 S    
C14   C56   1.486437 S    
C52   O16   1.411614 S    
C14   C28   1.419305 A    
O4    Cu1   1.954847 S    
C4    C28   1.474790 S    
C19   C21   1.408791 A    
C5    N1    1.368787 A    
C35   H5    1.078678 S    
C42   H12   1.108668 S    
C37   O21   1.383592 S    
C31   C33   1.419969 A    
C32   C34   1.419524 A    
C13   C55   1.482688 S    
C43   C45   1.531546 S    
C9    C64   1.491344 S    
C6    N2    1.366312 A    
C29   C35   1.410574 A    
C66   H39   1.110565 S    
C35   C37   1.397240 A    
C42   C48   1.544319 S    
C58   H24   1.110716 S    
Cu1   Cu2   2.697829 S    
C15   H1    1.084597 S    
C45   C47   1.532504 S    
C16   H2    1.084599 S    
O2    C2    1.291242 A    
C67   C68   1.520890 S    
O6    Cu2   1.952786 S    
C5    C21   1.401723 A    
C38   O22   1.383572 S    
C29   C32   1.419155 A    
C63   O19   1.220971 D    
C68   H44   1.109910 S    
C36   C38   1.396406 A    
N3    C53   1.488298 S    
C16   C18   1.394150 A    
Cu2   N4    2.027282 S    
C50   C52   1.529593 S    
C11   C62   1.485211 S    
C11   C27   1.427807 A    
C55   H19   1.085707 S    
C49   C51   1.530468 S    
C29   C33   1.415476 A    
C36   H6    1.078519 S    
C65   C66   1.521268 S    
C41   C43   1.546589 S    
C41   H11   1.110281 S    
C42   C45   1.530764 S    
C41   C46   1.531917 S    
C43   H9    1.110095 S    
C9    C17   1.414768 A    
C30   C36   1.411070 A    
O7    Cu2   1.954739 S    
C10   C18   1.413973 A    
C50   N3    1.485979 S    
C55   O13   1.220106 D    
O7    C3    1.305982 A    
C13   C27   1.422395 A    
C25   C38   1.410928 A    
C7    C25   1.410588 A    
C30   C34   1.415818 A    
O6    C4    1.301377 A    
C26   C37   1.411216 A    
C8    C26   1.411509 A    
C6    O10   1.349858 S    
C56   O14   1.220266 D    
C47   H13   1.109669 S    
C23   C39   1.388633 A    
O3    Cu2   1.954846 S    
O8    C4    1.300957 A    
C24   C40   1.388061 A    
O4    C2    1.291609 A    
C30   C31   1.419523 A    
C54   H18   1.107858 S    
C58   H25   1.108644 S    
C57   H22   1.114566 S    
C53   H17   1.109902 S    
O22   C67   1.413230 S    
C20   C26   1.413516 A    
C60   H30   1.109793 S    
O1    Cu1   1.950127 S    
N2    C8    1.368579 A    
C23   H3    1.082954 S    
C12   C28   1.423739 A    
C2    C45   1.451218 S    
C66   H37   1.110665 S    
N2    C18   1.438013 S    
C5    O9    1.349899 S    
C10   C63   1.491415 S    
C65   H36   1.115448 S    
C21   C23   1.398109 A    
C48   H14   1.109709 S    
O3    C1    1.291816 A    
O8    Cu1   1.954739 S    
C67   H41   1.116188 S    
C63   H33   1.084238 S    
C67   H40   1.113944 S    
C57   C58   1.520075 S    
C68   H42   1.111158 S    
C39   H7    1.078598 S    
C41   C47   1.545096 S    
C40   H8    1.078263 S    
C22   C24   1.397891 A    
C12   C61   1.488074 S    
C7    O12   1.349167 S    
C15   C17   1.394658 A    
C52   N4    1.478650 S    
C60   H28   1.108289 S    
C6    C22   1.401004 A    
C49   H15   1.110313 S    
O21   C65   1.412373 S    
C59   H27   1.112748 S    
C65   H35   1.113495 S    
C14   C16   1.392999 A    
C51   O15   1.410940 S    
C62   O18   1.220185 D    
C3    C27   1.489266 S    
C20   C22   1.409713 A    
C9    C11   1.417244 A    
C56   H20   1.085733 S    
O2    Cu2   1.950126 S    
C24   H4    1.083203 S    
C51   C54   1.526919 S    
O5    Cu1   1.952786 S    
C44   H10   1.108481 S    
C57   H21   1.112606 S    
Cu1   N3    2.027282 S    
C43   C48   1.546364 S    
C66   H38   1.108577 S    
C64   H34   1.084050 S    
C64   O20   1.221149 D    
C49   N4    1.487170 S    
C51   N3    1.477278 S    
C61   O17   1.220861 D    
C59   C60   1.520459 S    
