data_mof_unit_62040.cif
_audit_creation_date              2012-12-10T17:59:47-0500
_audit_creation_method            fapswitch 2.2
_symmetry_space_group_name_H-M    P1
_symmetry_Int_Tables_number       1
_space_group_crystal_system       triclinic
_cell_length_a                    30.809342
_cell_length_b                    31.962693
_cell_length_c                    21.75793
_cell_angle_alpha                 89.863335
_cell_angle_beta                  135.11022
_cell_angle_gamma                 90.060659
_cell_volume                      15121.3265577

loop_
_atom_site_label
_atom_site_type_symbol
_atom_type_description
_atom_site_fract_x
_atom_site_fract_y
_atom_site_fract_z
_atom_type_partial_charge
C1    C     C_R   0.500014 0.999821 0.381357 0.801452
C2    C     C_3   0.000254 0.791194 0.500330 0.183692
C3    C     C_3   0.783547 0.965302 0.174427 -0.439937
C4    C     C_R   0.717316 0.464535 0.735670 0.135616
C5    C     C_R   0.217315 0.964592 0.735896 0.135830
C6    C     C_R   0.684755 0.500362 0.686414 -0.069717
C7    C     C_R   0.184754 0.000371 0.686414 -0.069790
C8    C     C_R   0.716570 0.538156 0.710936 -0.215910
C9    C     C_R   0.216573 0.038139 0.710675 -0.215997
C10   C     C_3   0.537376 0.764067 0.492949 -0.156309
C11   C     C_3   0.526588 0.236130 0.474752 -0.149441
C12   C     C_3   0.039603 0.264060 0.497132 -0.156343
C13   C     C_3   0.520256 0.763819 0.575151 -0.155743
C14   C     C_3   0.026687 0.736129 0.474904 -0.149463
C15   C     C_R   0.280973 0.038406 0.776506 -0.182540
C16   C     C_R   0.780971 0.538421 0.776769 -0.182560
C17   C     C_R   0.313815 0.000696 0.817293 -0.086375
C18   C     C_R   0.813815 0.500689 0.817320 -0.086730
C19   C     C_R   0.280830 0.964570 0.799203 0.175782
C20   C     C_R   0.780830 0.464518 0.798996 0.176047
C21   C     C_3   0.283773 0.921509 0.775917 -0.454006
C22   C     C_3   0.783792 0.421533 0.775466 -0.453871
C23   C     C_3   0.713901 0.421380 0.706489 -0.522328
C24   C     C_3   0.531940 0.235879 0.580815 -0.156354
C25   C     C_3   0.213883 0.921364 0.706969 -0.522292
C26   C     C_1   0.500103 0.874891 0.500304 -0.170798
C27   C     C_1   0.499990 0.125116 0.499883 -0.165375
C28   C     C_1   0.000103 0.374890 0.500303 -0.170760
C29   C     C_1   0.999991 0.625116 0.499885 -0.165359
C30   C     C_1   0.500026 0.625130 0.499890 -0.165587
C31   C     C_1   0.500178 0.374877 0.500344 -0.172090
C32   C     C_1   0.000027 0.125131 0.499890 -0.165584
C33   C     C_1   0.000179 0.874877 0.500345 -0.172107
C34   C     C_3   0.442703 0.764047 0.432843 -0.154674
C35   C     C_3   0.017455 0.263818 0.573292 -0.155819
C36   C     C_3   0.442002 0.236102 0.444877 -0.155957
C37   C     C_3   0.943278 0.264055 0.430517 -0.154638
C38   C     C_3   0.941997 0.736103 0.444766 -0.155937
C39   C     C_3   0.500122 0.791208 0.500385 0.184161
C40   C     C_3   0.500135 0.208804 0.500058 0.183920
C41   C     C_3   0.000122 0.291208 0.500384 0.184197
C42   C     C_3   0.000136 0.708805 0.500062 0.183924
C43   C     C_R   0.355174 0.947226 0.661512 0.111425
C44   C     C_R   0.339780 0.985681 0.673828 -0.150867
C45   C     C_R   0.278716 0.994804 0.627503 -0.130818
C46   C     C_3   0.031849 0.735879 0.580786 -0.156350
C47   C     C_R   0.232498 0.965519 0.570153 -0.110010
C48   C     C_R   0.247125 0.927079 0.558276 -0.150963
C49   C     C_R   0.307894 0.918095 0.602980 -0.171744
C50   C     C_R   0.451899 0.899657 0.767932 0.140063
C51   C     C_R   0.509614 0.885158 0.804801 -0.140526
C52   C     C_R   0.539664 0.852096 0.864495 -0.141481
C53   C     C_R   0.513199 0.833149 0.889312 -0.112124
C54   C     C_R   0.456796 0.847412 0.854902 -0.138272
C55   C     C_R   0.426486 0.880461 0.795159 -0.114660
C56   C     C_R   0.855055 0.447219 0.661214 0.111790
C57   C     C_3   0.557512 0.735980 0.567712 -0.153514
C58   C     C_R   0.807715 0.418224 0.602109 -0.172076
C59   C     C_R   0.746911 0.427229 0.557212 -0.150569
C60   C     C_R   0.732315 0.465555 0.569488 -0.110340
C61   C     C_R   0.778596 0.494696 0.627442 -0.130996
C62   C     C_R   0.839690 0.485545 0.673950 -0.150687
C63   C     C_R   0.951822 0.399677 0.767833 0.140749
C64   C     C_R   0.925945 0.380067 0.794039 -0.116064
C65   C     C_R   0.956223 0.346993 0.853722 -0.138456
C66   C     C_R   0.013043 0.333116 0.889084 -0.111890
C67   C     C_R   0.039934 0.352454 0.865235 -0.141445
C68   C     C_3   0.558391 0.263901 0.555510 -0.158371
C69   C     C_R   0.009902 0.385525 0.805564 -0.140214
C70   C     C_3   0.056938 0.235973 0.570037 -0.153485
C71   C     C_3   0.058398 0.763900 0.555628 -0.158385
C72   C     C_1   0.500122 0.837137 0.500394 -0.069896
C73   C     C_R   0.000014 0.499821 0.381357 0.801480
C74   C     C_1   0.500042 0.162872 0.499927 -0.064652
C75   C     C_1   0.000122 0.337137 0.500393 -0.069869
C76   C     C_1   0.000043 0.662872 0.499930 -0.064647
C77   C     C_1   0.500062 0.662886 0.499988 -0.065699
C78   C     C_1   0.500249 0.337123 0.500403 -0.070517
C79   C     C_1   0.000063 0.162887 0.499989 -0.065702
C80   C     C_1   0.000250 0.837123 0.500406 -0.070519
C81   C     C_R   0.459036 0.022669 0.239990 0.046512
C82   C     C_R   0.958923 0.522580 0.239874 0.046587
C83   C     C_R   0.500415 0.999107 0.315477 -0.059041
C84   C     C_3   0.462837 0.735960 0.507603 -0.152866
C85   C     C_R   0.000419 0.499111 0.315477 -0.059212
C86   C     C_R   0.543667 0.974849 0.326144 -0.189195
C87   C     C_R   0.043787 0.474951 0.326257 -0.189110
C88   C     C_R   0.543099 0.974568 0.260763 -0.170467
C89   C     C_R   0.043218 0.474668 0.260874 -0.170470
C90   C     C_R   0.500044 0.919849 0.500118 0.817252
C91   C     C_R   0.500001 0.080153 0.499933 0.822100
C92   C     C_R   0.000044 0.419849 0.500117 0.817281
C93   C     C_R   0.000001 0.580153 0.499933 0.822130
C94   C     C_R   0.500762 0.999700 0.185752 -0.072027
C95   C     C_3   0.473803 0.263867 0.525632 -0.155355
C96   C     C_R   0.000753 0.499700 0.185739 -0.071924
C97   C     C_R   0.460064 0.023742 0.178985 0.069165
C98   C     C_R   0.959934 0.523646 0.178851 0.069048
C99   C     C_3   0.407072 0.053289 0.122146 0.269856
C100  C     C_3   0.906780 0.553058 0.121851 0.269659
C101  C     C_3   0.406560 0.052344 0.192555 -0.484567
C102  C     C_3   0.906292 0.552127 0.192284 -0.484289
C103  C     C_R   0.463775 0.973862 0.682243 0.073504
C104  C     C_R   0.963695 0.473913 0.682157 0.073896
C105  C     C_R   0.500468 0.000707 0.685160 -0.064041
C106  C     C_3   0.960611 0.235967 0.503420 -0.152771
C107  C     C_R   0.000459 0.500716 0.685153 -0.064138
C108  C     C_R   0.537704 0.029150 0.755077 -0.209684
C109  C     C_R   0.037700 0.529150 0.755081 -0.209815
C110  C     C_R   0.536907 0.029500 0.819081 -0.198799
C111  C     C_R   0.036886 0.529500 0.819066 -0.198694
C112  C     C_R   0.499859 0.000812 0.814599 -0.105959
C113  C     C_R   0.999794 0.500832 0.814534 -0.105961
C114  C     C_R   0.462983 0.974019 0.743537 0.048098
C115  C     C_R   0.962838 0.474091 0.743384 0.047680
C116  C     C_R   0.500131 0.999844 0.618689 0.795155
C117  C     C_3   0.973707 0.763868 0.525488 -0.155351
C118  C     C_R   0.000132 0.499842 0.618690 0.795207
C119  C     C_3   0.420373 0.937088 0.704964 0.001753
C120  C     C_3   0.920311 0.437104 0.704858 0.001736
C121  C     C_3   0.422634 0.936844 0.635575 -0.534129
C122  C     C_3   0.922722 0.436818 0.635626 -0.534526
C123  C     C_R   0.381244 0.500185 0.381287 0.812666
C124  C     C_R   0.881243 0.000186 0.381287 0.812672
C125  C     C_R   0.499978 0.580167 0.499920 0.820931
C126  C     C_R   0.500046 0.419835 0.500103 0.818914
C127  C     C_R   0.999978 0.080167 0.499920 0.820945
C128  C     C_3   0.500091 0.708819 0.500160 0.183852
C129  C     C_R   0.000047 0.919835 0.500104 0.818905
C130  C     C_R   0.618506 0.499719 0.618664 0.791379
C131  C     C_R   0.118506 0.999721 0.618665 0.791307
C132  C     C_R   0.618708 0.000008 0.119209 0.837404
C133  C     C_R   0.118708 0.500008 0.119212 0.837329
C134  C     C_R   0.499676 0.999951 0.118493 0.847409
C135  C     C_R   0.999667 0.499951 0.118483 0.847355
C136  C     C_R   0.380774 0.000079 0.880734 0.808382
C137  C     C_R   0.880774 0.500078 0.880744 0.808250
C138  C     C_R   0.499894 0.000099 0.880961 0.780766
C139  C     C_3   0.500253 0.291194 0.500327 0.183695
C140  C     C_R   0.999874 0.500101 0.880941 0.780599
C141  C     C_R   0.280117 0.485356 0.232629 0.132228
C142  C     C_R   0.780116 0.985391 0.232604 0.132241
C143  C     C_3   0.479957 0.736215 0.425403 -0.156745
C144  C     C_3   0.468452 0.264121 0.419572 -0.153705
C145  C     C_3   0.982759 0.236215 0.427261 -0.156972
C146  C     C_3   0.968546 0.764121 0.419608 -0.153701
C147  C     C_R   0.314773 0.500942 0.315646 -0.136939
C148  C     C_R   0.814771 0.000942 0.315646 -0.136952
C149  C     C_R   0.282504 0.516945 0.334514 -0.220906
C150  C     C_3   0.000093 0.208819 0.500161 0.183834
C151  C     C_R   0.782501 0.016908 0.334537 -0.220914
C152  C     C_R   0.717652 0.017019 0.270485 0.122474
C153  C     C_R   0.217655 0.517057 0.270463 0.122488
C154  C     C_R   0.684661 0.000210 0.187148 -0.127188
C155  C     C_R   0.184663 0.500211 0.187153 -0.127239
C156  C     C_R   0.718161 0.984450 0.171931 0.079504
C157  C     C_R   0.218162 0.484414 0.171959 0.079609
C158  C     C_3   0.712665 0.964623 0.104863 -0.482186
C159  C     C_3   0.212665 0.464541 0.104924 -0.482292
C160  C     C_3   0.283548 0.465221 0.174485 -0.439990
Cu1   Cu    Cu3+1 0.438230 1.000000 0.438170 0.963134
Cu2   Cu    Cu3+1 0.500030 0.041430 0.000020 1.013635
Cu3   Cu    Cu3+1 0.000030 0.458570 0.000020 0.960383
Cu4   Cu    Cu3+1 0.000030 0.541430 0.000020 1.013577
Cu5   Cu    Cu3+1 0.938230 0.500000 0.438170 0.963156
Cu6   Cu    Cu3+1 0.561800 1.000000 0.561830 0.961750
Cu7   Cu    Cu3+1 0.061800 0.500000 0.561830 0.961693
Cu8   Cu    Cu3+1 0.499880 0.500000 0.438060 0.941491
Cu9   Cu    Cu3+1 0.999880 1.000000 0.438060 0.941514
Cu10  Cu    Cu3+1 0.500000 0.500000 0.561790 0.978147
Cu11  Cu    Cu3+1 1.000000 0.000000 0.561790 0.978115
Cu12  Cu    Cu3+1 0.500030 0.958570 0.000020 0.959857
H1    H     H_    0.568050 0.776090 0.486928 0.134191
H2    H     H_    0.066924 0.551010 0.759980 0.150886
H3    H     H_    0.566021 0.051385 0.872637 0.154552
H4    H     H_    0.066036 0.551360 0.872665 0.154543
H5    H     H_    0.378791 0.945315 0.568301 0.211001
H6    H     H_    0.446213 0.909504 0.638360 0.178357
H7    H     H_    0.878903 0.445181 0.568249 0.211004
H8    H     H_    0.946504 0.409509 0.638746 0.178491
H9    H     H_    0.307320 0.529571 0.398323 0.186415
H10   H     H_    0.807315 0.029505 0.398364 0.186432
H11   H     H_    0.690937 0.985823 0.048777 0.196034
H12   H     H_    0.548297 0.224257 0.453807 0.140928
H13   H     H_    0.692914 0.932605 0.087707 0.207640
H14   H     H_    0.190936 0.485715 0.048802 0.195998
H15   H     H_    0.192916 0.432525 0.087821 0.207551
H16   H     H_    0.302739 0.486561 0.158195 0.203882
H17   H     H_    0.304728 0.433584 0.197851 0.194544
H18   H     H_    0.802740 0.986669 0.158174 0.203881
H19   H     H_    0.804725 0.933663 0.197741 0.194566
H20   H     H_    0.691812 0.567019 0.677567 0.142479
H21   H     H_    0.191817 0.066977 0.677116 0.142486
H22   H     H_    0.463367 0.724405 0.363782 0.134939
H23   H     H_    0.072104 0.276078 0.494547 0.134315
H24   H     H_    0.442333 0.276201 0.353231 0.137049
H25   H     H_    0.968484 0.224404 0.367178 0.134908
H26   H     H_    0.942502 0.776201 0.353295 0.137057
H27   H     H_    0.304776 0.067605 0.791980 0.173061
H28   H     H_    0.804771 0.567646 0.792437 0.173299
H29   H     H_    0.304637 0.898686 0.829353 0.201379
H30   H     H_    0.303012 0.921140 0.747968 0.207881
H31   H     H_    0.804646 0.398620 0.828762 0.201400
H32   H     H_    0.803060 0.421299 0.747554 0.207974
H33   H     H_    0.694479 0.398710 0.720593 0.204313
H34   H     H_    0.048476 0.724256 0.454080 0.140903
H35   H     H_    0.692632 0.420445 0.638733 0.203939
H36   H     H_    0.194470 0.898792 0.721230 0.204375
H37   H     H_    0.192598 0.920297 0.639210 0.203688
H38   H     H_    0.604751 0.723974 0.623204 0.136584
H39   H     H_    0.606272 0.275809 0.601025 0.132605
H40   H     H_    0.103702 0.223958 0.627434 0.136822
H41   H     H_    0.106284 0.775808 0.601238 0.132607
H42   H     H_    0.536833 0.775640 0.636759 0.133555
H43   H     H_    0.558058 0.223799 0.647155 0.133583
H44   H     H_    0.031718 0.275643 0.633363 0.133566
H45   H     H_    0.365242 0.037264 0.171416 0.215361
H46   H     H_    0.057891 0.723799 0.647099 0.133581
H47   H     H_    0.432163 0.723938 0.513625 0.138010
H48   H     H_    0.452089 0.275738 0.546570 0.135653
H49   H     H_    0.928109 0.223951 0.506005 0.138037
H50   H     H_    0.951913 0.775739 0.546305 0.135654
H51   H     H_    0.395464 0.776053 0.377353 0.136905
H52   H     H_    0.394115 0.224209 0.399352 0.136099
H53   H     H_    0.896514 0.276069 0.373121 0.136865
H54   H     H_    0.894105 0.724210 0.399146 0.136109
H55   H     H_    0.576965 0.955771 0.383845 0.155082
H56   H     H_    0.420457 0.082256 0.228385 0.202564
H57   H     H_    0.077180 0.455947 0.384049 0.155207
H58   H     H_    0.576040 0.955382 0.269332 0.159718
H59   H     H_    0.076252 0.455558 0.269534 0.159707
H60   H     H_    0.374242 0.009157 0.717595 0.118725
H61   H     H_    0.267151 0.024797 0.635660 0.142529
H62   H     H_    0.185346 0.972643 0.534890 0.142337
H63   H     H_    0.211262 0.904371 0.513743 0.135057
H64   H     H_    0.318271 0.888424 0.591783 0.138398
H65   H     H_    0.532077 0.899719 0.788414 0.127813
H66   H     H_    0.583784 0.841341 0.891987 0.129160
H67   H     H_    0.865060 0.536950 0.171250 0.215358
H68   H     H_    0.536638 0.807626 0.935753 0.125551
H69   H     H_    0.436633 0.833020 0.874990 0.122105
H70   H     H_    0.383639 0.891093 0.771648 0.118069
H71   H     H_    0.818072 0.388648 0.590603 0.138372
H72   H     H_    0.710998 0.404630 0.512216 0.135052
H73   H     H_    0.685137 0.472699 0.534075 0.142240
H74   H     H_    0.767060 0.524600 0.635927 0.142758
H75   H     H_    0.874208 0.508902 0.718206 0.118507
H76   H     H_    0.882723 0.390357 0.769719 0.117968
H77   H     H_    0.935694 0.332271 0.872998 0.122397
H78   H     H_    0.920037 0.582077 0.227944 0.202571
H79   H     H_    0.036454 0.307573 0.935478 0.125499
H80   H     H_    0.084355 0.341985 0.893433 0.129071
H81   H     H_    0.032636 0.400361 0.789829 0.127896
H82   H     H_    0.566891 0.051030 0.759933 0.150845
I1    I     I_    0.672991 0.041218 0.304693 -0.367384
I2    I     I_    0.172999 0.541315 0.304641 -0.367513
I3    I     I_    0.327556 0.025730 0.001030 -0.372567
I4    I     I_    0.431233 0.112797 0.108065 -0.311862
I5    I     I_    0.827400 0.525287 0.000922 -0.372623
I6    I     I_    0.930601 0.612616 0.107384 -0.312077
O1    O     O_R   0.447840 1.000000 0.357610 -0.581723
O2    O     O_R   0.090140 1.000000 0.642300 -0.569151
O3    O     O_R   0.590180 0.965000 0.090240 -0.588360
O4    O     O_R   0.590180 0.035000 0.090240 -0.565610
O5    O     O_R   0.090180 0.465000 0.090240 -0.588396
O6    O     O_R   0.090180 0.535000 0.090240 -0.565602
O7    O     O_R   0.500040 0.965010 0.090190 -0.594855
O8    O     O_R   0.500040 0.034990 0.090190 -0.540597
O9    O     O_R   0.000040 0.465010 0.090190 -0.594764
O10   O     O_R   0.000040 0.534990 0.090190 -0.540650
O11   O     O_R   0.409890 0.965030 0.909800 -0.593074
O12   O     O_R   0.947840 0.500000 0.357610 -0.581732
O13   O     O_R   0.409890 0.034970 0.909800 -0.578530
O14   O     O_R   0.909890 0.465030 0.909800 -0.592719
O15   O     O_R   0.909890 0.534970 0.909800 -0.578649
O16   O     O_R   0.500040 0.965020 0.909850 -0.578644
O17   O     O_R   0.500040 0.034980 0.909850 -0.593150
O18   O     O_R   0.000040 0.465020 0.909850 -0.578557
O19   O     O_R   0.000040 0.534980 0.909850 -0.593114
O20   O     O_R   0.552190 1.000000 0.462050 -0.584001
O21   O     O_R   0.052190 0.500000 0.462050 -0.584062
O22   O     O_R   0.447840 0.939540 0.447780 -0.579625
O23   O     O_R   0.500000 0.560470 0.552180 -0.575359
O24   O     O_R   0.447840 0.060460 0.447780 -0.579414
O25   O     O_R   0.947840 0.439540 0.447780 -0.579627
O26   O     O_R   0.947840 0.560460 0.447780 -0.579404
O27   O     O_R   0.552190 0.939560 0.552210 -0.581649
O28   O     O_R   0.552190 0.060440 0.552210 -0.578583
O29   O     O_R   0.052190 0.439560 0.552210 -0.581654
O30   O     O_R   0.052190 0.560440 0.552210 -0.578588
O31   O     O_R   0.447840 0.000000 0.537950 -0.581739
O32   O     O_R   0.947840 0.500000 0.537950 -0.581701
O33   O     O_R   0.552190 0.000000 0.642390 -0.589867
O34   O     O_R   0.500000 0.439530 0.552180 -0.576483
O35   O     O_R   0.052190 0.500000 0.642390 -0.589897
O36   O     O_R   0.409740 0.500000 0.357550 -0.586021
O37   O     O_R   0.909740 1.000000 0.357550 -0.586015
O38   O     O_R   0.409840 0.500000 0.462040 -0.586680
O39   O     O_R   0.909840 1.000000 0.462040 -0.586685
O40   O     O_R   0.499890 0.560480 0.447700 -0.582291
O41   O     O_R   0.499890 0.439520 0.447700 -0.585190
O42   O     O_R   0.999890 0.060480 0.447700 -0.582299
O43   O     O_R   0.999890 0.939520 0.447700 -0.585178
O44   O     O_R   1.000000 0.060470 0.552180 -0.575338
O45   O     O_R   1.000000 0.939530 0.552180 -0.576494
O46   O     O_R   0.590030 0.500000 0.537810 -0.598804
O47   O     O_R   0.090030 1.000000 0.537810 -0.598833
O48   O     O_R   0.590140 0.500000 0.642300 -0.569121

loop_
_geom_bond_atom_site_label_1
_geom_bond_atom_site_label_2
_ccdc_geom_bond_type
C88   H58   S    
C90   O22   A    
C14   C71   S    
C105  C116  S    
C70   C150  S    
C148  C151  A    
C57   C128  S    
C11   C68   S    
C22   H31   S    
C159  H14   S    
C160  H17   S    
C93   O26   A    
Cu2   O13   S    
C9    H21   S    
C149  C153  A    
C66   H79   S    
C129  O45   A    
C3    C158  S    
C35   H44   S    
C36   H52   S    
C38   H54   S    
C131  O2    A    
C23   H35   S    
C59   C60   A    
C8    C16   A    
C82   C98   A    
Cu12  O11   S    
C53   H68   S    
C2    C117  S    
C96   C135  S    
C45   C47   A    
C122  H7    S    
C116  O33   A    
C51   C52   A    
C112  C138  S    
C4    C23   S    
Cu1   O22   S    
C130  O46   A    
C94   C97   A    
C87   H57   S    
C137  O15   A    
C111  H4    S    
C46   C117  S    
C18   C137  S    
C43   C44   A    
C111  C113  A    
C89   H59   S    
C124  O39   A    
C132  O3    A    
C5    C25   S    
C141  C157  A    
C99   C101  S    
C87   C89   A    
C56   C62   A    
Cu7   O29   S    
C2    C71   S    
C103  C121  S    
C158  H13   S    
C32   C127  S    
C151  H10   S    
C134  O7    A    
C147  C149  A    
C92   O25   A    
Cu6   O27   S    
C33   C80   T    
C133  O5    A    
C26   C90   S    
C82   C85   A    
C95   C139  S    
C89   C96   A    
C156  C158  S    
C9    C15   A    
C126  O41   A    
C8    H20   S    
C24   H43   S    
C86   C88   A    
C36   C144  S    
C141  C147  A    
C4    C20   A    
Cu1   O1    S    
C83   C86   A    
C22   C23   S    
C142  C156  A    
C28   C75   T    
C104  C107  A    
C113  C115  A    
Cu3   O14   S    
C84   C128  S    
Cu6   O33   S    
C106  C150  S    
C55   H70   S    
C70   H40   S    
Cu4   O15   S    
C136  O13   A    
C6    C130  S    
C78   C139  S    
C112  C114  A    
Cu1   O24   S    
C81   C101  S    
C53   C54   A    
Cu7   O30   S    
C13   C84   S    
C102  H67   S    
C93   O30   A    
C24   C40   S    
C19   C21   S    
C109  C111  A    
C104  C122  S    
C135  O9    A    
C139  C144  S    
C159  H15   S    
C38   C146  S    
Cu10  O38   S    
C38   C117  S    
Cu9   O47   S    
C63   C69   A    
Cu10  O48   S    
C96   C98   A    
C132  C154  S    
C27   C91   S    
C25   H36   S    
C158  H11   S    
C107  C118  S    
C114  C119  S    
C16   H28   S    
C52   H66   S    
C66   C67   A    
C30   C125  S    
C60   H73   S    
Cu5   Cu7   S    
C23   H33   S    
C86   H55   S    
Cu9   Cu11  S    
C117  H50   S    
C34   C84   S    
C81   C83   A    
Cu2   O17   S    
Cu5   O12   S    
C119  C121  S    
C88   C94   A    
C34   C39   S    
C103  C114  A    
C51   H65   S    
C127  O44   A    
C125  O40   A    
C121  H5    S    
C61   H74   S    
C143  H22   S    
Cu4   O6    S    
C59   H72   S    
C12   C145  S    
C146  H26   S    
C64   H76   S    
Cu2   O4    S    
C82   C102  S    
C103  C105  A    
C73   C85   S    
Cu7   O21   S    
Cu5   O32   S    
C34   H51   S    
C73   O21   A    
C21   C25   S    
C54   C55   A    
C108  H82   S    
C7    C131  S    
C11   H12   S    
C152  C154  A    
C144  H24   S    
C42   C76   S    
C22   H32   S    
Cu9   O43   S    
Cu6   O28   S    
C36   C95   S    
Cu8   Cu10  S    
C56   C58   A    
C37   C41   S    
C11   C40   S    
C35   C41   S    
C110  C112  A    
C48   H63   S    
C63   C64   A    
Cu2   Cu12  S    
C126  O34   A    
C43   C119  S    
C46   H46   S    
C155  C157  A    
C26   C72   T    
C127  O42   A    
C29   C76   T    
C52   C53   A    
C122  H8    S    
C124  C148  S    
Cu3   O9    S    
Cu1   O31   S    
C45   H61   S    
C49   H64   S    
C106  H49   S    
C99   I3    S    
C137  O14   A    
Cu8   O40   S    
C42   C46   S    
C131  O47   A    
C30   C77   T    
C125  O23   A    
C151  C152  A    
Cu4   O19   S    
C153  C155  A    
C154  C156  A    
C132  O4    A    
C67   H80   S    
C10   H1    S    
C37   H53   S    
C157  C159  S    
C102  H78   S    
C149  H9    S    
C107  C109  A    
C118  O32   A    
C91   O28   A    
Cu12  O16   S    
C134  O8    A    
C34   C143  S    
C54   H69   S    
C4    C6    A    
C3    H18   S    
C5    C7    A    
Cu11  O39   S    
C109  H2    S    
C6    C8    A    
C58   C59   A    
C71   H41   S    
C10   C39   S    
C13   H42   S    
C12   C41   S    
C21   H29   S    
C41   C75   S    
C104  C115  A    
C159  C160  S    
C95   H48   S    
C46   C71   S    
C79   C150  S    
C48   C49   A    
C20   C22   S    
C98   C100  S    
Cu8   O41   S    
C12   H23   S    
C24   C95   S    
C44   C45   A    
C31   C78   T    
C33   C129  S    
C15   C17   A    
Cu4   O10   S    
C57   H38   S    
C129  O43   A    
C21   H30   S    
C73   O12   A    
C152  I1    S    
C5    C19   A    
C1    C83   S    
C99   I4    S    
C64   C65   A    
Cu12  O3    S    
C32   C79   T    
C29   C93   S    
C140  O18   A    
C136  O11   A    
C58   H71   S    
C128  C143  S    
C24   C68   S    
C13   C57   S    
C90   O27   A    
C60   C61   A    
C68   C139  S    
C100  I6    S    
C65   H77   S    
Cu3   Cu4   S    
C69   H81   S    
C133  O6    A    
C110  H3    S    
C130  O48   A    
C101  H56   S    
Cu8   O46   S    
C38   C42   S    
Cu12  O7    S    
Cu5   O25   S    
Cu2   O8    S    
C17   C19   A    
C35   C70   S    
C108  C110  A    
C92   O29   A    
C39   C72   S    
C27   C74   T    
C11   C144  S    
Cu1   Cu6   S    
C14   C42   S    
C47   H62   S    
Cu3   O5    S    
C56   C120  S    
C140  O19   A    
C61   C62   A    
C3    C142  S    
C12   C70   S    
C123  O36   A    
Cu6   O20   S    
C97   C99   S    
C120  C122  S    
C50   C51   A    
C85   C87   A    
Cu7   O35   S    
C105  C108  A    
Cu8   O36   S    
C13   C39   S    
C50   C119  S    
C142  C148  A    
C118  O35   A    
C36   C40   S    
C10   C57   S    
C1    O20   A    
C43   C49   A    
C135  O10   A    
C138  O16   A    
C67   C69   A    
Cu5   O26   S    
Cu11  O2    S    
Cu9   O42   S    
C145  H25   S    
C84   H47   S    
C3    H19   S    
C15   H27   S    
Cu11  O44   S    
C141  C160  S    
C47   C48   A    
C17   C136  S    
C100  C102  S    
C113  C140  S    
C91   O24   A    
C28   C92   S    
C25   H37   S    
C77   C128  S    
C1    O1    A    
C153  I2    S    
C123  C147  S    
C115  C120  S    
C138  O17   A    
C123  O38   A    
C160  H16   S    
C7    C9    A    
Cu11  O45   S    
C133  C155  S    
C145  C150  S    
C121  H6    S    
Cu3   O18   S    
C2    C146  S    
C14   C146  S    
C116  O31   A    
C50   C55   A    
C14   H34   S    
Cu10  O23   S    
C44   H60   S    
C37   C106  S    
C35   C106  S    
C63   C120  S    
C62   H75   S    
C81   C97   A    
C94   C134  S    
C40   C74   S    
C18   C20   A    
C10   C143  S    
C100  I5    S    
C2    C80   S    
C101  H45   S    
C16   C18   A    
C65   C66   A    
C31   C126  S    
C37   C145  S    
C68   H39   S    
Cu9   O37   S    
C124  O37   A    
Cu10  O34   S    
