data_mof_unit_8930.cif
_audit_creation_date              2012-12-10T16:45:20-0500
_audit_creation_method            fapswitch 2.2
_symmetry_space_group_name_H-M    P1
_symmetry_Int_Tables_number       1
_space_group_crystal_system       triclinic
_cell_length_a                    7.427511
_cell_length_b                    8.742878
_cell_length_c                    15.799247
_cell_angle_alpha                 94.413657
_cell_angle_beta                  75.108543
_cell_angle_gamma                 103.201466
_cell_volume                      965.126389528

loop_
_atom_site_label
_atom_site_type_symbol
_atom_type_description
_atom_site_fract_x
_atom_site_fract_y
_atom_site_fract_z
_atom_type_partial_charge
C1    C     C_R   0.541151 0.799459 0.507377 0.815945
C2    C     C_R   0.451994 0.200432 0.501685 0.816217
C3    C     C_R   0.296251 0.358258 0.069621 0.349306
C4    C     C_R   0.704712 0.640083 0.929882 0.355663
C5    C     C_R   0.158010 0.342688 0.022669 -0.227902
C6    C     C_R   0.842842 0.655464 0.976901 -0.217999
C7    C     C_2   0.559739 0.966451 0.518722 0.176831
C8    C     C_2   0.418008 0.033472 0.511007 0.176312
C9    C     C_R   0.384069 0.488184 0.666359 0.752478
C10   C     C_R   0.615932 0.511553 0.333591 0.816165
C11   C     C_R   0.314129 0.473719 0.761798 -0.067851
C12   C     C_R   0.685959 0.525332 0.238025 -0.075646
C13   C     C_R   0.067746 0.375867 0.889924 -0.149554
C14   C     C_R   0.932759 0.622195 0.109751 -0.144846
C15   C     C_R   0.121848 0.413287 0.801446 -0.178388
C16   C     C_R   0.878399 0.585102 0.198295 -0.149383
C17   C     C_R   0.447086 0.509144 0.813126 -0.157584
C18   C     C_R   0.553151 0.489716 0.186598 -0.134403
C19   C     C_R   0.392226 0.489537 0.903951 0.102627
C20   C     C_R   0.608283 0.509063 0.095702 0.098663
C21   C     C_R   0.203488 0.407432 0.940267 0.063847
C22   C     C_R   0.797109 0.590881 0.059377 0.061585
C23   C     C_R   0.524994 0.532710 0.957355 -0.067533
C24   C     C_R   0.475721 0.465851 0.042214 -0.072501
Cu1   Cu    Cu3+1 0.322120 0.483240 0.490330 1.008123
Cu2   Cu    Cu3+1 0.677880 0.516760 0.509670 0.993867
H1    H     H_    0.019258 0.266338 0.046931 0.196767
H2    H     H_    0.981785 0.731519 0.952605 0.193694
H3    H     H_    0.403856 0.459396 0.219288 0.199988
H4    H     H_    0.596320 0.539383 0.780375 0.197337
H5    H     H_    0.983669 0.613855 0.236686 0.172298
H6    H     H_    0.016603 0.384303 0.763031 0.152587
H7    H     H_    0.921580 0.316748 0.918173 0.159921
H8    H     H_    0.079080 0.680910 0.081476 0.162885
H9    H     H_    0.000313 0.607406 0.572260 0.228257
H10   H     H_    0.998356 0.389311 0.428954 0.254216
N1    N     N_2   0.945180 0.542040 0.524240 -0.202812
N2    N     N_2   0.054820 0.457960 0.475760 -0.189847
O1    O     O_R   0.384450 0.714270 0.493720 -0.557393
O2    O     O_R   0.615550 0.285730 0.506280 -0.562875
O3    O     O_R   0.684880 0.742590 0.510050 -0.549787
O4    O     O_R   0.315120 0.257410 0.489950 -0.538218
O5    O     O_R   0.265540 0.477900 0.617090 -0.605710
O6    O     O_R   0.734460 0.522100 0.382910 -0.583573
O7    O     O_R   0.565970 0.506210 0.633420 -0.596684
O8    O     O_R   0.434030 0.493790 0.366580 -0.575094
Cl1   Cl    Cl    0.245827 0.214688 0.150355 -0.624292
Cl2   Cl    Cl    0.756093 0.783321 0.848806 -0.697472
O9    O     O_3   0.729433 0.053956 0.534430 -0.547914
C25   C     C_3   0.703110 0.077166 0.625924 -0.250434
H11   H     H_    0.677435 0.963781 0.659241 0.161886
H12   H     H_    0.583837 0.137516 0.654872 0.137509
H13   H     H_    0.834565 0.154101 0.638886 0.189215
O10   O     O_3   0.236967 0.946321 0.510798 -0.544382
C26   C     C_3   0.126408 0.936905 0.598245 -0.210690
H14   H     H_    0.121262 0.055356 0.628893 0.139423
H15   H     H_    0.181067 0.867562 0.638410 0.132311
H16   H     H_    0.978255 0.875711 0.598584 0.214843

loop_
_geom_bond_atom_site_label_1
_geom_bond_atom_site_label_2
_ccdc_geom_bond_type
Cu1   O4    S    
C14   H8    S    
C1    O3    A    
C25   H12   S    
C23   C24   A    
Cu2   N1    S    
C13   H7    S    
N1    N2    D    
C6    H2    S    
Cu1   N2    S    
C19   C23   A    
C26   H14   S    
Cu1   O5    S    
C11   C15   A    
C13   C15   A    
C25   H11   S    
C13   C21   A    
C7    C8    D    
C18   H3    S    
C1    C7    S    
Cu1   O1    S    
C16   H5    S    
C9    O7    A    
C17   H4    S    
C9    C11   S    
Cu2   O2    S    
C3    C24   A    
C10   C12   S    
C2    O4    A    
C3    Cl1   S    
C19   C21   A    
C20   C22   A    
C18   C20   A    
C26   H15   S    
C14   C22   A    
C14   C16   A    
C9    O5    A    
C25   H13   S    
C1    O1    A    
Cu2   O6    S    
H10   N2    S    
C6    C22   A    
C17   C19   A    
C2    O2    A    
C10   O8    A    
C15   H6    S    
C5    C21   A    
C7    O9    S    
C4    C6    A    
O9    C25   S    
C4    Cl2   S    
C26   H16   S    
C8    O10   S    
C4    C23   A    
C20   C24   A    
O10   C26   S    
C11   C17   A    
Cu2   O7    S    
H9    N1    S    
Cu1   Cu2   S    
C5    H1    S    
C10   O6    A    
Cu1   O8    S    
C2    C8    S    
C12   C16   A    
Cu2   O3    S    
C3    C5    A    
C12   C18   A    
