data_mof_unit_36867.cif
_audit_creation_date              2012-12-10T20:28:41-0500
_audit_creation_method            fapswitch 2.2
_symmetry_space_group_name_H-M    P1
_symmetry_Int_Tables_number       1
_space_group_crystal_system       triclinic
_cell_length_a                    10.72489
_cell_length_b                    10.750581
_cell_length_c                    9.932713
_cell_angle_alpha                 88.737062
_cell_angle_beta                  91.106886
_cell_angle_gamma                 92.203022
_cell_volume                      1143.90986864

loop_
_atom_site_label
_atom_site_type_symbol
_atom_type_description
_atom_site_fract_x
_atom_site_fract_y
_atom_site_fract_z
_atom_type_partial_charge
C1    C     C_R   0.504429 0.260630 0.501233 0.979073
C2    C     C_R   0.070329 0.571071 0.614672 0.078239
C3    C     C_R   0.130835 0.539578 0.496206 -0.140395
C4    C     C_R   0.062401 0.510751 0.379914 -0.096663
C5    C     C_R   0.935575 0.494671 0.385349 -0.159254
C6    C     C_R   0.875541 0.502086 0.508523 -0.123334
C7    C     C_R   0.525451 0.059758 0.620062 0.052935
C8    C     C_R   0.524853 0.130567 0.502013 -0.088115
C9    C     C_R   0.551428 0.073393 0.381307 -0.214995
C10   C     C_R   0.549207 0.944401 0.374660 -0.040203
C11   C     C_R   0.527413 0.872880 0.495005 -0.157153
C12   C     C_R   0.262047 0.515455 0.498613 0.921382
C13   C     C_R   0.533778 0.934106 0.617357 0.053210
C14   C     C_3   0.466566 0.915077 0.747156 -0.449059
C15   C     C_3   0.455695 0.056785 0.749634 -0.125368
C16   C     C_R   0.429295 0.413657 0.071826 0.063645
C17   C     C_R   0.582502 0.573934 0.071087 0.474034
C18   C     C_R   0.580737 0.576049 0.928917 0.424775
C19   C     C_R   0.429883 0.413020 0.929790 0.162999
C20   C     C_3   0.291717 0.392042 0.921965 -0.507649
C21   C     C_3   0.291052 0.394464 0.075210 -0.276404
C22   C     C_R   0.505832 0.740199 0.498153 0.862437
C23   C     C_R   0.740719 0.497300 0.502517 0.871759
C24   C     C_R   0.131745 0.637232 0.719848 -0.222217
C25   C     C_R   0.075971 0.646826 0.845664 -0.028797
C26   C     C_R   0.960917 0.584947 0.866800 -0.143097
C27   C     C_R   0.897064 0.527077 0.760475 -0.147965
C28   C     C_R   0.944994 0.532787 0.628283 0.097653
H1    H     H_    0.106765 0.496607 0.285223 0.199925
H2    H     H_    0.527965 0.876206 0.827870 0.246761
H3    H     H_    0.245320 0.471670 0.874000 0.212879
H4    H     H_    0.263778 0.301105 0.878358 0.237545
H5    H     H_    0.244545 0.476755 0.113526 0.164532
H6    H     H_    0.223017 0.680959 0.704051 0.186783
H7    H     H_    0.919540 0.581626 0.965540 0.209663
H8    H     H_    0.813719 0.474060 0.787177 0.202578
H9    H     H_    0.885094 0.473090 0.292672 0.192036
H10   H     H_    0.563990 0.128403 0.289793 0.178435
H11   H     H_    0.376613 0.861937 0.732215 0.234235
N1    N     N_R   0.499160 0.499140 0.142800 -0.207949
N2    N     N_R   0.499160 0.499180 0.857150 -0.190676
O1    O     O_R   0.500020 0.316790 0.614690 -0.578962
O2    O     O_R   0.500000 0.316760 0.385350 -0.629782
O3    O     O_R   0.316770 0.500020 0.614690 -0.620482
O4    O     O_R   0.316760 0.499980 0.385350 -0.604128
O5    O     O_R   0.500000 0.683240 0.614650 -0.642092
O6    O     O_R   0.499980 0.683210 0.385310 -0.623406
O7    O     O_R   0.683240 0.500020 0.614650 -0.656818
O8    O     O_R   0.683230 0.499980 0.385310 -0.642798
Zn1   Zn    Zn3+2 0.500010 0.500020 0.653130 0.974840
Zn2   Zn    Zn3+2 0.499990 0.499980 0.346870 0.983579
C29   C     C_2   0.320689 0.093028 0.741035 0.891312
O9    O     O_2   0.251090 0.063329 0.833400 -0.550048
O10   O     O_R   0.274090 0.157083 0.628045 -0.816142
H12   H     H_    0.182557 0.175563 0.635844 0.348363
C30   C     C_2   0.529545 0.117273 0.863076 0.919628
O11   O     O_2   0.613899 0.194090 0.839375 -0.628812
O12   O     O_R   0.501637 0.084496 0.995830 -0.728351
H13   H     H_    0.555955 0.133351 0.062008 0.341267
O13   O     O_3   0.671605 0.649247 0.133008 -0.721558
H14   H     H_    0.651967 0.653825 0.228374 0.381181
O14   O     O_3   0.661865 0.660671 0.867536 -0.751344
H15   H     H_    0.655054 0.651248 0.770123 0.381800
C31   C     C_2   0.250144 0.272939 0.142850 1.024566
O15   O     O_2   0.295674 0.175346 0.111922 -0.544332
O16   O     O_R   0.159534 0.272409 0.241903 -0.821054
H16   H     H_    0.140314 0.186075 0.281092 0.362163
C32   C     C_2   0.140982 0.714579 0.956629 0.928655
O17   O     O_2   0.091414 0.722429 0.065883 -0.598881
O18   O     O_R   0.259167 0.770135 0.936613 -0.803573
H17   H     H_    0.291204 0.817967 0.017649 0.411855
C33   C     C_2   0.562122 0.893879 0.239040 0.988121
O19   O     O_2   0.473747 0.839258 0.184106 -0.587872
O20   O     O_R   0.672231 0.919927 0.169011 -0.766446
H18   H     H_    0.667627 0.888928 0.073312 0.391329

loop_
_geom_bond_atom_site_label_1
_geom_bond_atom_site_label_2
_ccdc_geom_bond_type
C16   C21   S    
C5    H9    S    
C1    C8    S    
C19   C20   S    
C7    C8    A    
C26   C27   A    
C5    C6    A    
C23   O8    A    
C21   H5    S    
O4    Zn2   S    
C30   O11   D    
C21   C31   S    
C3    C12   S    
C14   H11   S    
C32   O17   D    
C1    O2    A    
C6    C28   A    
C8    C9    A    
O8    Zn2   S    
O18   H17   S    
C9    C10   A    
C4    H1    S    
O7    Zn1   S    
C22   O6    A    
C13   C14   S    
C25   C32   S    
C14   H2    S    
C29   O10   S    
O20   H18   S    
C24   C25   A    
C33   O20   S    
C18   N2    A    
C4    C5    A    
O6    Zn2   S    
O12   H13   S    
C24   H6    S    
O13   H14   S    
C17   N1    A    
C31   O16   S    
O14   H15   S    
C26   H7    S    
C17   C18   A    
C15   C29   S    
C16   N1    A    
C22   O5    A    
O1    Zn1   S    
C2    C24   A    
C3    C4    A    
N2    Zn1   S    
C29   O9    D    
C20   H4    S    
O3    Zn1   S    
O10   H12   S    
C23   O7    A    
C18   O14   S    
C33   O19   D    
C12   O4    A    
C27   H8    S    
N1    Zn2   S    
O5    Zn1   S    
C11   C22   S    
C15   C30   S    
C2    C3    A    
C25   C26   A    
C12   O3    A    
C31   O15   D    
C11   C13   A    
O2    Zn2   S    
C16   C19   A    
C6    C23   S    
C7    C15   S    
C9    H10   S    
C30   O12   S    
O16   H16   S    
C10   C11   A    
C17   O13   S    
C1    O1    A    
C7    C13   A    
C20   C21   S    
C32   O18   S    
C27   C28   A    
C14   C15   S    
C2    C28   A    
C19   N2    A    
C20   H3    S    
C10   C33   S    
