data_mof_unit_42008.cif
_audit_creation_date              2013-03-05T15:42:03-0500
_audit_creation_method            fapswitch 2.2
_symmetry_space_group_name_H-M    P1
_symmetry_Int_Tables_number       1
_space_group_crystal_system       triclinic
_cell_length_a                    27.805303
_cell_length_b                    8.674682
_cell_length_c                    7.431469
_cell_angle_alpha                 103.043051
_cell_angle_beta                  94.084316
_cell_angle_gamma                 92.456945
_cell_volume                      1738.59938315

loop_
_atom_site_label
_atom_site_type_symbol
_atom_site_description
_atom_site_fract_x
_atom_site_fract_y
_atom_site_fract_z
_atom_type_partial_charge
O1    O     O_R   0.503500 0.286120 0.619780 -0.594688
O2    O     O_R   0.496500 0.713880 0.380220 -0.594770
O3    O     O_R   0.494410 0.256780 0.308360 -0.567108
O4    O     O_R   0.505590 0.743220 0.691640 -0.566860
C1    C     C_R   0.498531 0.199607 0.453132 0.897830
C2    C     C_R   0.501470 0.800393 0.546868 0.898169
O5    O     O_R   0.434810 0.514700 0.655690 -0.597616
O6    O     O_R   0.565190 0.485300 0.344310 -0.597669
O7    O     O_R   0.425720 0.485350 0.344280 -0.537814
O8    O     O_R   0.574280 0.514650 0.655720 -0.538030
C3    C     C_R   0.407465 0.494787 0.501805 0.843291
C4    C     C_R   0.592530 0.505312 0.498209 0.843904
Cu1   Cu    Cu3+1 0.505380 0.517380 0.684380 1.019335
Cu2   Cu    Cu3+1 0.494620 0.482620 0.315620 1.019330
C5    C     C_R   0.175353 0.353208 0.498157 0.553545
C6    C     C_R   0.824658 0.647484 0.502035 0.553406
O9    O     O_2   0.197240 0.214860 0.471892 -0.499825
O10   O     O_2   0.802774 0.785832 0.527968 -0.499835
N1    N     N_R   0.202538 0.493557 0.531840 -0.461118
N2    N     N_R   0.797469 0.507146 0.468525 -0.461094
C7    C     C_R   0.181420 0.635696 0.564746 0.548298
C8    C     C_R   0.818595 0.365012 0.435880 0.548243
C9    C     C_R   0.284905 0.557365 0.682234 -0.036154
C10   C     C_R   0.715113 0.442561 0.318185 -0.036793
C11   C     C_R   0.334751 0.555909 0.673507 -0.199094
C12   C     C_R   0.665265 0.443833 0.326842 -0.200504
C13   C     C_R   0.323096 0.414902 0.348726 0.310781
C14   C     C_R   0.676864 0.586449 0.651087 0.310210
C15   C     C_R   0.273148 0.421338 0.358560 -0.156694
C16   C     C_R   0.726819 0.580095 0.641358 -0.156623
C17   C     C_R   0.253949 0.491192 0.524492 0.268071
C18   C     C_R   0.746051 0.509511 0.475738 0.268321
C19   C     C_R   0.102166 0.497025 0.521572 -0.042742
C20   C     C_R   0.897849 0.503673 0.478953 -0.042748
C21   C     C_R   0.124777 0.352336 0.490643 -0.026857
C22   C     C_R   0.875237 0.648356 0.509696 -0.026769
C23   C     C_R   0.096610 0.209991 0.451260 -0.149214
C24   C     C_R   0.903405 0.790699 0.549025 -0.149173
C25   C     C_R   0.130969 0.640015 0.561640 -0.024046
C26   C     C_R   0.869046 0.360689 0.439009 -0.024015
C27   C     C_R   0.354511 0.486799 0.507238 -0.167466
C28   C     C_R   0.645479 0.513585 0.492822 -0.166641
H1    H     H_    0.248882 0.368153 0.237777 0.184292
H2    H     H_    0.751068 0.633936 0.761936 0.184774
H3    H     H_    0.113135 0.097079 0.426887 0.185487
H4    H     H_    0.886880 0.903608 0.573280 0.185435
C29   C     C_R   0.971229 0.354529 0.456847 0.044124
C30   C     C_R   0.028787 0.646168 0.543784 0.044109
C31   C     C_R   0.977542 0.647814 0.531609 0.045617
C32   C     C_R   0.022475 0.352881 0.468932 0.045616
C33   C     C_R   0.949106 0.501995 0.489001 0.069836
C34   C     C_R   0.050909 0.498702 0.511570 0.069846
C35   C     C_R   0.940987 0.213229 0.412928 -0.215361
C36   C     C_R   0.059029 0.787472 0.587837 -0.215368
C37   C     C_R   0.891053 0.216661 0.405138 -0.139237
C38   C     C_R   0.108963 0.784043 0.595647 -0.139257
O11   O     O_2   0.790921 0.228358 0.403779 -0.500567
O12   O     O_2   0.209101 0.772347 0.597089 -0.500625
C39   C     C_R   0.046592 0.209840 0.440374 -0.211405
C40   C     C_R   0.953424 0.790851 0.560024 -0.211393
H5    H     H_    0.642137 0.388269 0.203720 0.192015
H6    H     H_    0.357898 0.610801 0.796817 0.192549
H7    H     H_    0.729740 0.388735 0.189125 0.170717
H8    H     H_    0.270300 0.610661 0.811503 0.170852
H9    H     H_    0.869682 0.105006 0.372075 0.196249
H10   H     H_    0.130335 0.895701 0.628800 0.196224
H11   H     H_    0.954439 0.096637 0.383105 0.138016
H12   H     H_    0.045576 0.904061 0.617776 0.138070
H13   H     H_    0.028116 0.094342 0.408850 0.133694
H14   H     H_    0.971901 0.906344 0.591472 0.133646
C41   C     C_2   0.497804 0.031658 0.426725 -0.331342
C42   C     C_2   0.502199 0.968342 0.573275 -0.330943
H15   H     H_    0.493653 0.959811 0.285592 0.185355
H16   H     H_    0.506350 0.040189 0.714408 0.185372
N3    N     N_2   0.486510 0.456430 0.038510 -0.212593
N4    N     N_2   0.513490 0.543570 0.961490 -0.212688
H17   H     H_    0.462130 0.378190 0.948417 0.248619
H18   H     H_    0.537869 0.621812 0.051583 0.248504
N5    N     N_R   0.340844 0.328714 0.180489 0.135523
O13   O     O_R   0.320345 0.338612 0.020858 -0.356579
O14   O     O_R   0.370909 0.218655 0.186183 -0.343843
N6    N     N_R   0.659080 0.673697 0.818744 0.135281
O15   O     O_R   0.679928 0.666476 0.978869 -0.355057
O16   O     O_R   0.628614 0.782386 0.811639 -0.344337

loop_
_geom_bond_atom_site_label_1
_geom_bond_atom_site_label_2
_geom_bond_distance
_ccdc_geom_bond_type
O5    Cu1   1.957182 S    
C13   C15   1.398758 A    
O7    Cu2   1.943166 S    
N1    C17   1.435263 S    
C8    O11   1.349908 S    
C19   C34   1.422705 A    
C30   C36   1.417053 A    
C20   C33   1.422745 A    
C19   C25   1.408128 A    
C31   C40   1.416723 A    
O1    C1    1.289677 A    
C32   C39   1.416735 A    
N1    C7    1.367963 A    
C12   H5    1.083330 S    
N4    H18   1.029183 S    
C13   N5    1.436397 S    
C36   H12   1.074728 S    
C14   C28   1.419618 A    
O4    Cu1   1.947368 S    
C4    C28   1.474756 S    
C31   C33   1.422409 A    
C32   C34   1.422416 A    
C6    N2    1.368588 A    
C29   C35   1.417041 A    
Cu1   Cu2   2.681954 S    
C15   H1    1.083485 S    
C15   C17   1.398937 A    
C16   H2    1.083393 S    
O2    C2    1.289677 A    
C35   H11   1.074714 S    
C5    C21   1.403051 A    
C37   H9    1.083531 S    
O5    C3    1.300570 A    
C29   C32   1.422213 A    
C35   C37   1.387400 A    
C36   C38   1.387391 A    
C14   N6    1.436629 S    
O4    C2    1.282476 A    
C11   C27   1.406647 A    
C41   H15   1.087809 S    
C29   C33   1.422079 A    
C2    C42   1.424552 S    
C9    C17   1.398131 A    
C5    N1    1.368527 A    
N3    N4    1.292140 D    
C10   C18   1.398199 A    
O7    C3    1.296034 A    
C13   C27   1.419411 A    
C25   C38   1.394387 A    
C7    C25   1.403600 A    
Cu1   N4    2.015343 S    
C40   H14   1.074894 S    
O6    C4    1.300505 A    
C26   C37   1.394391 A    
C8    C26   1.403593 A    
N3    H17   1.029183 S    
C23   C39   1.387293 A    
O3    Cu2   1.947368 S    
O8    C4    1.295981 A    
C39   H13   1.074898 S    
C24   C40   1.387313 A    
C42   H16   1.087809 S    
C9    H8    1.082930 S    
N2    C8    1.368034 A    
C10   H7    1.083061 S    
N6    O16   1.301509 A    
C20   C26   1.408092 A    
O1    Cu1   1.952025 S    
C23   H3    1.083355 S    
C12   C28   1.406621 A    
N5    O14   1.301458 A    
N2    C18   1.435369 S    
C5    O9    1.350030 S    
C30   C31   1.422211 A    
O6    Cu2   1.957182 S    
C21   C23   1.394659 A    
C10   C12   1.392498 A    
O3    C1    1.282476 A    
O8    Cu1   1.943169 S    
Cu2   N3    2.015343 S    
C14   C16   1.398831 A    
C7    O12   1.349882 S    
C1    C41   1.424554 S    
C6    C22   1.403074 A    
C16   C18   1.399064 A    
C38   H10   1.083553 S    
C22   C24   1.394670 A    
C19   C21   1.407646 A    
C3    C27   1.474899 S    
C20   C22   1.407619 A    
C11   H6    1.083278 S    
C9    C11   1.392551 A    
O2    Cu2   1.952026 S    
C24   H4    1.083327 S    
N5    O13   1.301303 A    
C30   C34   1.422079 A    
C41   C42   1.326462 D    
C6    O10   1.350050 S    
N6    O15   1.301717 A    
