data_mof_unit_16840.cif
_audit_creation_date              2012-12-11T14:42:22-0500
_audit_creation_method            fapswitch 2.2
_symmetry_space_group_name_H-M    P1
_symmetry_Int_Tables_number       1
_space_group_crystal_system       triclinic
_cell_length_a                    19.074898
_cell_length_b                    10.911155
_cell_length_c                    18.812396
_cell_angle_alpha                 89.965694
_cell_angle_beta                  90.454364
_cell_angle_gamma                 89.689828
_cell_volume                      3915.22704941

loop_
_atom_site_label
_atom_site_type_symbol
_atom_type_description
_atom_site_fract_x
_atom_site_fract_y
_atom_site_fract_z
_atom_type_partial_charge
C1    C     C_R   0.727293 0.956033 0.853399 0.551019
C2    C     C_R   0.238563 0.432043 0.929560 0.034982
C3    C     C_R   0.252058 0.916000 0.076212 0.026760
C4    C     C_R   0.748000 0.916137 0.923860 0.028078
C5    C     C_R   0.818618 0.394386 0.029540 -0.129407
C6    C     C_R   0.181324 0.395107 0.970481 -0.129780
C7    C     C_R   0.291640 0.824540 0.043750 -0.139614
C8    C     C_R   0.709140 0.824239 0.956170 -0.138770
C9    C     C_R   0.813068 0.389404 0.956869 -0.133113
C10   C     C_R   0.186774 0.390040 0.043153 -0.134122
C11   C     C_R   0.287917 0.810439 0.971300 -0.123174
C12   C     C_R   0.272671 0.955826 0.146634 0.542935
C13   C     C_R   0.712814 0.809919 0.028617 -0.123190
C14   C     C_R   0.748551 0.412815 0.923651 0.031178
C15   C     C_R   0.251152 0.412994 0.076434 0.029725
C16   C     C_R   0.242957 0.885174 0.930095 0.035348
C17   C     C_R   0.756973 0.884953 0.069944 0.034452
C18   C     C_R   0.562913 0.273758 0.516677 0.280253
C19   C     C_R   0.552570 0.262707 0.443391 0.276400
C20   C     C_R   0.062930 0.773728 0.516667 0.280155
C21   C     C_R   0.052595 0.762657 0.443379 0.276504
C22   C     C_R   0.514018 0.161963 0.418165 -0.024404
C23   C     C_R   0.225492 0.459346 0.855176 0.549862
C24   C     C_R   0.549833 0.172313 0.561039 -0.011063
C25   C     C_R   0.014013 0.661944 0.418165 -0.024584
C26   C     C_R   0.049822 0.672308 0.561040 -0.011119
C27   C     C_R   0.504411 0.058928 0.461134 -0.207801
C28   C     C_R   0.524004 0.063028 0.531906 -0.206105
C29   C     C_R   0.004371 0.558933 0.461145 -0.208007
C30   C     C_R   0.023963 0.563037 0.531916 -0.206253
C31   C     C_R   0.778910 0.302875 0.527875 -0.125682
C32   C     C_R   0.186621 0.385974 0.457645 -0.145950
C33   C     C_R   0.278894 0.802856 0.527870 -0.125924
C34   C     C_R   0.774429 0.459073 0.144860 0.541557
C35   C     C_R   0.686634 0.885896 0.457660 -0.146005
C36   C     C_R   0.783369 0.321395 0.455745 -0.151180
C37   C     C_R   0.181389 0.392937 0.530255 -0.138740
C38   C     C_R   0.283353 0.821377 0.455739 -0.151013
C39   C     C_R   0.681408 0.892851 0.530270 -0.138681
C40   C     C_R   0.530102 0.177666 0.850949 0.562421
C41   C     C_R   0.469994 0.177389 0.149117 0.546025
C42   C     C_R   0.029897 0.677717 0.850849 0.560898
C43   C     C_R   0.970161 0.677428 0.149192 0.544493
C44   C     C_R   0.756666 0.429144 0.426422 0.034830
C45   C     C_R   0.697733 0.463616 0.037352 -0.148932
C46   C     C_R   0.238964 0.430037 0.571836 0.031031
C47   C     C_R   0.256662 0.929137 0.426419 0.035550
C48   C     C_R   0.738975 0.930001 0.571845 0.031447
C49   C     C_R   0.724433 0.518032 0.469747 -0.078917
C50   C     C_R   0.302346 0.459828 0.539277 -0.152546
C51   C     C_R   0.224442 0.018036 0.469747 -0.078642
C52   C     C_R   0.802349 0.959830 0.539281 -0.152493
C53   C     C_R   0.720660 0.499877 0.542732 -0.081278
C54   C     C_R   0.308416 0.448577 0.465911 -0.145065
C55   C     C_R   0.220671 0.999881 0.542731 -0.081203
C56   C     C_R   0.301915 0.463722 0.962824 -0.147091
C57   C     C_R   0.808416 0.948579 0.465914 -0.145304
C58   C     C_R   0.748008 0.392026 0.571776 0.061132
C59   C     C_R   0.250734 0.408852 0.425085 0.022530
C60   C     C_R   0.248005 0.892018 0.571773 0.060632
C61   C     C_R   0.750738 0.908824 0.425093 0.022164
C62   C     C_R   0.738270 0.364829 0.852487 0.547710
C63   C     C_R   0.261633 0.364679 0.147551 0.543958
C64   C     C_R   0.236721 0.857738 0.854997 0.550623
C65   C     C_R   0.763253 0.857453 0.145025 0.546566
C66   C     C_R   0.726222 0.958273 0.646039 0.537421
C67   C     C_R   0.203675 0.986115 0.036144 -0.132843
C68   C     C_R   0.273625 0.959226 0.353884 0.523692
C69   C     C_R   0.226218 0.458285 0.646035 0.539440
C70   C     C_R   0.773627 0.459231 0.353886 0.525448
C71   C     C_R   0.563521 0.180551 0.637230 0.592997
C72   C     C_R   0.471725 0.175190 0.354314 0.551234
C73   C     C_R   0.063517 0.680550 0.637229 0.592751
C74   C     C_R   0.971724 0.675187 0.354313 0.550907
C75   C     C_R   0.739052 0.360560 0.645740 0.543278
C76   C     C_R   0.260867 0.362556 0.353623 0.538141
C77   C     C_R   0.239051 0.860557 0.645739 0.545581
C78   C     C_R   0.795647 0.986535 0.964076 -0.132750
C79   C     C_R   0.760869 0.862549 0.353626 0.540367
C80   C     C_2   0.497899 0.168572 0.921028 -0.110674
C81   C     C_2   0.502285 0.167940 0.079087 -0.112608
C82   C     C_2   0.997884 0.669263 0.921095 -0.107039
C83   C     C_2   0.002166 0.668537 0.078949 -0.108882
C84   C     C_2   0.491562 0.068923 0.038000 -0.155825
C85   C     C_2   0.508493 0.069013 0.961952 -0.157579
C86   C     C_2   0.992530 0.568769 0.038247 -0.162681
C87   C     C_2   0.007033 0.568838 0.961575 -0.164414
C88   C     C_R   0.691088 0.452983 0.963877 -0.142086
C89   C     C_R   0.761301 0.431674 0.070533 0.034870
C90   C     C_R   0.308481 0.453018 0.036295 -0.141512
C91   C     C_R   0.198917 0.970183 0.962999 -0.140599
C92   C     C_R   0.800333 0.970442 0.037206 -0.141376
C93   C     C_3   0.533808 0.470527 0.544687 -0.082237
C94   C     C_3   0.617035 0.313091 0.345619 -0.090481
C95   C     C_3   0.033852 0.970518 0.544649 -0.082318
C96   C     C_3   0.117087 0.812913 0.345602 -0.090935
Cr1   Cr    Cr6+3 0.769270 0.163730 0.750710 1.006477
Cr2   Cr    Cr6+3 0.385840 0.322500 0.252290 1.024569
Cr3   Cr    Cr6+3 0.114160 0.822500 0.747710 1.031754
Cr4   Cr    Cr6+3 0.885840 0.822500 0.252290 1.028322
Cr5   Cr    Cr6+3 0.230730 0.163730 0.249290 1.009211
Cr6   Cr    Cr6+3 0.269270 0.663730 0.750710 1.006944
Cr7   Cr    Cr6+3 0.730730 0.663730 0.249290 1.009348
Cr8   Cr    Cr6+3 0.612620 0.009790 0.748780 1.010239
Cr9   Cr    Cr6+3 0.387380 0.009790 0.251220 1.012504
Cr10  Cr    Cr6+3 0.112620 0.509790 0.748780 1.006101
Cr11  Cr    Cr6+3 0.887380 0.509790 0.251220 1.008216
Cr12  Cr    Cr6+3 0.614160 0.322500 0.747710 1.028178
H1    H     H_    0.468962 0.986027 0.059889 0.157208
H2    H     H_    0.346725 0.491502 0.570343 0.111923
H3    H     H_    0.204834 0.103388 0.447674 0.139893
H4    H     H_    0.846723 0.991537 0.570342 0.111910
H5    H     H_    0.696029 0.568347 0.576071 0.116828
H6    H     H_    0.358799 0.465655 0.441770 0.134980
H7    H     H_    0.196051 0.068360 0.576073 0.117215
H8    H     H_    0.858793 0.965692 0.441767 0.134892
H9    H     H_    0.526622 0.249354 0.057185 0.105073
H10   H     H_    0.473697 0.250411 0.943069 0.105925
H11   H     H_    0.024765 0.751061 0.056566 0.111200
H12   H     H_    0.530943 0.985731 0.939912 0.156305
H13   H     H_    0.975651 0.752325 0.943658 0.112132
H14   H     H_    0.640542 0.470584 0.939185 0.128672
H15   H     H_    0.358917 0.470365 0.061042 0.129466
H16   H     H_    0.162310 0.025381 0.932254 0.123862
H17   H     H_    0.836340 0.025895 0.068070 0.123812
H18   H     H_    0.653523 0.495777 0.068081 0.116188
H19   H     H_    0.346042 0.495662 0.932164 0.117962
H20   H     H_    0.172528 0.057745 0.060498 0.136634
H21   H     H_    0.826222 0.058521 0.939854 0.137198
H22   H     H_    0.868805 0.371253 0.053281 0.126470
H23   H     H_    0.972954 0.484596 0.061224 0.140814
H24   H     H_    0.131278 0.372229 0.946685 0.126646
H25   H     H_    0.328530 0.768536 0.073713 0.128055
H26   H     H_    0.672845 0.768009 0.926083 0.128877
H27   H     H_    0.858421 0.359069 0.927169 0.130676
H28   H     H_    0.141509 0.359924 0.072793 0.129846
H29   H     H_    0.320399 0.739791 0.947804 0.139520
H30   H     H_    0.680933 0.738901 0.052019 0.140386
H31   H     H_    0.477044 0.978767 0.441660 0.154880
H32   H     H_    0.514034 0.983444 0.564641 0.150451
H33   H     H_    0.976980 0.478791 0.441678 0.154864
H34   H     H_    0.026139 0.484177 0.938398 0.139870
H35   H     H_    0.013967 0.483473 0.564660 0.150326
H36   H     H_    0.799050 0.217503 0.549278 0.138199
H37   H     H_    0.141288 0.355601 0.427500 0.134947
H38   H     H_    0.299024 0.717477 0.549272 0.137982
H39   H     H_    0.641304 0.855495 0.427521 0.135176
H40   H     H_    0.551035 0.549792 0.577190 0.119187
H41   H     H_    0.484673 0.435024 0.568619 0.111797
H42   H     H_    0.523109 0.504986 0.490095 0.154705
H43   H     H_    0.589551 0.253254 0.306968 0.112549
H44   H     H_    0.662726 0.262775 0.368619 0.103190
H45   H     H_    0.808764 0.252759 0.423057 0.122455
H46   H     H_    0.636317 0.391748 0.314465 0.158470
H47   H     H_    0.051091 0.049796 0.577134 0.119279
H48   H     H_    0.984712 0.935053 0.568590 0.111720
H49   H     H_    0.023158 0.004945 0.490049 0.154695
H50   H     H_    0.089584 0.753072 0.306966 0.111894
H51   H     H_    0.162764 0.762577 0.368613 0.102554
H52   H     H_    0.136394 0.891526 0.314425 0.158264
H53   H     H_    0.131118 0.371714 0.553411 0.133773
H54   H     H_    0.308738 0.752733 0.423049 0.122080
H55   H     H_    0.631143 0.871591 0.553430 0.133782
H56   H     H_    0.704815 0.603375 0.447672 0.139708
O1    O     O_R   0.784320 0.290430 0.830510 -0.523771
O2    O     O_R   0.456080 0.282180 0.333210 -0.479769
O3    O     O_R   0.043920 0.782180 0.666790 -0.487686
O4    O     O_R   0.956080 0.782180 0.333210 -0.479809
O5    O     O_R   0.679040 0.374160 0.674430 -0.485723
O6    O     O_R   0.320960 0.374160 0.325570 -0.505527
O7    O     O_R   0.179040 0.874160 0.674430 -0.484688
O8    O     O_R   0.820960 0.874160 0.325570 -0.504507
O9    O     O_3   0.665350 0.165340 0.749070 -0.270450
O10   O     O_3   0.334650 0.165340 0.250930 -0.244055
O11   O     O_3   0.165350 0.665340 0.749070 -0.273429
O12   O     O_R   0.215680 0.290430 0.169490 -0.525494
O13   O     O_3   0.834650 0.665340 0.250930 -0.247011
O14   O     O_R   0.762640 0.040960 0.825200 -0.502832
O15   O     O_R   0.237360 0.040960 0.174800 -0.508535
O16   O     O_R   0.262640 0.540960 0.825200 -0.503984
O17   O     O_R   0.737360 0.540960 0.174800 -0.509845
O18   O     O_R   0.667400 0.923970 0.829950 -0.522821
O19   O     O_R   0.332600 0.923970 0.170050 -0.523919
O20   O     O_R   0.167400 0.423970 0.829950 -0.525976
O21   O     O_R   0.832600 0.423970 0.170050 -0.527824
O22   O     O_R   0.553960 0.081340 0.821780 -0.490058
O23   O     O_R   0.284320 0.790430 0.830510 -0.524449
O24   O     O_R   0.446040 0.081340 0.178220 -0.497155
O25   O     O_R   0.053960 0.581340 0.821780 -0.494808
O26   O     O_R   0.946040 0.581340 0.178220 -0.501822
O27   O     O_R   0.543180 0.283240 0.826740 -0.518528
O28   O     O_R   0.456820 0.283240 0.173260 -0.522625
O29   O     O_R   0.043180 0.783240 0.826740 -0.514476
O30   O     O_R   0.956820 0.783240 0.173260 -0.518324
O31   O     O_R   0.678360 0.375140 0.822710 -0.508431
O32   O     O_R   0.321640 0.375140 0.177290 -0.505733
O33   O     O_R   0.178360 0.875140 0.822710 -0.505202
O34   O     O_R   0.715680 0.790430 0.169490 -0.526940
O35   O     O_R   0.821640 0.875140 0.177290 -0.502377
O36   O     O_R   0.785050 0.289380 0.670560 -0.532960
O37   O     O_R   0.214950 0.289380 0.329440 -0.526486
O38   O     O_R   0.285050 0.789380 0.670560 -0.531220
O39   O     O_R   0.714950 0.789380 0.329440 -0.524838
O40   O     O_R   0.763320 0.039990 0.676930 -0.507695
O41   O     O_R   0.236680 0.039990 0.323070 -0.512527
O42   O     O_R   0.263320 0.539990 0.676930 -0.506931
O43   O     O_R   0.736680 0.539990 0.323070 -0.511777
O44   O     O_R   0.668130 0.922920 0.670000 -0.536124
O45   O     O_R   0.554640 0.080370 0.673500 -0.516597
O46   O     O_R   0.331870 0.922920 0.330000 -0.522122
O47   O     O_R   0.168130 0.422920 0.670000 -0.534326
O48   O     O_R   0.831870 0.422920 0.330000 -0.520361
O49   O     O_3   0.588035 0.381816 0.545053 -0.540034
O50   O     O_3   0.572173 0.358197 0.399187 -0.550181
O51   O     O_3   0.088066 0.881781 0.545035 -0.540242
O52   O     O_3   0.072240 0.858101 0.399161 -0.549886
O53   O     O_R   0.445360 0.080370 0.326500 -0.513580
O54   O     O_R   0.054640 0.580370 0.673500 -0.516951
O55   O     O_R   0.945360 0.580370 0.326500 -0.513739
O56   O     O_R   0.543920 0.282180 0.666790 -0.487417

loop_
_geom_bond_atom_site_label_1
_geom_bond_atom_site_label_2
_ccdc_geom_bond_type
C44   C49   A    
Cr8   O18   S    
C8    C13   A    
C53   C58   A    
Cr4   O8    S    
C95   O51   S    
C90   H15   S    
C96   H50   S    
C28   H32   S    
C4    C8    A    
C68   O46   A    
C77   O38   A    
C74   O4    A    
Cr5   O10   S    
C63   O12   A    
C42   O29   A    
C75   O36   A    
C7    C11   A    
C72   O53   A    
C55   C60   A    
C69   O42   A    
C29   C30   A    
C20   C26   A    
C93   H40   S    
C43   O30   A    
C18   C24   A    
Cr8   O45   S    
C31   C58   A    
Cr4   O4    S    
C78   H21   S    
Cr7   O43   S    
C7    H25   S    
C3    C7    A    
C10   C15   A    
C31   C36   A    
Cr2   O10   S    
Cr1   O1    S    
C86   H23   S    
C12   O19   A    
Cr3   O7    S    
C52   H4    S    
C94   H44   S    
C82   C87   D    
C14   C62   S    
C81   H9    S    
C50   H2    S    
C26   C73   S    
C43   C83   S    
C34   O17   A    
C95   H48   S    
C1    O14   A    
C56   H19   S    
C83   H11   S    
C31   H36   S    
C49   H56   S    
C21   C25   A    
C3    C12   S    
C65   O35   A    
C93   H41   S    
C43   O26   A    
C71   O45   A    
C42   C82   S    
C74   O55   A    
C75   O5    A    
Cr10  O11   S    
C40   C80   S    
Cr12  O27   S    
C44   C70   S    
C69   O47   A    
C45   C89   A    
C82   H13   S    
C51   C55   A    
C73   O3    A    
C66   O40   A    
C56   C90   A    
C29   H33   S    
Cr7   O17   S    
C64   O33   A    
Cr11  O13   S    
Cr1   O36   S    
C93   H42   S    
C2    C6    A    
C17   C92   A    
C62   O31   A    
Cr4   O13   S    
C85   H12   S    
C22   C72   S    
C53   H5    S    
C36   H45   S    
C57   H8    S    
Cr3   O3    S    
C54   C59   A    
C25   C29   A    
C25   C74   S    
C80   H10   S    
C60   C77   S    
C94   O50   S    
Cr1   O9    S    
C96   H51   S    
C8    H26   S    
C20   O51   S    
C70   O48   A    
C19   C22   A    
C84   C85   S    
C92   H17   S    
Cr2   O28   S    
Cr11  O21   S    
C52   C57   A    
C76   O37   A    
C18   C19   A    
C47   C51   A    
Cr11  O48   S    
C6    H24   S    
C78   C92   A    
C70   O43   A    
C93   O49   S    
C27   H31   S    
C71   O56   A    
C41   O24   A    
Cr6   O11   S    
Cr7   O34   S    
Cr2   O6    S    
C79   O8    A    
C34   O21   A    
C35   C39   A    
C9    C14   A    
C4    C78   A    
C80   C85   D    
Cr5   O15   S    
C17   C65   S    
C66   O44   A    
C11   C16   A    
Cr6   O38   S    
C48   C52   A    
C45   H18   S    
C77   O7    A    
C41   C81   S    
Cr12  O9    S    
Cr3   O33   S    
C67   C91   A    
C83   C86   D    
C23   O16   A    
C21   O52   S    
Cr2   O32   S    
C35   C61   A    
C35   H39   S    
C32   C37   A    
Cr9   O19   S    
Cr12  O31   S    
C76   O6    A    
Cr6   O42   S    
Cr10  O20   S    
C38   C47   A    
Cr2   O2    S    
Cr5   O41   S    
Cr11  O55   S    
C45   C88   A    
C9    H27   S    
C88   H14   S    
C5    H22   S    
Cr10  O54   S    
C26   C30   A    
C33   C60   A    
Cr9   O53   S    
C91   H16   S    
Cr6   O23   S    
C36   C44   A    
C18   O49   S    
Cr1   O40   S    
C39   H55   S    
C47   C68   S    
C68   O41   A    
C81   C84   D    
Cr9   O24   S    
C37   H53   S    
C86   C87   S    
Cr3   O29   S    
C40   O22   A    
C51   H3    S    
C41   O28   A    
C96   H52   S    
C95   H49   S    
C72   O2    A    
C3    C67   A    
C24   C28   A    
C84   H1    S    
C10   H28   S    
C39   C48   A    
Cr9   O10   S    
C6    C10   A    
C1    O18   A    
C57   C61   A    
Cr8   O9    S    
C32   H37   S    
Cr4   O30   S    
Cr8   O22   S    
C12   O15   A    
C46   C50   A    
C79   O39   A    
C33   C38   A    
C96   O52   S    
C13   C17   A    
Cr6   O16   S    
C22   C27   A    
C19   O50   S    
C48   C66   S    
C13   H30   S    
C1    C4    S    
C94   H43   S    
C34   C89   S    
C14   C88   A    
C23   O20   A    
C50   C54   A    
C2    C56   A    
C67   H20   S    
C15   C90   A    
C94   H46   S    
C42   O25   A    
Cr1   O14   S    
C40   O27   A    
C55   H7    S    
C61   C79   S    
C49   C53   A    
Cr10  O47   S    
C54   H6    S    
Cr11  O26   S    
C73   O54   A    
C95   H47   S    
Cr8   O44   S    
C87   H34   S    
C11   H29   S    
Cr7   O39   S    
C64   O23   A    
C33   H38   S    
Cr9   O46   S    
C65   O34   A    
Cr12  O56   S    
Cr4   O35   S    
C38   H54   S    
C62   O1    A    
Cr3   O11   S    
C20   C21   A    
C30   H35   S    
C16   C91   A    
C2    C23   S    
C46   C69   S    
C15   C63   S    
C63   O32   A    
Cr10  O25   S    
Cr5   O12   S    
Cr5   O37   S    
C5    C9    A    
C16   C64   S    
C32   C59   A    
Cr7   O13   S    
C37   C46   A    
Cr12  O5    S    
C59   C76   S    
C5    C89   A    
C24   C71   S    
C58   C75   S    
C27   C28   A    
