data_mof_unit_54305.cif
_audit_creation_date              2012-12-10T18:04:34-0500
_audit_creation_method            fapswitch 2.2
_symmetry_space_group_name_H-M    P1
_symmetry_Int_Tables_number       1
_space_group_crystal_system       triclinic
_cell_length_a                    19.239558
_cell_length_b                    17.876514
_cell_length_c                    12.619766
_cell_angle_alpha                 88.512215
_cell_angle_beta                  98.674336
_cell_angle_gamma                 90.051197
_cell_volume                      4289.28074393

loop_
_atom_site_label
_atom_site_type_symbol
_atom_type_description
_atom_site_fract_x
_atom_site_fract_y
_atom_site_fract_z
_atom_type_partial_charge
C1    C     C_R   0.413663 0.105535 0.445795 0.918736
C2    C     C_R   0.405985 0.903389 0.441433 0.941135
C3    C     C_R   0.913660 0.605532 0.445792 0.918783
C4    C     C_R   0.905994 0.403375 0.441441 0.941176
C5    C     C_R   0.693554 0.271400 0.501988 0.038960
C6    C     C_R   0.749308 0.784867 0.552260 0.015403
C7    C     C_R   0.193549 0.771414 0.501973 0.038897
C8    C     C_R   0.249296 0.284850 0.552268 0.015355
C9    C     C_R   0.696101 0.311940 0.596537 0.050455
C10   C     C_R   0.759716 0.748583 0.654230 0.025134
C11   C     C_R   0.196109 0.811939 0.596538 0.050437
C12   C     C_R   0.259684 0.248545 0.654222 0.025156
C13   C     C_R   0.223540 0.885155 0.596730 -0.136857
C14   C     C_R   0.324399 0.211897 0.686933 -0.148427
C15   C     C_R   0.723541 0.385153 0.596713 -0.136836
C16   C     C_R   0.824433 0.711936 0.686929 -0.148432
C17   C     C_R   0.265934 0.904824 0.518077 0.430888
C18   C     C_R   0.369152 0.203544 0.609702 0.471697
C19   C     C_R   0.765941 0.404802 0.518060 0.430896
C20   C     C_R   0.869170 0.703566 0.609681 0.471657
C21   C     C_R   0.641103 0.217749 0.481719 -0.013543
C22   C     C_R   0.706676 0.847921 0.539317 0.033790
C23   C     C_R   0.141106 0.717750 0.481716 -0.013435
C24   C     C_R   0.206664 0.347903 0.539338 0.033747
C25   C     C_R   0.640539 0.205624 0.673305 -0.207800
C26   C     C_R   0.648507 0.800858 0.684857 -0.233063
C27   C     C_R   0.140570 0.705607 0.673310 -0.207785
C28   C     C_R   0.148467 0.300813 0.684829 -0.233083
C29   C     C_R   0.347562 0.854354 0.401350 -0.097863
C30   C     C_R   0.369619 0.172110 0.417836 -0.124803
C31   C     C_R   0.847594 0.354302 0.401391 -0.097834
C32   C     C_R   0.869608 0.672099 0.417823 -0.124795
C33   C     C_R   0.637139 0.050474 0.136530 -0.078961
C34   C     C_R   0.137155 0.550435 0.136530 -0.078970
C35   C     C_R   0.379242 0.985930 0.764313 -0.014966
C36   C     C_R   0.879236 0.485958 0.764310 -0.014943
C37   C     C_R   0.351955 0.986135 0.860076 -0.270796
C38   C     C_R   0.851949 0.486177 0.860072 -0.270764
C39   C     C_R   0.591535 0.900076 0.557987 0.868392
C40   C     C_R   0.586411 0.105203 0.552404 0.900759
C41   C     C_R   0.091525 0.400065 0.557983 0.868362
C42   C     C_R   0.086417 0.605199 0.552407 0.900811
C43   C     C_R   0.396187 0.999756 0.955046 -0.160766
C44   C     C_R   0.896186 0.499786 0.955043 -0.160782
C45   C     C_R   0.468353 0.013191 0.954554 0.023341
C46   C     C_R   0.968357 0.513197 0.954552 0.023357
C47   C     C_R   0.493822 0.014109 0.854661 0.107145
C48   C     C_R   0.993826 0.514102 0.854661 0.107138
C49   C     C_R   0.517154 0.021284 0.049865 0.002332
C50   C     C_R   0.017160 0.521283 0.049864 0.002344
C51   C     C_R   0.586062 0.048165 0.043413 0.026868
C52   C     C_R   0.086075 0.548142 0.043413 0.026852
C53   C     C_R   0.604965 0.062671 0.942657 -0.288952
C54   C     C_R   0.104979 0.562643 0.942658 -0.288948
C55   C     C_R   0.566066 0.030184 0.854256 -0.003697
C56   C     C_R   0.066073 0.530163 0.854256 -0.003694
C57   C     C_R   0.501591 0.999234 0.150970 -0.064634
C58   C     C_R   0.001590 0.499246 0.150970 -0.064657
C59   C     C_R   0.618485 0.023924 0.232813 0.095382
C60   C     C_R   0.118491 0.523898 0.232813 0.095489
C61   C     C_R   0.670870 0.276888 0.684649 -0.136881
C62   C     C_R   0.706432 0.754479 0.718951 -0.078209
C63   C     C_R   0.170897 0.776873 0.684656 -0.136923
C64   C     C_R   0.206387 0.254426 0.718923 -0.078193
C65   C     C_R   0.623596 0.176289 0.570374 -0.167889
C66   C     C_R   0.649467 0.849395 0.595797 -0.153145
C67   C     C_R   0.123615 0.676279 0.570376 -0.167768
C68   C     C_R   0.149445 0.349366 0.595792 -0.153148
C69   C     C_R   0.356469 0.806571 0.317958 -0.315338
C70   C     C_R   0.346769 0.190032 0.309451 -0.298783
C71   C     C_R   0.856542 0.306463 0.318083 -0.315465
C72   C     C_R   0.846738 0.689997 0.309436 -0.298760
C73   C     C_R   0.312338 0.746111 0.296084 -0.221168
C74   C     C_R   0.291448 0.239764 0.280199 -0.196061
C75   C     C_R   0.812431 0.245981 0.296258 -0.220983
C76   C     C_R   0.791406 0.739715 0.280185 -0.196066
C77   C     C_R   0.261121 0.730532 0.360586 0.626668
C78   C     C_R   0.256332 0.270194 0.358234 0.623584
C79   C     C_R   0.761178 0.230445 0.360710 0.626825
C80   C     C_R   0.756302 0.770157 0.358224 0.623591
C81   C     C_R   0.244734 0.784146 0.434587 -0.054892
C82   C     C_R   0.282848 0.257607 0.469016 -0.060949
C83   C     C_R   0.744765 0.284096 0.434642 -0.054906
C84   C     C_R   0.782842 0.757600 0.469004 -0.060901
C85   C     C_R   0.286620 0.848677 0.451186 -0.097432
C86   C     C_R   0.341646 0.211017 0.498569 -0.094098
C87   C     C_R   0.786643 0.348636 0.451210 -0.097439
C88   C     C_R   0.841645 0.711018 0.498553 -0.094105
H1    H     H_    0.625946 0.176332 0.742818 0.194045
H2    H     H_    0.604901 0.800953 0.729946 0.154439
H3    H     H_    0.125986 0.676310 0.742824 0.194043
H4    H     H_    0.104854 0.300905 0.729904 0.154446
H5    H     H_    0.658120 0.079687 0.935761 0.168759
H6    H     H_    0.158137 0.579650 0.935760 0.168745
H7    H     H_    0.450031 0.980956 0.163694 0.131573
H8    H     H_    0.950025 0.480984 0.163694 0.131592
H9    H     H_    0.345551 0.975135 0.690903 0.174858
H10   H     H_    0.845542 0.475180 0.690895 0.174838
H11   H     H_    0.372563 0.000988 0.027291 0.142796
H12   H     H_    0.872562 0.501029 0.027288 0.142791
H13   H     H_    0.296621 0.975835 0.860890 0.173319
H14   H     H_    0.796612 0.475900 0.860883 0.173371
H15   H     H_    0.678388 0.301488 0.762912 0.192697
H16   H     H_    0.707238 0.721343 0.791975 0.186925
H17   H     H_    0.178422 0.801470 0.762922 0.192653
H18   H     H_    0.207180 0.221275 0.791931 0.186932
H19   H     H_    0.401056 0.812141 0.275192 0.186919
H20   H     H_    0.368694 0.162105 0.246817 0.198777
H21   H     H_    0.901146 0.312014 0.275349 0.186919
H22   H     H_    0.868654 0.662059 0.246804 0.198766
H23   H     H_    0.323174 0.706319 0.237356 0.182352
H24   H     H_    0.272478 0.250800 0.196029 0.182873
H25   H     H_    0.823295 0.206153 0.237594 0.182543
H26   H     H_    0.772418 0.750729 0.196016 0.182856
H27   H     H_    0.655093 0.026802 0.306392 0.173405
H28   H     H_    0.155098 0.526761 0.306393 0.173305
N1    N     N_R   0.552340 0.000000 0.237260 -0.136534
N2    N     N_R   0.052340 0.500000 0.237260 -0.136557
N3    N     N_R   0.448170 1.000000 0.762060 -0.129122
N4    N     N_R   0.948170 0.500000 0.762060 -0.129134
O1    O     O_R   0.448200 0.076800 0.373930 -0.644016
O2    O     O_R   0.448200 0.923200 0.373930 -0.632704
O3    O     O_R   0.948200 0.576800 0.373930 -0.644007
O4    O     O_R   0.948200 0.423200 0.373930 -0.632701
O5    O     O_R   0.414750 0.076790 0.542400 -0.546327
O6    O     O_R   0.414750 0.923210 0.542400 -0.594049
O7    O     O_R   0.914750 0.576790 0.542400 -0.546353
O8    O     O_R   0.914750 0.423210 0.542400 -0.594034
O9    O     O_R   0.585240 0.923200 0.457600 -0.615492
O10   O     O_R   0.585240 0.076800 0.457600 -0.658915
O11   O     O_R   0.085240 0.423200 0.457600 -0.615501
O12   O     O_R   0.085240 0.576800 0.457600 -0.658910
O13   O     O_R   0.551780 0.923190 0.626070 -0.634009
O14   O     O_R   0.551780 0.076810 0.626070 -0.561289
O15   O     O_R   0.051780 0.423190 0.626070 -0.634005
O16   O     O_R   0.051780 0.576810 0.626070 -0.561288
Zn1   Zn    Zn3+2 0.522330 1.000000 0.387520 0.938083
Zn2   Zn    Zn3+2 0.022330 0.500000 0.387520 0.938089
Zn3   Zn    Zn3+2 0.477660 1.000000 0.612480 0.991155
Zn4   Zn    Zn3+2 0.977660 0.500000 0.612480 0.991153
C89   C     C_2   0.709820 0.078118 0.135467 0.468094
H29   H     H_    0.720240 0.123355 0.081214 0.050123
O17   O     O_2   0.759180 0.050218 0.195592 -0.544124
C90   C     C_2   0.209848 0.578044 0.135471 0.468113
H30   H     H_    0.220293 0.623257 0.081198 0.050085
O18   O     O_2   0.259193 0.550145 0.195631 -0.544102
C91   C     C_2   0.610629 0.981449 0.801739 0.516252
H31   H     H_    0.602304 0.921619 0.806336 0.051161
O19   O     O_2   0.660828 0.006098 0.763138 -0.602052
C92   C     C_2   0.110631 0.481423 0.801739 0.516221
H32   H     H_    0.102302 0.421592 0.806339 0.051176
O20   O     O_2   0.160828 0.506067 0.763130 -0.602039
C93   C     C_2   0.201892 0.944036 0.666629 0.373741
H33   H     H_    0.225775 0.999018 0.667345 0.102019
O21   O     O_2   0.154850 0.933668 0.720255 -0.582174
C94   C     C_2   0.351453 0.190563 0.800371 0.445173
H34   H     H_    0.394987 0.151453 0.817998 0.119222
O22   O     O_2   0.328238 0.218335 0.875169 -0.580121
C95   C     C_2   0.701897 0.444050 0.666592 0.373723
H35   H     H_    0.725752 0.499041 0.667241 0.102061
O23   O     O_2   0.654901 0.433682 0.720291 -0.582263
C96   C     C_2   0.851503 0.690619 0.800367 0.445206
H36   H     H_    0.895034 0.651503 0.817989 0.119207
O24   O     O_2   0.828306 0.718409 0.875168 -0.580087
C97   C     C_2   0.594940 0.218785 0.374854 0.477252
H37   H     H_    0.545557 0.188798 0.363505 0.080115
O25   O     O_2   0.609155 0.257209 0.299645 -0.565163
C98   C     C_2   0.731641 0.917599 0.489616 0.498584
H38   H     H_    0.703495 0.969771 0.492116 0.047741
O26   O     O_2   0.786449 0.918621 0.451740 -0.574702
C99   C     C_2   0.094914 0.718802 0.374875 0.477253
H39   H     H_    0.045539 0.688800 0.363541 0.080105
O27   O     O_2   0.109094 0.757258 0.299673 -0.565088
C100  C     C_2   0.231643 0.417600 0.489716 0.498746
H40   H     H_    0.203496 0.469763 0.492283 0.047610
O28   O     O_2   0.286454 0.418646 0.451845 -0.574614
O29   O     O_3   0.733255 0.159445 0.358239 -0.622716
C101  C     C_3   0.778016 0.113648 0.431694 -0.261501
H41   H     H_    0.767237 0.121552 0.514750 0.159333
H42   H     H_    0.834988 0.122501 0.427825 0.166042
H43   H     H_    0.767270 0.055106 0.410549 0.244429
O30   O     O_3   0.695760 0.811262 0.324779 -0.594311
C102  C     C_3   0.638159 0.761823 0.310846 -0.348037
H44   H     H_    0.632832 0.730653 0.386737 0.157326
H45   H     H_    0.642422 0.722075 0.245693 0.162122
H46   H     H_    0.589372 0.795097 0.287240 0.213368
O31   O     O_3   0.233216 0.659527 0.358104 -0.622821
C103  C     C_3   0.278084 0.613733 0.431399 -0.260736
H47   H     H_    0.267856 0.622063 0.514672 0.158867
H48   H     H_    0.335003 0.622207 0.426623 0.166737
H49   H     H_    0.266910 0.555164 0.410797 0.243834
O32   O     O_3   0.195801 0.311316 0.324781 -0.594302
C104  C     C_3   0.138192 0.261890 0.310789 -0.348004
H50   H     H_    0.132838 0.230707 0.386657 0.157336
H51   H     H_    0.142466 0.222155 0.245625 0.162127
H52   H     H_    0.089414 0.295175 0.287168 0.213361
O33   O     O_3   0.285342 0.978747 0.505435 -0.632984
C105  C     C_3   0.242971 0.010034 0.414141 -0.335072
H53   H     H_    0.185915 0.001940 0.417598 0.174466
H54   H     H_    0.257042 0.986571 0.339400 0.180182
H55   H     H_    0.252372 0.071173 0.411321 0.184046
O34   O     O_3   0.440671 0.196541 0.643838 -0.618935
C106  C     C_3   0.472220 0.266846 0.630064 -0.259373
H56   H     H_    0.438246 0.315499 0.642533 0.175144
H57   H     H_    0.488137 0.271452 0.549103 0.167136
H58   H     H_    0.519588 0.271326 0.691124 0.206454
O35   O     O_3   0.785348 0.478723 0.505387 -0.632980
C107  C     C_3   0.742971 0.509992 0.414086 -0.335174
H59   H     H_    0.685916 0.501920 0.417574 0.174447
H60   H     H_    0.757022 0.486496 0.339351 0.180197
H61   H     H_    0.752387 0.571128 0.411223 0.184065
O36   O     O_3   0.940692 0.696563 0.643792 -0.618953
C108  C     C_3   0.972241 0.766861 0.629960 -0.259340
H62   H     H_    0.938275 0.815523 0.642419 0.175169
H63   H     H_    0.988140 0.771440 0.548986 0.167083
H64   H     H_    0.019620 0.771353 0.690995 0.206495

loop_
_geom_bond_atom_site_label_1
_geom_bond_atom_site_label_2
_ccdc_geom_bond_type
C34   C60   A    
C99   H39   S    
C97   H37   S    
C107  H60   S    
C61   H15   S    
C11   C13   A    
C14   C18   A    
C35   N3    A    
C91   H31   S    
C101  H43   S    
O16   Zn4   S    
C24   C100  S    
C101  H41   S    
C69   H19   S    
C21   C97   S    
C48   N4    A    
C108  H62   S    
O5    Zn3   S    
C5    C9    A    
C27   H3    S    
C99   O27   D    
O3    Zn2   S    
C34   C90   S    
C18   C86   A    
C2    C29   S    
C17   C85   A    
C103  H48   S    
C94   H34   S    
C28   C68   A    
C1    O5    A    
N2    Zn2   S    
C19   C87   A    
C102  H45   S    
C74   H24   S    
C12   C64   A    
C3    O7    A    
C101  H42   S    
O12   Zn2   S    
C11   C63   A    
C6    C22   A    
C71   H21   S    
C58   N2    A    
C49   C57   A    
C4    O4    A    
C42   O16   A    
C45   C47   A    
O1    Zn1   S    
C58   H8    S    
O30   C102  S    
C22   C66   A    
C100  H40   S    
C55   C91   S    
C44   C46   A    
C107  H59   S    
C49   C51   A    
C70   C74   A    
C2    O2    A    
C76   H26   S    
C79   O29   S    
C105  H54   S    
C60   N2    A    
C105  H53   S    
C75   H25   S    
C80   O30   S    
C8    C12   A    
C30   C86   A    
C29   C85   A    
C104  H50   S    
C72   C76   A    
C21   C65   A    
C98   O26   D    
C26   C62   A    
C97   O25   D    
C71   C75   A    
C19   O35   S    
C3    O3    A    
C10   C62   A    
C30   C70   A    
C52   C54   A    
C38   C44   A    
C7    C11   A    
C41   C68   S    
C29   C69   A    
C53   C55   A    
O15   Zn4   S    
C106  H58   S    
C72   H22   S    
O6    Zn3   S    
C91   O19   D    
C6    C84   A    
O34   C106  S    
C4    O8    A    
C53   H5    S    
C80   C84   A    
C26   C66   A    
C84   C88   A    
C73   H23   S    
C31   C87   A    
C90   O18   D    
C102  H46   S    
O14   Zn3   S    
C41   O11   A    
C39   O9    A    
C16   C96   S    
C82   C86   A    
C40   O14   A    
C62   H16   S    
O35   C107  S    
C103  H47   S    
C51   C53   A    
C5    C21   A    
C50   C58   A    
C37   C43   A    
C15   C19   A    
C102  H44   S    
C5    C83   A    
C15   C95   S    
C106  H57   S    
C69   C73   A    
C78   C82   A    
C50   C52   A    
C95   H35   S    
C79   C83   A    
C78   O32   S    
C45   C49   A    
C26   H2    S    
C16   C20   A    
C104  H52   S    
C105  H55   S    
C104  H51   S    
C25   C65   A    
C3    C32   S    
C18   O34   S    
C25   C61   A    
C17   O33   S    
C43   C45   A    
C13   C93   S    
C27   C63   A    
N4    Zn4   S    
C2    O6    A    
C59   H27   S    
C98   H38   S    
C7    C81   A    
C12   C14   A    
O13   Zn3   S    
C40   C65   S    
C103  H49   S    
C57   H7    S    
C42   C67   S    
C77   O31   S    
C39   C66   S    
C9    C61   A    
C60   H28   S    
C93   O21   D    
O7    Zn4   S    
C59   N1    A    
C57   N1    A    
C56   C92   S    
C36   C38   A    
C28   C64   A    
C41   O15   A    
C47   N3    A    
C35   C37   A    
C47   C55   A    
C96   H36   S    
C39   O13   A    
C108  H64   S    
O4    Zn2   S    
C48   C56   A    
C40   O10   A    
C1    O1    A    
C14   C94   S    
C34   C52   A    
C22   C98   S    
N1    Zn1   S    
C76   C80   A    
O2    Zn1   S    
C43   H11   S    
C90   H30   S    
C83   C87   A    
C6    C10   A    
C42   O12   A    
C54   C56   A    
C64   H18   S    
C33   C51   A    
C46   C50   A    
C25   H1    S    
C13   C17   A    
C33   C89   S    
O32   C104  S    
C89   O17   D    
C95   O23   D    
C9    C15   A    
C108  H63   S    
N3    Zn3   S    
O31   C103  S    
C38   H14   S    
C96   O24   D    
C10   C16   A    
C89   H29   S    
C37   H13   S    
C44   H12   S    
C23   C67   A    
C107  H61   S    
C7    C23   A    
C20   C88   A    
C94   O22   D    
C1    C30   S    
C8    C24   A    
C92   O20   D    
C20   O36   S    
O8    Zn4   S    
O33   C105  S    
C36   N4    A    
C77   C81   A    
C100  O28   D    
C54   H6    S    
C4    C31   S    
C27   C67   A    
C63   H17   S    
C24   C68   A    
C28   H4    S    
C46   C48   A    
C8    C82   A    
O9    Zn1   S    
O36   C108  S    
C33   C59   A    
O29   C101  S    
C74   C78   A    
O11   Zn2   S    
C73   C77   A    
C92   H32   S    
C36   H10   S    
C106  H56   S    
C93   H33   S    
C35   H9    S    
O10   Zn1   S    
C75   C79   A    
C70   H20   S    
C81   C85   A    
C31   C71   A    
C32   C72   A    
C23   C99   S    
C32   C88   A    
