data_mof_unit_59505.cif
_audit_creation_date              2013-03-05T16:47:32-0500
_audit_creation_method            fapswitch 2.2
_symmetry_space_group_name_H-M    P1
_symmetry_Int_Tables_number       1
_space_group_crystal_system       triclinic
_cell_length_a                    10.911903
_cell_length_b                    10.903909
_cell_length_c                    9.806513
_cell_angle_alpha                 98.556786
_cell_angle_beta                  98.748538
_cell_angle_gamma                 92.816137
_cell_volume                      1137.31232967

loop_
_atom_site_label
_atom_site_type_symbol
_atom_site_description
_atom_site_fract_x
_atom_site_fract_y
_atom_site_fract_z
_atom_type_partial_charge
O1    O     O_R   0.517830 0.337490 0.617920 -0.591533
O2    O     O_R   0.482170 0.662510 0.382080 -0.591389
O3    O     O_R   0.482150 0.301790 0.382070 -0.568094
O4    O     O_R   0.517850 0.698210 0.617930 -0.568177
C1    C     C_R   0.500941 0.262030 0.499509 0.805622
C2    C     C_R   0.499133 0.737977 0.500489 0.805620
O5    O     O_R   0.337480 0.517860 0.617920 -0.590593
O6    O     O_R   0.662520 0.482140 0.382080 -0.590672
O7    O     O_R   0.301810 0.482160 0.382070 -0.567669
O8    O     O_R   0.698190 0.517840 0.617930 -0.567655
C3    C     C_R   0.262016 0.501370 0.499325 0.801734
C4    C     C_R   0.737976 0.498529 0.500676 0.801540
Cu1   Cu    Cu3+1 0.521120 0.521140 0.639640 0.957899
Cu2   Cu    Cu3+1 0.478880 0.478860 0.360360 0.957958
H1    H     H_    0.173686 0.383611 0.861335 0.135165
H2    H     H_    0.825939 0.615207 0.138543 0.135104
C5    C     C_R   0.168051 0.522730 0.040639 -0.108214
C6    C     C_R   0.831689 0.476306 0.959072 -0.107952
H3    H     H_    0.212182 0.596366 0.998252 0.127804
H4    H     H_    0.787479 0.402591 0.001263 0.127216
C7    C     C_R   0.132131 0.547499 0.172340 -0.043701
C8    C     C_R   0.867708 0.451735 0.827404 -0.044090
H5    H     H_    0.148655 0.640711 0.231072 0.137538
H6    H     H_    0.851167 0.358595 0.768489 0.136977
C9    C     C_R   0.077294 0.451381 0.229109 0.096289
C10   C     C_R   0.922655 0.547965 0.770901 0.095847
C11   C     C_R   0.054327 0.331880 0.150041 -0.115460
C12   C     C_R   0.945619 0.667373 0.850188 -0.114682
H7    H     H_    0.010225 0.257275 0.191089 0.168591
H8    H     H_    0.989790 0.742063 0.809339 0.169328
C13   C     C_R   0.088003 0.308372 0.017288 -0.110376
C14   C     C_R   0.911830 0.690678 0.982897 -0.109379
H9    H     H_    0.067976 0.217013 0.955608 0.190896
H10   H     H_    0.931848 0.781955 0.044758 0.191278
C15   C     C_R   0.146337 0.403031 0.963397 -0.187766
C16   C     C_R   0.853391 0.595918 0.036525 -0.188240
C17   C     C_R   0.915120 0.471629 0.376053 -0.242069
C18   C     C_R   0.084856 0.527963 0.623966 -0.241923
H11   H     H_    0.849819 0.449316 0.279380 0.151587
H12   H     H_    0.150149 0.550196 0.720653 0.151616
C19   C     C_R   0.872208 0.496852 0.503672 -0.072859
C20   C     C_R   0.127773 0.502845 0.496335 -0.072875
C21   C     C_R   0.958576 0.523592 0.630097 0.015907
C22   C     C_R   0.041400 0.475977 0.369915 0.015911
H13   H     H_    0.389546 0.172990 0.858838 0.150345
H14   H     H_    0.610620 0.826987 0.141110 0.150359
C23   C     C_R   0.308192 0.091649 0.013476 -0.203770
C24   C     C_R   0.692236 0.907901 0.986375 -0.203984
H15   H     H_    0.218025 0.075031 0.948137 0.181287
H16   H     H_    0.782381 0.924207 0.051767 0.181361
C25   C     C_R   0.325878 0.059891 0.148554 0.361218
C26   C     C_R   0.674750 0.939624 0.851239 0.360442
C27   C     C_R   0.446663 0.078814 0.229360 0.005198
C28   C     C_R   0.553820 0.921203 0.770592 0.005232
C29   C     C_R   0.545356 0.129540 0.173132 -0.103972
C30   C     C_R   0.455018 0.870774 0.826893 -0.104041
H17   H     H_    0.638400 0.142897 0.232811 0.137988
H18   H     H_    0.361939 0.857705 0.767292 0.138155
C31   C     C_R   0.524444 0.165181 0.041145 -0.112876
C32   C     C_R   0.475816 0.835071 0.958837 -0.112516
H19   H     H_    0.600484 0.206253 0.999937 0.134531
H20   H     H_    0.399667 0.794235 0.000076 0.135313
C33   C     C_R   0.405941 0.146247 0.961545 -0.233556
C34   C     C_R   0.594322 0.853710 0.038389 -0.233784
C35   C     C_R   0.470770 0.915491 0.375960 -0.190731
C36   C     C_R   0.529482 0.084533 0.624030 -0.190395
H21   H     H_    0.446876 0.850493 0.279387 0.144415
H22   H     H_    0.553370 0.149527 0.720606 0.144135
C37   C     C_R   0.498074 0.872199 0.503358 -0.072637
C38   C     C_R   0.502151 0.127820 0.496630 -0.072446
C39   C     C_R   0.526714 0.958132 0.629829 0.075244
C40   C     C_R   0.473632 0.041893 0.370146 0.074530
H23   H     H_    0.418793 0.418945 0.865235 0.158936
H24   H     H_    0.581156 0.581104 0.134766 0.158955
N1    N     N_2   0.447120 0.447110 0.150550 -0.279203
N2    N     N_2   0.552880 0.552890 0.849450 -0.279154
C41   C     C_2   0.510487 0.510414 0.078893 -0.094273
C42   C     C_2   0.489486 0.489612 0.921107 -0.094277
H25   H     H_    0.619243 0.619415 0.904670 0.226551
H26   H     H_    0.380791 0.380551 0.095328 0.226555
N3    N     N_R   0.221029 0.010096 0.201386 0.097513
O9    O     O_R   0.213950 0.032374 0.333936 -0.372956
O10   O     O_R   0.125251 0.954359 0.115125 -0.400137
N4    N     N_R   0.779961 0.988664 0.798259 0.097296
O11   O     O_R   0.785349 0.969180 0.665179 -0.373214
O12   O     O_R   0.877664 0.040448 0.884438 -0.399698

loop_
_geom_bond_atom_site_label_1
_geom_bond_atom_site_label_2
_geom_bond_distance
_ccdc_geom_bond_type
C2    C37   1.460275 S    
C36   H22   1.083590 S    
C29   C31   1.395333 A    
C11   H7    1.083189 S    
N2    H25   1.027629 S    
N3    O9    1.301161 A    
C23   H15   1.080550 S    
C41   C42   1.510231 S    
O5    C3    1.301874 A    
C4    C19   1.461610 S    
O1    C1    1.301939 A    
C14   C16   1.396349 A    
N2    C42   1.301391 D    
C18   C20   1.396335 A    
C23   C33   1.394463 A    
C24   C34   1.394379 A    
C26   N4    1.441422 S    
C3    C20   1.461605 S    
C32   H20   1.082452 S    
O4    Cu1   1.975143 S    
C37   C39   1.421731 A    
C28   C39   1.485945 S    
C35   H21   1.083586 S    
H24   C41   1.084608 S    
H23   C42   1.084616 S    
C13   H9    1.079387 S    
N1    H26   1.027635 S    
C25   N3    1.440543 S    
C24   H16   1.080475 S    
Cu1   Cu2   2.673049 S    
C19   C21   1.421364 A    
O2    C2    1.301939 A    
C20   C22   1.421413 A    
C9    C22   1.482106 S    
H1    C15   1.081505 S    
N3    O10   1.301111 A    
C26   C28   1.419971 A    
C10   C21   1.482068 S    
C27   C29   1.408057 A    
C28   C30   1.408085 A    
C31   H19   1.082440 S    
C11   C13   1.396784 A    
C12   C14   1.396765 A    
N4    O11   1.301467 A    
O4    C2    1.281356 A    
C23   C25   1.406110 A    
H13   C33   1.081295 S    
C5    C7    1.398295 A    
C30   C32   1.395169 A    
H14   C34   1.081297 S    
C25   C27   1.419344 A    
C14   H10   1.079337 S    
O7    Cu2   1.977269 S    
C1    C38   1.460223 S    
N1    C41   1.301388 D    
C36   C39   1.386912 A    
Cu1   N2    2.008138 S    
C24   C26   1.406492 A    
O6    C4    1.301871 A    
O7    C3    1.282092 A    
O3    Cu2   1.975143 S    
O8    C4    1.282099 A    
C29   H17   1.083457 S    
C8    H6    1.083260 S    
O1    Cu1   1.979991 S    
C7    C9    1.407028 A    
O6    Cu2   1.980646 S    
C6    C8    1.398298 A    
C10   C12   1.403565 A    
N4    O12   1.301701 A    
O3    C1    1.281334 A    
O8    Cu1   1.977269 S    
C9    C11   1.403587 A    
C35   C40   1.386926 A    
C31   C33   1.393845 A    
C32   C34   1.393629 A    
Cu2   N1    2.008138 S    
C17   C22   1.387191 A    
C7    H5    1.083261 S    
C18   C21   1.387182 A    
C17   H11   1.083749 S    
H2    C16   1.081471 S    
C18   H12   1.083762 S    
C36   C38   1.395915 A    
C35   C37   1.395897 A    
C13   C15   1.396392 A    
C12   H8    1.083189 S    
C5    H3    1.082385 S    
C30   H18   1.083477 S    
C6    H4    1.082382 S    
C17   C19   1.396293 A    
O2    Cu2   1.979991 S    
O5    Cu1   1.980647 S    
C8    C10   1.407046 A    
C38   C40   1.421732 A    
C5    C15   1.397938 A    
C27   C40   1.486011 S    
C6    C16   1.397920 A    
