data_mof_unit_50111.cif
_audit_creation_date              2012-12-11T14:45:25-0500
_audit_creation_method            fapswitch 2.2
_symmetry_space_group_name_H-M    P1
_symmetry_Int_Tables_number       1
_space_group_crystal_system       triclinic
_cell_length_a                    24.910789
_cell_length_b                    7.182279
_cell_length_c                    14.355543
_cell_angle_alpha                 90.0
_cell_angle_beta                  103.100661
_cell_angle_gamma                 89.999967
_cell_volume                      2501.5918538

loop_
_atom_site_label
_atom_site_type_symbol
_atom_type_description
_atom_site_fract_x
_atom_site_fract_y
_atom_site_fract_z
_atom_type_partial_charge
O1    O     O_R   0.319150 0.364170 0.330530 -0.535212
O2    O     O_R   0.680850 0.635830 0.669470 -0.535212
O3    O     O_R   0.180850 0.864170 0.169470 -0.535213
O4    O     O_R   0.819150 0.135830 0.830530 -0.535213
O5    O     O_R   0.210330 0.696850 0.354180 -0.538818
O6    O     O_R   0.789670 0.303150 0.645820 -0.538819
O7    O     O_R   0.289670 0.196850 0.145820 -0.538819
O8    O     O_R   0.710330 0.803150 0.854180 -0.538819
C1    C     C_R   0.197428 0.525745 0.378449 0.674845
C2    C     C_R   0.802572 0.474255 0.621551 0.674845
C3    C     C_R   0.302572 0.025745 0.121551 0.674845
C4    C     C_R   0.697428 0.974255 0.878449 0.674845
O9    O     O_R   0.320550 0.694110 0.341970 -0.540193
O10   O     O_R   0.679450 0.305890 0.658030 -0.540194
O11   O     O_R   0.179450 0.194110 0.158030 -0.540194
O12   O     O_R   0.820550 0.805890 0.841970 -0.540194
O13   O     O_R   0.291860 0.861000 0.157170 -0.536895
O14   O     O_R   0.708140 0.139000 0.842830 -0.536895
O15   O     O_R   0.208140 0.361000 0.342830 -0.536895
O16   O     O_R   0.791860 0.639000 0.657170 -0.536895
C5    C     C_R   0.341792 0.525872 0.362350 0.692206
C6    C     C_R   0.658208 0.474128 0.637650 0.692206
C7    C     C_R   0.158208 0.025872 0.137650 0.692206
C8    C     C_R   0.841792 0.974128 0.862350 0.692206
O17   O     O_3   0.240460 0.529330 0.189380 -0.374390
O18   O     O_3   0.759540 0.470670 0.810620 -0.374390
O19   O     O_3   0.259540 0.029330 0.310620 -0.374390
O20   O     O_3   0.740460 0.970670 0.689380 -0.374389
V1    V     V_3+5 0.251770 0.805510 0.261240 1.422385
V2    V     V_3+5 0.748230 0.194490 0.738760 1.422385
V3    V     V_3+5 0.248230 0.305510 0.238760 1.422385
V4    V     V_3+5 0.751770 0.694490 0.761240 1.422385
C9    C     C_R   0.103034 0.020034 0.072750 -0.078691
C10   C     C_R   0.896966 0.979966 0.927250 -0.078691
C11   C     C_R   0.396966 0.520034 0.427250 -0.078691
C12   C     C_R   0.603034 0.479966 0.572750 -0.078691
C13   C     C_R   0.956911 0.914571 0.084011 0.141667
C14   C     C_R   0.043089 0.085429 0.915989 0.141667
C15   C     C_R   0.543089 0.414574 0.415989 0.141667
C16   C     C_R   0.456911 0.585426 0.584011 0.141667
C17   C     C_R   0.904300 0.917063 0.021289 -0.163836
C18   C     C_R   0.095700 0.082937 0.978711 -0.163835
C19   C     C_R   0.595700 0.417066 0.478711 -0.163836
C20   C     C_R   0.404300 0.582934 0.521289 -0.163836
C21   C     C_R   0.942430 0.039289 0.893420 -0.243421
C22   C     C_R   0.057570 0.960711 0.106579 -0.243420
C23   C     C_R   0.557570 0.539288 0.606580 -0.243421
C24   C     C_R   0.442430 0.460712 0.393420 -0.243421
C25   C     C_R   0.996355 0.031723 0.951835 0.071661
C26   C     C_R   0.003645 0.968277 0.048164 0.071661
C27   C     C_R   0.503645 0.531722 0.548165 0.071661
C28   C     C_R   0.496355 0.468278 0.451835 0.071661
H1    H     H_    0.065064 0.912821 0.179830 0.110213
H2    H     H_    0.934936 0.087179 0.820170 0.110213
H3    H     H_    0.434936 0.412824 0.320170 0.110213
H4    H     H_    0.565064 0.587175 0.679830 0.110213
H5    H     H_    0.131906 0.128204 0.955366 0.117096
H6    H     H_    0.868093 0.871796 0.044634 0.117096
H7    H     H_    0.368093 0.628200 0.544634 0.117096
H8    H     H_    0.631907 0.371800 0.455366 0.117096
C29   C     C_R   0.665280 0.977427 0.951871 -0.028643
C30   C     C_R   0.334720 0.022573 0.048129 -0.028643
C31   C     C_R   0.834720 0.477427 0.548129 -0.028643
C32   C     C_R   0.165280 0.522573 0.451871 -0.028644
C33   C     C_R   0.656394 0.890101 0.109998 -0.164094
C34   C     C_R   0.343606 0.109899 0.890002 -0.164094
C35   C     C_R   0.843606 0.390098 0.390003 -0.164094
C36   C     C_R   0.156394 0.609906 0.609997 -0.164094
C37   C     C_R   0.688930 0.914398 0.043984 -0.168972
C38   C     C_R   0.311071 0.085602 0.956016 -0.168971
C39   C     C_R   0.811071 0.414396 0.456017 -0.168971
C40   C     C_R   0.188929 0.585608 0.543983 -0.168971
C41   C     C_R   0.608945 0.017725 0.925846 -0.217540
C42   C     C_R   0.391054 0.982275 0.074154 -0.217540
C43   C     C_R   0.891054 0.517725 0.574154 -0.217540
C44   C     C_R   0.108946 0.482272 0.425846 -0.217540
C45   C     C_R   0.574498 0.989782 0.990812 0.080490
C46   C     C_R   0.425501 0.010218 0.009188 0.080490
C47   C     C_R   0.925501 0.489781 0.509188 0.080490
C48   C     C_R   0.074498 0.510218 0.490812 0.080490
C49   C     C_R   0.599472 0.923806 0.083827 0.135929
C50   C     C_R   0.400528 0.076194 0.916173 0.135929
C51   C     C_R   0.900528 0.423803 0.416173 0.135929
C52   C     C_R   0.099472 0.576199 0.583827 0.135929
C53   C     C_R   0.516166 0.019492 0.965771 0.056689
C54   C     C_R   0.483833 0.980508 0.034229 0.056689
C55   C     C_R   0.983833 0.519493 0.534229 0.056689
C56   C     C_R   0.016167 0.480507 0.465771 0.056689
C57   C     C_R   0.510903 0.913628 0.125431 -0.191228
C58   C     C_R   0.489097 0.086373 0.874570 -0.191227
C59   C     C_R   0.989097 0.413624 0.374570 -0.191227
C60   C     C_R   0.010902 0.586377 0.625430 -0.191227
C61   C     C_R   0.567464 0.887095 0.149531 -0.207805
C62   C     C_R   0.432536 0.112906 0.850469 -0.207805
C63   C     C_R   0.932537 0.387090 0.350469 -0.207805
C64   C     C_R   0.067463 0.612912 0.649531 -0.207804
H9    H     H_    0.586300 0.835285 0.220368 0.129045
H10   H     H_    0.413700 0.164715 0.779632 0.129045
H11   H     H_    0.913701 0.335279 0.279633 0.129045
H12   H     H_    0.086299 0.664725 0.720367 0.129045
H13   H     H_    0.406799 0.938867 0.147023 0.097511
H14   H     H_    0.593201 0.061133 0.852977 0.097511
H15   H     H_    0.093202 0.438860 0.352978 0.097512
H16   H     H_    0.906799 0.561133 0.647023 0.097511
H17   H     H_    0.267611 0.119945 0.936005 0.102676
H18   H     H_    0.732389 0.880055 0.063995 0.102676
H19   H     H_    0.232388 0.619953 0.563994 0.102677
H20   H     H_    0.767612 0.380053 0.436005 0.102676
H21   H     H_    0.675502 0.839384 0.180881 0.112311
H22   H     H_    0.324498 0.160617 0.819119 0.112311
H23   H     H_    0.824498 0.339379 0.319120 0.112311
H24   H     H_    0.175501 0.660628 0.680880 0.112311
H25   H     H_    0.489658 0.878741 0.180484 0.122855
H26   H     H_    0.510342 0.121260 0.819516 0.122855
H27   H     H_    0.010343 0.378736 0.319517 0.122855
H28   H     H_    0.989657 0.621266 0.680483 0.122855
C65   C     C_3   0.964020 0.856811 0.188653 -0.358610
C66   C     C_3   0.911087 0.818934 0.222654 -0.758062
H29   H     H_    0.883756 0.943021 0.210850 0.218224
H30   H     H_    0.889185 0.695916 0.185263 0.222298
H31   H     H_    0.921693 0.788823 0.300554 0.236062
H32   H     H_    0.989881 0.729182 0.201794 0.181917
H33   H     H_    0.986044 0.970280 0.234610 0.180328
C67   C     C_3   0.035980 0.143190 0.811347 -0.358610
C68   C     C_3   0.088913 0.181068 0.777347 -0.758061
H34   H     H_    0.110814 0.304086 0.814737 0.222298
H35   H     H_    0.116244 0.056981 0.789150 0.218224
H36   H     H_    0.078307 0.211179 0.699446 0.236062
H37   H     H_    0.013956 0.029721 0.765390 0.180328
H38   H     H_    0.010118 0.270819 0.798207 0.181917
C69   C     C_3   0.535980 0.356816 0.311346 -0.358610
C70   C     C_3   0.588913 0.318939 0.277346 -0.758061
H39   H     H_    0.616244 0.443026 0.289150 0.218224
H40   H     H_    0.610815 0.195921 0.314736 0.222297
H41   H     H_    0.578307 0.288829 0.199445 0.236062
H42   H     H_    0.510119 0.229187 0.298205 0.181917
H43   H     H_    0.513957 0.470286 0.265390 0.180328
C71   C     C_3   0.464020 0.643185 0.688654 -0.358610
C72   C     C_3   0.411086 0.681062 0.722654 -0.758062
H44   H     H_    0.389185 0.804080 0.685264 0.222297
H45   H     H_    0.383756 0.556975 0.710850 0.218224
H46   H     H_    0.421693 0.711172 0.800554 0.236062
H47   H     H_    0.486043 0.529714 0.734610 0.180328
H48   H     H_    0.489881 0.770813 0.701795 0.181917

loop_
_geom_bond_atom_site_label_1
_geom_bond_atom_site_label_2
_ccdc_geom_bond_type
O17   V3    S    
C24   H3    S    
C55   C56   A    
O1    C5    A    
C50   C62   A    
O19   V1    S    
C1    C32   S    
O13   V1    S    
O3    C7    A    
C2    C31   S    
O1    V3    S    
C48   C52   A    
C3    C30   S    
O15   V3    S    
C47   C55   A    
O4    V2    S    
C14   C25   A    
C34   C38   A    
C53   C54   A    
C58   H26   S    
O7    C3    A    
C15   C69   S    
C9    C18   A    
O9    V1    S    
C17   H6    S    
C14   C18   A    
C71   H47   S    
C52   C64   A    
O4    C8    A    
C72   H46   S    
C63   H11   S    
C62   H10   S    
C20   H7    S    
C60   C64   A    
C30   C38   A    
C12   C23   A    
O2    V4    S    
C36   H24   S    
O3    V1    S    
C66   H29   S    
C1    O15   A    
C2    O16   A    
C70   H39   S    
C7    C9    S    
C16   C71   S    
O2    C6    A    
C68   H36   S    
C56   C59   A    
O14   V2    S    
C45   C49   A    
C16   C20   A    
C36   C40   A    
C46   C54   A    
C44   H15   S    
O11   C7    A    
C15   C28   A    
C45   C53   A    
O12   C8    A    
C39   H20   S    
C13   C17   A    
C9    C22   A    
C10   C17   A    
O10   V2    S    
C11   C24   A    
C18   H5    S    
C58   C62   A    
O5    V1    S    
C72   H44   S    
C57   H25   S    
C67   C68   S    
O7    V3    S    
C67   H38   S    
C27   C28   A    
C36   C52   A    
C69   H42   S    
O18   V4    S    
C15   C19   A    
C29   C41   A    
C54   C57   A    
C8    C10   S    
C66   H31   S    
O8    V4    S    
C65   H32   S    
O5    C1    A    
C69   H43   S    
C34   C50   A    
C49   C61   A    
C46   C50   A    
C33   C49   A    
C40   H19   S    
C21   C25   A    
O8    C4    A    
C51   C63   A    
C32   C44   A    
O9    C5    A    
C10   C21   A    
C35   C51   A    
C34   H22   S    
C11   C20   A    
C60   H28   S    
C33   H21   S    
C19   H8    S    
C42   H13   S    
C35   H23   S    
C41   H14   S    
O6    V2    S    
C31   C39   A    
C21   H2    S    
C43   H16   S    
C69   C70   S    
C61   H9    S    
O16   V4    S    
C29   C37   A    
C3    O13   A    
C37   H18   S    
C44   C48   A    
C38   H17   S    
O6    C2    A    
C23   C27   A    
C53   C58   A    
O11   V3    S    
C5    C11   S    
O12   V4    S    
C16   C27   A    
C6    C12   S    
C22   C26   A    
O10   C6    A    
O20   V2    S    
C65   H33   S    
C48   C56   A    
C71   H48   S    
C65   C66   S    
C47   C51   A    
C4    C29   S    
C72   H45   S    
C68   H34   S    
C31   C43   A    
C70   H41   S    
C33   C37   A    
C64   H12   S    
C22   H1    S    
C13   C26   A    
C59   H27   S    
C67   H37   S    
C35   C39   A    
C32   C40   A    
C57   C61   A    
C66   H30   S    
C71   C72   S    
C59   C63   A    
C24   C28   A    
C13   C65   S    
C70   H40   S    
C25   C26   A    
C42   C46   A    
C4    O14   A    
C68   H35   S    
C41   C45   A    
C30   C42   A    
C12   C19   A    
C55   C60   A    
C43   C47   A    
C14   C67   S    
C23   H4    S    
