data_mof_unit_27055.cif
_audit_creation_date              2012-12-10T19:06:24-0500
_audit_creation_method            fapswitch 2.2
_symmetry_space_group_name_H-M    P1
_symmetry_Int_Tables_number       1
_space_group_crystal_system       triclinic
_cell_length_a                    23.523428
_cell_length_b                    10.83977
_cell_length_c                    9.528978
_cell_angle_alpha                 90.686921
_cell_angle_beta                  90.029766
_cell_angle_gamma                 90.205231
_cell_volume                      2429.58968168

loop_
_atom_site_label
_atom_site_type_symbol
_atom_type_description
_atom_site_fract_x
_atom_site_fract_y
_atom_site_fract_z
_atom_type_partial_charge
C1    C     C_R   0.498358 0.262220 0.498844 0.829467
C2    C     C_R   0.970838 0.274053 0.563060 0.498396
C3    C     C_R   0.030435 0.277527 0.565344 -0.242210
C4    C     C_R   0.060208 0.385200 0.530751 -0.101207
C5    C     C_R   0.029941 0.492135 0.495523 -0.016721
C6    C     C_R   0.059682 0.600818 0.461040 0.010725
C7    C     C_R   0.029290 0.707429 0.426449 -0.165252
C8    C     C_R   0.970073 0.706467 0.426508 -0.164623
C9    C     C_R   0.119860 0.388789 0.530842 0.627673
C10   C     C_R   0.119306 0.600140 0.462775 0.521760
C11   C     C_R   0.238552 0.497113 0.627315 0.544944
C12   C     C_R   0.390896 0.499702 0.499984 0.817156
C13   C     C_R   0.298090 0.496256 0.626998 -0.301932
C14   C     C_R   0.328286 0.499268 0.499843 -0.100690
C15   C     C_R   0.298155 0.501431 0.372553 -0.223606
C16   C     C_R   0.238933 0.500076 0.372395 -0.181036
C17   C     C_R   0.208963 0.496973 0.499161 0.264352
C18   C     C_R   0.760997 0.490064 0.373191 -0.193759
C19   C     C_R   0.701845 0.491462 0.373028 -0.213385
C20   C     C_R   0.671753 0.496634 0.500089 -0.088241
C21   C     C_R   0.701918 0.498894 0.627456 -0.328769
C22   C     C_R   0.761795 0.494716 0.628703 0.552198
C23   C     C_R   0.498802 0.737774 0.500485 0.834618
C24   C     C_R   0.790983 0.492655 0.500066 0.281838
C25   C     C_R   0.486981 0.065655 0.621907 0.048535
C26   C     C_R   0.491322 0.129101 0.495794 -0.205562
C27   C     C_R   0.486199 0.061557 0.368125 0.481566
C28   C     C_R   0.487600 0.932579 0.371291 -0.294892
C29   C     C_R   0.492243 0.870672 0.499587 -0.164592
C30   C     C_R   0.487335 0.938758 0.624015 0.122392
C31   C     C_3   0.522388 0.937053 0.754682 -0.456698
C32   C     C_3   0.521646 0.076874 0.752638 -0.400386
C33   C     C_R   0.548188 0.529397 0.074317 0.264003
C34   C     C_R   0.609116 0.499355 0.499990 0.825726
C35   C     C_R   0.454413 0.457765 0.073750 -0.062310
C36   C     C_R   0.454396 0.457813 0.924924 -0.087833
C37   C     C_R   0.548325 0.528708 0.926825 0.255796
C38   C     C_3   0.580628 0.647042 0.922968 -0.508005
C39   C     C_3   0.580215 0.648038 0.082173 -0.491335
C40   C     C_R   0.880454 0.597051 0.463244 0.562910
C41   C     C_R   0.880003 0.385395 0.530813 0.604580
C42   C     C_R   0.939967 0.382107 0.530584 -0.129657
C43   C     C_R   0.969901 0.490874 0.495697 -0.080380
C44   C     C_R   0.939971 0.598951 0.461335 0.013631
Cu1   Cu    Cu3+1 0.500000 0.499980 0.640670 0.940615
Cu2   Cu    Cu3+1 0.500000 0.500020 0.359330 0.961777
H1    H     H_    0.678907 0.505210 0.725310 0.155357
H2    H     H_    0.498479 0.898666 0.844886 0.197107
H3    H     H_    0.497173 0.118466 0.840964 0.205765
H4    H     H_    0.417222 0.424898 0.128546 0.134027
H5    H     H_    0.053223 0.195205 0.595123 0.200885
H6    H     H_    0.417186 0.424992 0.869198 0.140665
H7    H     H_    0.623838 0.635707 0.877948 0.196646
H8    H     H_    0.555271 0.722127 0.877286 0.214667
H9    H     H_    0.947981 0.790341 0.399333 0.170776
H10   H     H_    0.320420 0.493225 0.726328 0.164273
H11   H     H_    0.320277 0.503695 0.272969 0.163375
H12   H     H_    0.783744 0.486882 0.274427 0.155995
N1    N     N_R   0.851936 0.491662 0.497955 -0.456454
N2    N     N_R   0.148010 0.495216 0.497508 -0.452692
N3    N     N_R   0.500360 0.500930 0.147930 -0.181063
N4    N     N_R   0.500360 0.500890 0.852020 -0.183809
O1    O     O_R   0.500000 0.319640 0.618810 -0.586241
O2    O     O_2   0.849699 0.283687 0.562865 -0.486871
O3    O     O_2   0.149564 0.286693 0.563163 -0.518768
O4    O     O_2   0.148425 0.703623 0.431111 -0.547497
O5    O     O_R   0.500010 0.319680 0.381230 -0.524962
O6    O     O_R   0.417880 0.499940 0.618820 -0.591899
O7    O     O_R   0.417880 0.499980 0.381240 -0.596207
O8    O     O_R   0.499990 0.680320 0.618770 -0.577154
O9    O     O_R   0.500000 0.680360 0.381190 -0.588452
O10   O     O_R   0.582120 0.500020 0.618760 -0.585875
O11   O     O_R   0.582120 0.500060 0.381180 -0.583673
O12   O     O_2   0.851171 0.699928 0.431685 -0.534546
O13   O     O_3   0.943118 0.167298 0.603008 -0.528822
C45   C     C_3   0.946578 0.079772 0.492608 -0.220605
H13   H     H_    0.929738 0.117272 0.392546 0.159215
H14   H     H_    0.919979 0.998890 0.520072 0.209560
H15   H     H_    0.990876 0.046505 0.478050 0.133140
H16   H     H_    0.679760 0.488738 0.273337 0.160347
O14   O     O_3   0.793415 0.503241 0.751808 -0.568303
C46   C     C_3   0.772176 0.423085 0.855262 -0.263653
H17   H     H_    0.759540 0.331370 0.810966 0.174510
H18   H     H_    0.736212 0.466515 0.912682 0.143083
H19   H     H_    0.806367 0.406778 0.933018 0.198618
O15   O     O_3   0.487744 0.119639 0.239765 -0.554937
C47   C     C_3   0.432338 0.120269 0.183387 -0.302287
H20   H     H_    0.433277 0.170357 0.082565 0.176668
H21   H     H_    0.402240 0.169690 0.254414 0.157508
H22   H     H_    0.416825 0.025009 0.160647 0.154667
H23   H     H_    0.488121 0.882109 0.272487 0.177021
H24   H     H_    0.565484 0.898125 0.736660 0.198520
H25   H     H_    0.564227 0.118553 0.734184 0.201162
H26   H     H_    0.623196 0.636724 0.128519 0.197075
H27   H     H_    0.554728 0.724599 0.128230 0.216478
H28   H     H_    0.051122 0.792048 0.399519 0.183288
O16   O     O_3   0.209040 0.490709 0.752347 -0.564691
C48   C     C_3   0.207351 0.609682 0.813473 -0.306842
H29   H     H_    0.186398 0.676724 0.742640 0.184589
H30   H     H_    0.250663 0.642639 0.842785 0.154178
H31   H     H_    0.181810 0.605536 0.911146 0.201359
H32   H     H_    0.216186 0.500903 0.273572 0.164202

loop_
_geom_bond_atom_site_label_1
_geom_bond_atom_site_label_2
_ccdc_geom_bond_type
C47   H20   S    
C31   H24   S    
C41   C42   A    
C19   C20   A    
C45   H15   S    
C12   O7    A    
O16   C48   S    
C7    C8    A    
Cu1   Cu2   S    
C7    H28   S    
C12   O6    A    
C26   C27   A    
C29   C30   A    
C18   C24   A    
C23   C29   S    
C28   C29   A    
C45   H14   S    
C5    C6    A    
C15   C16   A    
Cu1   N4    S    
C18   C19   A    
Cu2   O7    S    
C18   H12   S    
C35   C36   A    
C16   C17   A    
C36   H6    S    
C13   H10   S    
C20   C34   S    
C25   C32   S    
C32   H25   S    
C5    C43   A    
C40   N1    A    
C21   C22   A    
Cu1   O10   S    
C15   H11   S    
C23   O8    A    
C35   H4    S    
C36   N4    A    
C1    O1    A    
C8    H9    S    
C37   N4    A    
C9    O3    S    
C10   O4    S    
C38   C39   S    
Cu2   N3    S    
C22   O14   S    
C23   O9    A    
C45   H13   S    
C41   N1    A    
C3    H5    S    
O15   C47   S    
C34   O11   A    
C25   C26   A    
Cu1   O1    S    
O14   C46   S    
C27   O15   S    
C10   N2    A    
O13   C45   S    
C39   H26   S    
C37   C38   S    
C31   C32   S    
C38   H8    S    
Cu1   O6    S    
C35   N3    A    
C33   C39   S    
C39   H27   S    
Cu2   O9    S    
C16   H32   S    
C12   C14   S    
C46   H17   S    
C46   H18   S    
C31   H2    S    
C47   H21   S    
C43   C44   A    
C1    C26   S    
C22   C24   A    
C42   C43   A    
C3    C4    A    
C48   H31   S    
C34   O10   A    
C25   C30   A    
C11   C17   A    
Cu1   O8    S    
C8    C44   A    
C4    C5    A    
C6    C10   A    
C6    C7    A    
C46   H19   S    
C48   H30   S    
C11   O16   S    
C9    N2    A    
C2    C3    A    
Cu2   O5    S    
C11   C13   A    
C30   C31   S    
C38   H7    S    
C2    C42   A    
C24   N1    S    
C1    O5    A    
C40   O12   S    
C28   H23   S    
C19   H16   S    
C33   C37   A    
C32   H3    S    
C17   N2    S    
C40   C44   A    
C20   C21   A    
C33   N3    A    
C48   H29   S    
C47   H22   S    
C27   C28   A    
C14   C15   A    
C41   O2    S    
C4    C9    A    
C13   C14   A    
Cu2   O11   S    
C2    O13   S    
C21   H1    S    
