data_mof_unit_15893.cif
_audit_creation_date              2012-12-11T15:11:42-0500
_audit_creation_method            fapswitch 2.2
_symmetry_space_group_name_H-M    P1
_symmetry_Int_Tables_number       1
_space_group_crystal_system       triclinic
_cell_length_a                    20.271795
_cell_length_b                    7.140391
_cell_length_c                    13.146517
_cell_angle_alpha                 90.000175
_cell_angle_beta                  103.427178
_cell_angle_gamma                 89.999874
_cell_volume                      1850.92393208

loop_
_atom_site_label
_atom_site_type_symbol
_atom_type_description
_atom_site_fract_x
_atom_site_fract_y
_atom_site_fract_z
_atom_type_partial_charge
O1    O     O_R   0.449830 0.506740 0.599960 -0.532498
O2    O     O_R   0.550170 0.006740 0.400040 -0.532498
O3    O     O_R   0.588980 0.179860 0.596720 -0.544449
O4    O     O_R   0.411020 0.679860 0.403280 -0.544449
C1    C     C_R   0.616057 0.344500 0.619962 0.654250
C2    C     C_R   0.383943 0.844501 0.380037 0.654251
O5    O     O_R   0.452740 0.177340 0.612040 -0.536558
O6    O     O_R   0.547260 0.677340 0.387960 -0.536557
O7    O     O_R   0.412960 0.002070 0.415460 -0.540141
O8    O     O_R   0.587040 0.502070 0.584540 -0.540141
C3    C     C_R   0.437634 0.345897 0.640897 0.688748
C4    C     C_R   0.562368 0.845896 0.359104 0.688745
O9    O     O_3   0.487110 0.337570 0.435490 -0.371683
O10   O     O_3   0.512890 0.837570 0.564510 -0.371683
V1    V     V_3+5 0.502390 0.064650 0.511970 1.388984
V2    V     V_3+5 0.497610 0.564650 0.488030 1.388985
C5    C     C_R   0.610755 0.871636 0.098944 -0.164385
C6    C     C_R   0.389249 0.371688 0.901066 -0.164367
H1    H     H_    0.696936 0.874138 0.973294 0.116557
H2    H     H_    0.303067 0.374178 0.026717 0.116548
H3    H     H_    0.585660 0.875010 0.016640 0.111204
H4    H     H_    0.414348 0.375092 0.983378 0.111191
C7    C     C_R   0.602418 0.855017 0.279475 -0.033349
C8    C     C_R   0.397582 0.355020 0.720525 -0.033338
C9    C     C_R   0.931191 0.853577 0.334616 0.060763
C10   C     C_R   0.068807 0.353569 0.665382 0.060759
C11   C     C_R   0.889986 0.859911 0.410458 0.191344
C12   C     C_R   0.110012 0.359883 0.589536 0.191272
C13   C     C_R   0.820400 0.891522 0.374549 -0.208373
C14   C     C_R   0.179599 0.391514 0.625441 -0.208369
C15   C     C_R   0.786621 0.876017 0.269427 0.028371
C16   C     C_R   0.213377 0.376003 0.730566 0.028376
C17   C     C_R   0.825728 0.866822 0.193318 0.059821
C18   C     C_R   0.174270 0.366812 0.806680 0.059811
C19   C     C_R   0.714300 0.871206 0.238591 0.092616
C20   C     C_R   0.285698 0.371197 0.761404 0.092605
C21   C     C_R   0.681975 0.873185 0.130768 0.147809
C22   C     C_R   0.318026 0.373205 0.869235 0.147813
C23   C     C_R   0.721071 0.873288 0.056033 -0.227617
C24   C     C_R   0.278930 0.373310 0.943972 -0.227605
C25   C     C_R   0.791650 0.867363 0.086561 -0.183200
C26   C     C_R   0.208351 0.367365 0.913441 -0.183197
C27   C     C_R   0.672984 0.856588 0.311707 -0.218412
C28   C     C_R   0.327011 0.356556 0.688284 -0.218422
C29   C     C_R   0.571217 0.864007 0.172989 -0.179461
C30   C     C_R   0.428789 0.364057 0.827021 -0.179461
C31   C     C_R   0.897833 0.861201 0.225034 -0.161431
C32   C     C_R   0.102166 0.361196 0.774964 -0.161421
H5    H     H_    0.693760 0.840362 0.394508 0.090304
H6    H     H_    0.306229 0.340289 0.605477 0.090309
H7    H     H_    0.819136 0.863263 0.025230 0.113826
H8    H     H_    0.180865 0.363268 0.974775 0.113826
C33   C     C_3   0.235727 0.732576 0.137743 -0.310480
C34   C     C_3   0.764271 0.232606 0.862262 -0.310495
H9    H     H_    0.215680 0.586927 0.129794 0.140456
H10   H     H_    0.784320 0.086967 0.870237 0.140456
H11   H     H_    0.236997 0.782311 0.058001 0.138004
H12   H     H_    0.762994 0.282380 0.941990 0.138014
C35   C     C_3   0.308883 0.731388 0.208311 -0.327916
C36   C     C_3   0.691119 0.231385 0.791682 -0.327904
H13   H     H_    0.344954 0.786808 0.163508 0.123990
H14   H     H_    0.655040 0.286773 0.836475 0.123981
H15   H     H_    0.323969 0.584227 0.230010 0.139975
H16   H     H_    0.676045 0.084226 0.769977 0.139989
H17   H     H_    0.164133 0.641738 0.287555 0.142813
H18   H     H_    0.835848 0.141695 0.712472 0.142844
H19   H     H_    0.272420 0.626476 0.390276 0.132876
H20   H     H_    0.727575 0.126508 0.609702 0.132870
C37   C     C_3   0.187408 0.783442 0.294866 -0.339752
C38   C     C_3   0.812590 0.283412 0.705144 -0.339746
C39   C     C_3   0.221054 0.059168 0.198780 -0.315862
C40   C     C_3   0.778951 0.559164 0.801204 -0.315848
C41   C     C_3   0.188443 0.860136 0.185111 0.118999
C42   C     C_3   0.811557 0.360135 0.814889 0.118972
H21   H     H_    0.188775 0.158344 0.230599 0.148005
H22   H     H_    0.811228 0.658308 0.769366 0.148019
H23   H     H_    0.224971 0.114477 0.121261 0.135856
H24   H     H_    0.775046 0.614506 0.878719 0.135851
C43   C     C_3   0.313141 0.851445 0.308513 0.121360
C44   C     C_3   0.686859 0.351445 0.691486 0.121342
C45   C     C_3   0.260098 0.774200 0.366141 -0.315667
C46   C     C_3   0.739902 0.274213 0.633860 -0.315676
C47   C     C_3   0.292337 0.054940 0.273077 -0.315370
C48   C     C_3   0.707662 0.554929 0.726926 -0.315379
H25   H     H_    0.329771 0.116100 0.232499 0.130053
H26   H     H_    0.670233 0.616065 0.767518 0.130059
H27   H     H_    0.292246 0.144233 0.342497 0.142547
H28   H     H_    0.707741 0.644235 0.657511 0.142551
H29   H     H_    0.155331 0.875569 0.331227 0.136780
H30   H     H_    0.844681 0.375481 0.668782 0.136778
H31   H     H_    0.261937 0.856610 0.438607 0.126969
H32   H     H_    0.738070 0.356650 0.561410 0.126991
O11   O     O_R   0.912980 0.203550 0.915410 -0.537337
O12   O     O_R   0.087020 0.703550 0.084590 -0.537335
O13   O     O_R   0.047270 0.535570 0.887960 -0.535109
O14   O     O_R   0.952730 0.035570 0.112040 -0.535108
C49   C     C_R   0.062181 0.368042 0.857692 0.690401
C50   C     C_R   0.937818 0.868043 0.142307 0.690399
O15   O     O_R   0.911030 0.532970 0.903270 -0.546953
O16   O     O_R   0.088970 0.032970 0.096730 -0.546955
O17   O     O_R   0.949820 0.708150 0.099970 -0.531610
O18   O     O_R   0.050180 0.208150 0.900030 -0.531609
C51   C     C_R   0.883268 0.365501 0.883842 0.647937
C52   C     C_R   0.116733 0.865501 0.116158 0.647935
O19   O     O_3   0.012900 0.375230 0.064480 -0.370293
O20   O     O_3   0.987100 0.875230 0.935520 -0.370294
V3    V     V_3+5 0.997610 0.648190 0.988040 1.384369
V4    V     V_3+5 0.002390 0.148190 0.011960 1.384371
H33   H     H_    0.516427 0.863131 0.147285 0.099642
H34   H     H_    0.483583 0.363212 0.852732 0.099637
C53   C     C_3   0.009278 0.847064 0.360185 -0.367566
C54   C     C_3   0.051639 0.852011 0.473530 -0.790441
H35   H     H_    0.036037 0.963818 0.520572 0.233530
H36   H     H_    0.051352 0.717936 0.514467 0.220477
H37   H     H_    0.105494 0.877059 0.473378 0.224705
H38   H     H_    0.024789 0.720622 0.322429 0.170724
H39   H     H_    0.026308 0.969283 0.320779 0.175808
C55   C     C_3   0.990719 0.347086 0.639814 -0.367544
C56   C     C_3   0.948363 0.352064 0.526465 -0.790427
H40   H     H_    0.963993 0.463834 0.479422 0.233518
H41   H     H_    0.948623 0.217964 0.485537 0.220475
H42   H     H_    0.894515 0.377206 0.526610 0.224720
H43   H     H_    0.975197 0.220641 0.677565 0.170713
H44   H     H_    0.973694 0.469322 0.679224 0.175803
H45   H     H_    0.792389 0.930744 0.431009 0.139696
H46   H     H_    0.207609 0.430789 0.568982 0.139685
C57   C     C_3   0.915738 0.836064 0.529377 -0.342635
C58   C     C_3   0.863567 0.767533 0.589067 -0.832913
H47   H     H_    0.829096 0.882305 0.600101 0.216356
H48   H     H_    0.833221 0.649445 0.547565 0.234823
H49   H     H_    0.890497 0.719740 0.668158 0.219416
H50   H     H_    0.955389 0.730574 0.546931 0.214243
H51   H     H_    0.936971 0.967213 0.566751 0.185988
C59   C     C_3   0.084257 0.336028 0.470614 -0.342494
C60   C     C_3   0.136433 0.267477 0.410909 -0.832586
H52   H     H_    0.170889 0.382279 0.399826 0.216285
H53   H     H_    0.166797 0.149403 0.452442 0.234760
H54   H     H_    0.109504 0.219623 0.331824 0.219352
H55   H     H_    0.044602 0.230533 0.453079 0.214190
H56   H     H_    0.063016 0.467190 0.433225 0.185921

loop_
_geom_bond_atom_site_label_1
_geom_bond_atom_site_label_2
_ccdc_geom_bond_type
O17   V3    S    
C60   H54   S    
O15   C51   A    
C14   H46   S    
C7    C29   A    
C13   H45   S    
C11   C13   A    
C47   H27   S    
C53   C54   S    
O1    C3    A    
C40   H22   S    
O2    C4    A    
C58   H47   S    
O11   C51   A    
C2    O7    A    
C54   H36   S    
C33   C35   S    
C7    C27   A    
C60   H52   S    
C23   C25   A    
C34   C36   S    
H17   C37   S    
O5    C3    A    
C32   C49   S    
O19   V3    S    
C4    C7    S    
C31   C50   S    
C12   C59   S    
C16   C20   A    
C22   C24   A    
C48   H26   S    
O11   V4    S    
C59   H56   S    
H2    C24   S    
C29   H33   S    
O20   V3    S    
C3    C8    S    
O16   C52   A    
C46   H32   S    
C36   H14   S    
C57   H50   S    
C40   H24   S    
C34   C42   S    
C11   C57   S    
C41   C52   S    
C18   C26   A    
C43   C47   S    
O14   C50   A    
C38   C42   S    
C15   C17   A    
C37   C41   S    
C53   H38   S    
C14   C16   A    
C19   C27   A    
C9    C31   A    
C49   O18   A    
C44   C48   S    
C24   C26   A    
O14   V4    S    
O12   C52   A    
O6    V2    S    
C55   C56   S    
C38   H30   S    
C37   H29   S    
C6    C30   A    
C54   H35   S    
C39   C47   S    
C33   H9    S    
C21   C23   A    
O19   V4    S    
C34   H10   S    
O12   V3    S    
O16   V4    S    
C35   H13   S    
C57   H51   S    
C17   C25   A    
C44   C46   S    
C35   C43   S    
C59   H55   S    
C43   C45   S    
C33   H11   S    
C27   H5    S    
C55   H44   S    
O5    V1    S    
C5    H3    S    
C16   C18   A    
O4    V2    S    
O6    C4    A    
O1    V2    S    
C5    C21   A    
C1    C44   S    
O18   V4    S    
O2    V1    S    
C40   C48   S    
C56   H41   S    
O13   V3    S    
C40   C42   S    
C47   H25   S    
H19   C45   S    
C30   H34   S    
C8    C28   A    
C15   C19   A    
C20   C28   A    
O4    C2    A    
C18   C32   A    
C57   C58   S    
C58   H49   S    
C39   H23   S    
O3    V1    S    
C39   C41   S    
C34   H12   S    
C56   H42   S    
C28   H6    S    
C60   H53   S    
C36   C44   S    
C19   C21   A    
C6    H4    S    
C10   C12   A    
C33   C41   S    
C48   H28   S    
C5    C29   A    
O3    C1    A    
C58   H48   S    
C56   H40   S    
O13   C49   A    
C59   C60   S    
C10   C32   A    
C9    C11   A    
C50   O17   A    
O15   V3    S    
C35   H15   S    
C10   C55   S    
C53   H39   S    
C36   H16   S    
H20   C46   S    
C12   C14   A    
C6    C22   A    
C8    C30   A    
C1    O8    A    
C13   C15   A    
O8    V2    S    
C39   H21   S    
C2    C43   S    
H18   C38   S    
O20   V4    S    
C17   C31   A    
C20   C22   A    
C55   H43   S    
O7    V1    S    
C38   C46   S    
C37   C45   S    
C9    C53   S    
C45   H31   S    
H1    C23   S    
O9    V2    S    
O10   V1    S    
C25   H7    S    
C54   H37   S    
C26   H8    S    
C42   C51   S    
