data_mof_unit_32468.cif
_audit_creation_date              2012-12-11T16:12:44-0500
_audit_creation_method            fapswitch 2.2
_symmetry_space_group_name_H-M    P1
_symmetry_Int_Tables_number       1
_space_group_crystal_system       triclinic
_cell_length_a                    6.997983
_cell_length_b                    21.102726
_cell_length_c                    23.753821
_cell_angle_alpha                 89.999968
_cell_angle_beta                  90.000022
_cell_angle_gamma                 89.999481
_cell_volume                      3507.88156962

loop_
_atom_site_label
_atom_site_type_symbol
_atom_type_description
_atom_site_fract_x
_atom_site_fract_y
_atom_site_fract_z
_atom_type_partial_charge
O1    O     O_R   0.615270 0.806540 0.192260 -0.531456
O2    O     O_R   0.384730 0.193460 0.807740 -0.531301
O3    O     O_R   0.384730 0.193460 0.692260 -0.532602
O4    O     O_R   0.615270 0.806540 0.307740 -0.531374
O5    O     O_R   0.115270 0.693460 0.307740 -0.532602
O6    O     O_R   0.884730 0.306540 0.692260 -0.531392
O7    O     O_R   0.884730 0.306540 0.807740 -0.531454
O8    O     O_R   0.115270 0.693460 0.192260 -0.531310
O9    O     O_R   0.285500 0.813970 0.307340 -0.534867
O10   O     O_R   0.714500 0.186030 0.692660 -0.535868
O11   O     O_R   0.714500 0.186030 0.807340 -0.535973
O12   O     O_R   0.285500 0.813970 0.192660 -0.534041
O13   O     O_R   0.785500 0.686030 0.192660 -0.535977
O14   O     O_R   0.214500 0.313970 0.807340 -0.534040
O15   O     O_R   0.214500 0.313970 0.692660 -0.534867
O16   O     O_R   0.785500 0.686030 0.307340 -0.535866
C1    C     C_R   0.453600 0.829135 0.326570 0.716247
C2    C     C_R   0.546400 0.170868 0.673427 0.711806
C3    C     C_R   0.546398 0.170865 0.826578 0.716271
C4    C     C_R   0.453597 0.829135 0.173421 0.725186
C5    C     C_R   0.953603 0.670865 0.173422 0.716261
C6    C     C_R   0.046401 0.329134 0.826579 0.725190
C7    C     C_R   0.046398 0.329137 0.673432 0.716248
C8    C     C_R   0.953601 0.670867 0.326572 0.711811
O17   O     O_3   0.448760 0.710460 0.250000 -0.370500
O18   O     O_3   0.551240 0.289540 0.750000 -0.366718
O19   O     O_3   0.948760 0.789540 0.250000 -0.366710
O20   O     O_3   0.051240 0.210460 0.750000 -0.370493
V1    V     V_3+5 0.173900 0.757330 0.250000 1.520972
V2    V     V_3+5 0.826100 0.242670 0.750000 1.516355
V3    V     V_3+5 0.673900 0.742670 0.250000 1.516371
V4    V     V_3+5 0.326100 0.257330 0.750000 1.520961
C9    C     C_3   0.092712 0.529119 0.542433 -0.019085
C10   C     C_3   0.907274 0.470914 0.457600 -0.018394
C11   C     C_3   0.912177 0.470824 0.042801 -0.018965
C12   C     C_3   0.088529 0.529811 0.956586 0.020615
C13   C     C_3   0.587824 0.970823 0.957201 -0.018971
C14   C     C_3   0.411464 0.029813 0.043413 0.020600
C15   C     C_3   0.407257 0.029113 0.457569 -0.019117
C16   C     C_3   0.592742 0.970920 0.542400 -0.018382
C17   C     C_3   0.897824 0.549887 0.517840 -0.015415
C18   C     C_3   0.102166 0.450148 0.482192 -0.015901
C19   C     C_3   0.106941 0.451382 0.017270 -0.056493
C20   C     C_3   0.894030 0.549366 0.982220 -0.015027
C21   C     C_3   0.393057 0.951383 0.982730 -0.056480
C22   C     C_3   0.605965 0.049367 0.017780 -0.015007
C23   C     C_3   0.602150 0.049887 0.482153 -0.015489
C24   C     C_3   0.397847 0.950147 0.517816 -0.015917
C25   C     C_1   0.959218 0.624910 0.371900 -0.120494
C26   C     C_1   0.040778 0.375105 0.628115 -0.117454
C27   C     C_1   0.040802 0.375140 0.871883 -0.118857
C28   C     C_1   0.959254 0.624963 0.128036 -0.120727
C29   C     C_1   0.459193 0.875141 0.128117 -0.118865
C30   C     C_1   0.540749 0.124962 0.871964 -0.120702
C31   C     C_1   0.540786 0.124914 0.628098 -0.120510
C32   C     C_1   0.459215 0.875100 0.371890 -0.117387
C33   C     C_3   0.170398 0.519874 0.481786 -0.066593
C34   C     C_3   0.829593 0.480161 0.518248 -0.067105
C35   C     C_3   0.830059 0.479216 0.982492 -0.069682
C36   C     C_3   0.171036 0.521617 0.016818 -0.081865
C37   C     C_3   0.669936 0.979216 0.017511 -0.069677
C38   C     C_3   0.328963 0.021619 0.983180 -0.081872
C39   C     C_3   0.329599 0.019873 0.518220 -0.066603
C40   C     C_3   0.670399 0.980162 0.481750 -0.067101
C41   C     C_3   0.975820 0.540834 0.457315 0.069824
C42   C     C_3   0.024170 0.459200 0.542716 0.069469
C43   C     C_3   0.024378 0.459458 0.957160 0.073526
C44   C     C_3   0.976570 0.541170 0.042375 0.057890
C45   C     C_3   0.475613 0.959459 0.042841 0.073530
C46   C     C_3   0.523431 0.041169 0.957624 0.057896
C47   C     C_3   0.524182 0.040839 0.542681 0.069860
C48   C     C_3   0.475818 0.959194 0.457289 0.069480
C49   C     C_1   0.963019 0.586805 0.410170 0.100173
C50   C     C_1   0.036973 0.413221 0.589854 0.101083
C51   C     C_1   0.037082 0.413317 0.910106 0.093814
C52   C     C_1   0.963276 0.586957 0.089680 0.088715
C53   C     C_1   0.462911 0.913319 0.089895 0.093798
C54   C     C_1   0.536728 0.086956 0.910320 0.088750
C55   C     C_1   0.536986 0.086810 0.589826 0.100144
C56   C     C_1   0.463015 0.913214 0.410153 0.101174
C57   C     C_2   0.781395 0.604367 0.539258 0.320528
H1    H     H_    0.731841 0.604152 0.582469 0.070137
O21   O     O_2   0.742980 0.649019 0.508663 -0.526268
C58   C     C_2   0.218615 0.395673 0.460772 0.320563
H2    H     H_    0.268191 0.395896 0.417564 0.069072
O22   O     O_2   0.257021 0.351017 0.491363 -0.526354
C59   C     C_2   0.226187 0.397462 0.038484 0.313860
H3    H     H_    0.283382 0.399124 0.080861 0.039231
O23   O     O_2   0.258229 0.351583 0.008691 -0.515473
C60   C     C_2   0.772057 0.602902 0.961564 0.392628
H4    H     H_    0.715549 0.601669 0.919080 0.056827
O24   O     O_2   0.737014 0.648031 0.991942 -0.501278
C61   C     C_2   0.273809 0.897464 0.961516 0.313846
H5    H     H_    0.216614 0.899127 0.919139 0.039240
O25   O     O_2   0.241768 0.851585 0.991309 -0.515478
C62   C     C_2   0.727936 0.102902 0.038436 0.392560
H6    H     H_    0.784425 0.101673 0.080922 0.056851
O26   O     O_2   0.763000 0.148027 0.008055 -0.501295
C63   C     C_2   0.718572 0.104364 0.460726 0.320484
H7    H     H_    0.768104 0.104142 0.417513 0.070062
O27   O     O_2   0.757002 0.149019 0.491315 -0.526259
C64   C     C_2   0.281424 0.895671 0.539244 0.320624
H8    H     H_    0.231904 0.895891 0.582458 0.069083
O28   O     O_2   0.242980 0.851018 0.508655 -0.526347
C65   C     C_3   0.194093 0.560434 0.592410 -0.394809
C66   C     C_3   0.241613 0.630419 0.581650 -0.287024
C67   C     C_3   0.334308 0.660582 0.633254 -0.740379
H9    H     H_    0.233501 0.659979 0.669378 0.222124
H10   H     H_    0.466314 0.634597 0.645054 0.227800
H11   H     H_    0.372384 0.710553 0.623777 0.231302
H12   H     H_    0.340841 0.634880 0.545500 0.218579
H13   H     H_    0.110018 0.657378 0.571540 0.219294
H14   H     H_    0.099548 0.556556 0.629842 0.185581
H15   H     H_    0.327526 0.533995 0.601315 0.221493
C68   C     C_3   0.805839 0.439599 0.407632 -0.397277
C69   C     C_3   0.758446 0.369602 0.418384 -0.284448
C70   C     C_3   0.665685 0.339438 0.366791 -0.744235
H16   H     H_    0.533615 0.365404 0.355021 0.226500
H17   H     H_    0.766414 0.340070 0.330648 0.220879
H18   H     H_    0.627710 0.289458 0.376263 0.232259
H19   H     H_    0.890101 0.342660 0.428460 0.219112
H20   H     H_    0.659307 0.365111 0.454552 0.218494
H21   H     H_    0.672344 0.466018 0.398759 0.220684
H22   H     H_    0.900300 0.443503 0.370184 0.183279
C71   C     C_3   0.818980 0.439310 0.094156 -0.401764
C72   C     C_3   0.771530 0.369170 0.084215 -0.269404
C73   C     C_3   0.680736 0.339575 0.136367 -0.753656
H23   H     H_    0.781475 0.341612 0.172466 0.222079
H24   H     H_    0.547122 0.364968 0.147656 0.221106
H25   H     H_    0.645509 0.289175 0.127769 0.233516
H26   H     H_    0.671046 0.364055 0.048489 0.212106
H27   H     H_    0.903117 0.342262 0.073961 0.223552
H28   H     H_    0.919453 0.443328 0.130213 0.175048
H29   H     H_    0.687077 0.465519 0.105355 0.175517
C74   C     C_3   0.182615 0.560450 0.905070 -0.396086
C75   C     C_3   0.236104 0.630029 0.914916 -0.256286
C76   C     C_3   0.313317 0.660331 0.861217 -0.769290
H30   H     H_    0.441834 0.634415 0.846262 0.231942
H31   H     H_    0.202557 0.659769 0.827718 0.225593
H32   H     H_    0.353796 0.710298 0.869800 0.234109
H33   H     H_    0.109570 0.657362 0.929176 0.218637
H34   H     H_    0.347932 0.633292 0.947749 0.258335
H35   H     H_    0.312695 0.533186 0.894030 0.225004
H36   H     H_    0.081078 0.557074 0.869217 0.178968
C77   C     C_3   0.681035 0.939310 0.905848 -0.401765
C78   C     C_3   0.728475 0.869168 0.915788 -0.269407
C79   C     C_3   0.819260 0.839572 0.863635 -0.753642
H37   H     H_    0.718514 0.841608 0.827538 0.222078
H38   H     H_    0.952871 0.864964 0.852343 0.221107
H39   H     H_    0.854491 0.789172 0.872234 0.233516
H40   H     H_    0.828961 0.864050 0.951513 0.212105
H41   H     H_    0.596885 0.842263 0.926042 0.223559
H42   H     H_    0.580574 0.943330 0.869788 0.175058
H43   H     H_    0.812946 0.965516 0.894654 0.175513
C80   C     C_3   0.317377 0.060458 0.094925 -0.396109
C81   C     C_3   0.263856 0.130033 0.085067 -0.256274
C82   C     C_3   0.186657 0.160347 0.138763 -0.769278
H44   H     H_    0.058162 0.134429 0.153730 0.231937
H45   H     H_    0.297437 0.159800 0.172256 0.225587
H46   H     H_    0.146147 0.210310 0.130169 0.234118
H47   H     H_    0.390372 0.157367 0.070795 0.218655
H48   H     H_    0.152010 0.133283 0.052238 0.258314
H49   H     H_    0.187311 0.033192 0.105973 0.225007
H50   H     H_    0.418924 0.057095 0.130777 0.178971
C83   C     C_3   0.305802 0.060408 0.407595 -0.394820
C84   C     C_3   0.258368 0.130404 0.418331 -0.287028
C85   C     C_3   0.165605 0.160548 0.366728 -0.740365
H51   H     H_    0.266345 0.159912 0.330588 0.222122
H52   H     H_    0.033556 0.134570 0.354959 0.227784
H53   H     H_    0.127595 0.210528 0.376188 0.231291
H54   H     H_    0.159216 0.134896 0.454496 0.218585
H55   H     H_    0.390006 0.157355 0.428405 0.219272
H56   H     H_    0.400263 0.056498 0.370147 0.185600
H57   H     H_    0.172324 0.033979 0.398727 0.221390
C86   C     C_3   0.694188 0.939604 0.592365 -0.397306
C87   C     C_3   0.741683 0.869618 0.581594 -0.284426
C88   C     C_3   0.834402 0.839442 0.633189 -0.744226
H58   H     H_    0.966409 0.865425 0.644990 0.226500
H59   H     H_    0.733608 0.840037 0.669316 0.220877
H60   H     H_    0.872475 0.789474 0.623702 0.232269
H61   H     H_    0.610077 0.842664 0.571489 0.219122
H62   H     H_    0.840885 0.865159 0.545438 0.218531
H63   H     H_    0.827639 0.966039 0.601253 0.220711
H64   H     H_    0.599696 0.943482 0.629808 0.183275
C89   C     C_2   0.642969 0.457631 0.541632 0.316727
H65   H     H_    0.530968 0.442102 0.513713 0.077064
O29   O     O_2   0.615132 0.458011 0.592324 -0.539872
C90   C     C_2   0.357043 0.542404 0.458415 0.315752
H66   H     H_    0.469129 0.557838 0.486346 0.077439
O30   O     O_2   0.384818 0.542116 0.407720 -0.542011
C91   C     C_2   0.357021 0.546042 0.039383 0.377393
H67   H     H_    0.473635 0.513901 0.047117 0.005610
O31   O     O_2   0.377354 0.602244 0.049781 -0.502094
C92   C     C_2   0.645643 0.455691 0.958314 0.319983
H68   H     H_    0.543383 0.431587 0.984481 0.081427
O32   O     O_2   0.610713 0.463365 0.908472 -0.544290
C93   C     C_2   0.142974 0.046046 0.960618 0.377383
H69   H     H_    0.026313 0.013913 0.952918 0.005648
O33   O     O_2   0.122681 0.102242 0.950189 -0.502100
C94   C     C_2   0.854344 0.955690 0.041694 0.319939
H70   H     H_    0.956590 0.931570 0.015532 0.081459
O34   O     O_2   0.889283 0.963378 0.091533 -0.544293
C95   C     C_2   0.857036 0.957631 0.458371 0.316841
H71   H     H_    0.969171 0.942217 0.486295 0.076926
O35   O     O_2   0.884764 0.957904 0.407674 -0.539816
C96   C     C_2   0.142968 0.042411 0.541595 0.315696
H72   H     H_    0.030900 0.057874 0.513669 0.077441
O36   O     O_2   0.115185 0.042103 0.592290 -0.542016

loop_
_geom_bond_atom_site_label_1
_geom_bond_atom_site_label_2
_ccdc_geom_bond_type
C71   H29   S    
O17   V3    S    
C92   O32   D    
C59   H3    S    
C73   H24   S    
C84   H55   S    
C61   H5    S    
C16   C47   S    
O12   V1    S    
O19   V1    S    
C64   H8    S    
C45   C53   S    
C79   H37   S    
C10   C18   S    
C95   H71   S    
C21   C61   S    
C47   C55   S    
C77   C78   S    
C89   H65   S    
C12   C43   S    
C23   C63   S    
C74   C75   S    
C85   H52   S    
C66   H13   S    
O16   V3    S    
C87   H62   S    
C95   O35   D    
O11   C3    A    
C83   C84   S    
C71   C72   S    
C69   H20   S    
C72   C73   S    
O8    V1    S    
C11   C44   S    
O2    V4    S    
C65   H14   S    
C81   C82   S    
C79   H38   S    
C58   O22   D    
C17   C34   S    
C70   H17   S    
C76   H32   S    
C96   O36   D    
C89   O29   D    
C46   C54   S    
C66   C67   S    
C20   C35   S    
C71   H28   S    
C68   C69   S    
C42   C50   S    
C21   C38   S    
O1    V3    S    
C41   C49   S    
C69   C70   S    
C38   C46   S    
O3    C2    A    
C90   O30   D    
C11   C71   S    
C33   C90   S    
C75   H34   S    
C35   C43   S    
C34   C42   S    
C82   H44   S    
C86   C87   S    
O11   V2    S    
C94   H70   S    
C88   H59   S    
C39   C96   S    
C62   O26   D    
C67   H9    S    
C11   C19   S    
O9    V1    S    
C77   H42   S    
O15   C7    A    
C92   H68   S    
C14   C45   S    
C81   H48   S    
C84   H54   S    
O16   C8    A    
O7    V2    S    
C13   C46   S    
C34   C89   S    
C67   H10   S    
C93   H69   S    
C14   C80   S    
C24   C48   S    
C18   C33   S    
C57   O21   D    
C9    C42   S    
C57   H1    S    
C85   H53   S    
O5    V1    S    
C66   H12   S    
C35   C92   S    
O17   V1    S    
C87   H61   S    
C11   C35   S    
C68   H21   S    
C69   H19   S    
C22   C37   S    
O19   V3    S    
C91   H67   S    
C65   H15   S    
O20   V4    S    
C79   H39   S    
C18   C58   S    
C58   H2    S    
C94   O34   D    
C70   H18   S    
O14   V4    S    
C85   H51   S    
C96   H72   S    
C75   C76   S    
C7    C26   S    
C17   C41   S    
C80   H49   S    
C10   C68   S    
C21   C45   S    
C90   H66   S    
C15   C83   S    
C29   C53   T    
C91   O31   D    
C19   C43   S    
C75   H33   S    
C31   C55   T    
O10   V2    S    
C60   O24   D    
C63   H7    S    
C72   H27   S    
C32   C56   T    
C15   C48   S    
C88   H60   S    
C17   C57   S    
C62   H6    S    
O12   C4    A    
O8    C5    A    
C28   C52   T    
O13   C5    A    
C64   O28   D    
C76   H31   S    
C1    C32   S    
C23   C47   S    
C19   C36   S    
C78   H41   S    
C77   H43   S    
C2    C31   S    
C3    C30   S    
O9    C1    A    
C74   H36   S    
O6    V2    S    
C40   C95   S    
C39   C47   S    
C81   H47   S    
O18   V2    S    
C82   H46   S    
C59   O23   D    
C10   C41   S    
C84   C85   S    
C67   H11   S    
C25   C49   T    
C12   C20   S    
C43   C51   S    
O4    C1    A    
C13   C21   S    
C73   H23   S    
C12   C74   S    
C23   C40   S    
C20   C60   S    
C27   C51   T    
C15   C23   S    
C78   C79   S    
C65   C66   S    
C37   C45   S    
C8    C25   S    
C16   C24   S    
C87   C88   S    
O1    C4    A    
C9    C33   S    
C68   H22   S    
C63   O27   D    
O2    C3    A    
C86   H63   S    
O13   V3    S    
C18   C42   S    
C38   C93   S    
C33   C41   S    
C4    C29   S    
C24   C39   S    
O15   V4    S    
C16   C86   S    
C13   C37   S    
O18   V4    S    
C80   H50   S    
C44   C52   S    
O7    C6    A    
C15   C39   S    
C76   H30   S    
C16   C40   S    
C9    C65   S    
C24   C64   S    
C19   C59   S    
O14   C6    A    
C93   O33   D    
C83   H57   S    
C73   H25   S    
C9    C17   S    
C48   C56   S    
C70   H16   S    
C14   C22   S    
C26   C50   T    
C60   H4    S    
C61   O25   D    
O5    C8    A    
C72   H26   S    
O10   C2    A    
C36   C91   S    
O6    C7    A    
O20   V2    S    
C74   H35   S    
C30   C54   T    
C40   C48   S    
C37   C94   S    
O3    V4    S    
C22   C46   S    
O4    V3    S    
C20   C44   S    
C78   H40   S    
C22   C62   S    
C36   C44   S    
C82   H45   S    
C88   H58   S    
C80   C81   S    
C10   C34   S    
C12   C36   S    
C6    C27   S    
C13   C77   S    
C83   H56   S    
C5    C28   S    
C86   H64   S    
C14   C38   S    
