data_mof_unit_34890.cif
_audit_creation_date              2012-12-10T18:44:23-0500
_audit_creation_method            fapswitch 2.2
_symmetry_space_group_name_H-M    P1
_symmetry_Int_Tables_number       1
_space_group_crystal_system       triclinic
_cell_length_a                    12.964231
_cell_length_b                    10.615901
_cell_length_c                    9.894681
_cell_angle_alpha                 91.233241
_cell_angle_beta                  97.651966
_cell_angle_gamma                 91.345262
_cell_volume                      1348.85925927

loop_
_atom_site_label
_atom_site_type_symbol
_atom_type_description
_atom_site_fract_x
_atom_site_fract_y
_atom_site_fract_z
_atom_type_partial_charge
C1    C     C_R   0.497148 0.260361 0.498303 0.854921
C2    C     C_R   0.502803 0.739502 0.501601 0.884143
C3    C     C_R   0.503643 0.871847 0.502968 -0.056871
C4    C     C_R   0.496676 0.127814 0.496541 -0.047963
C5    C     C_R   0.558024 0.586848 0.085595 -0.073756
C6    C     C_R   0.442548 0.412880 0.914418 -0.075676
C7    C     C_R   0.557365 0.588846 0.942118 0.221767
C8    C     C_R   0.440147 0.413849 0.056991 0.229151
C9    C     C_R   0.298146 0.498607 0.472489 0.888396
C10   C     C_R   0.701753 0.491598 0.526651 0.900467
C11   C     C_R   0.813756 0.471364 0.540311 -0.196782
C12   C     C_R   0.185568 0.491778 0.454096 -0.203658
C13   C     C_R   0.018656 0.525988 0.323226 -0.193600
C14   C     C_R   0.980075 0.427856 0.670673 -0.165490
C15   C     C_R   0.126220 0.534899 0.333918 0.106882
C16   C     C_R   0.873033 0.440967 0.666145 0.102284
C17   C     C_R   0.135883 0.444285 0.561941 0.414994
C18   C     C_R   0.862914 0.478082 0.421069 0.400736
C19   C     C_R   0.029005 0.453380 0.556207 -0.035323
C20   C     C_R   0.970268 0.486075 0.433326 -0.071152
C21   C     C_R   0.409673 0.056614 0.434594 0.204064
C22   C     C_R   0.591280 0.942722 0.563087 0.194245
C23   C     C_R   0.414751 0.927283 0.438070 -0.236437
C24   C     C_R   0.585960 0.072238 0.560693 -0.244601
H1    H     H_    0.972334 0.555658 0.230509 0.191996
H2    H     H_    0.025809 0.403225 0.765748 0.196231
H3    H     H_    0.348768 0.869263 0.391769 0.148493
H4    H     H_    0.652139 0.130182 0.606515 0.146787
H5    H     H_    0.603577 0.656140 0.151525 0.164742
H6    H     H_    0.396650 0.343769 0.848806 0.170351
N1    N     N_R   0.499970 0.499970 0.857200 -0.099613
N2    N     N_R   0.500030 0.500030 0.142800 -0.105943
O1    O     O_R   0.499990 0.316750 0.614620 -0.633613
O2    O     O_R   0.500010 0.683250 0.385380 -0.621536
O3    O     O_R   0.499990 0.316780 0.385290 -0.621170
O4    O     O_R   0.500010 0.683220 0.614710 -0.614220
O5    O     O_R   0.346360 0.499970 0.595710 -0.565222
O6    O     O_R   0.653640 0.500030 0.404290 -0.552370
O7    O     O_R   0.346360 0.499990 0.366380 -0.638559
O8    O     O_R   0.653640 0.500010 0.633620 -0.636268
Zn1   Zn    Zn3+2 0.500000 0.499980 0.653120 0.946896
Zn2   Zn    Zn3+2 0.500000 0.500020 0.346880 0.948825
O9    O     O_3   0.806285 0.474010 0.291587 -0.596335
C25   C     C_3   0.808936 0.349813 0.236835 0.110876
H7    H     H_    0.794899 0.276975 0.312595 0.127207
H8    H     H_    0.885569 0.333612 0.201447 0.136300
C26   C     C_3   0.724717 0.331518 0.115233 -0.800530
H9    H     H_    0.735628 0.241262 0.060757 0.197630
H10   H     H_    0.647251 0.327888 0.150928 0.266552
H11   H     H_    0.728299 0.410067 0.043739 0.259741
O10   O     O_3   0.190973 0.387434 0.673216 -0.604315
C27   C     C_3   0.205064 0.258954 0.640010 0.085381
H12   H     H_    0.286965 0.247055 0.622060 0.175797
H13   H     H_    0.152917 0.222013 0.547843 0.121413
C28   C     C_3   0.185002 0.177435 0.758771 -0.857663
H14   H     H_    0.103837 0.188203 0.780646 0.249946
H15   H     H_    0.196640 0.076939 0.732732 0.220702
H16   H     H_    0.239763 0.204716 0.850906 0.252001
C29   C     C_3   0.825629 0.416489 0.794701 -0.859464
H17   H     H_    0.883796 0.382755 0.877899 0.221232
H18   H     H_    0.794340 0.504790 0.832623 0.254331
H19   H     H_    0.763150 0.342459 0.774856 0.248789
C30   C     C_3   0.173638 0.592823 0.217407 -0.819680
H20   H     H_    0.113677 0.632133 0.140085 0.219230
H21   H     H_    0.228145 0.671656 0.256231 0.240767
H22   H     H_    0.214852 0.520372 0.164293 0.261183
C31   C     C_3   0.310307 0.112653 0.368183 -0.974759
H23   H     H_    0.300431 0.091270 0.256859 0.260461
H24   H     H_    0.243045 0.070197 0.411159 0.235292
H25   H     H_    0.308222 0.215841 0.385028 0.220295
C32   C     C_3   0.691686 0.885570 0.624842 -0.931600
H26   H     H_    0.706269 0.909706 0.735576 0.247358
H27   H     H_    0.691567 0.781728 0.611198 0.237239
H28   H     H_    0.757165 0.924479 0.575390 0.241917
C33   C     C_3   0.617063 0.693909 0.886449 -0.855053
H29   H     H_    0.663651 0.658331 0.809374 0.268280
H30   H     H_    0.562367 0.765713 0.842902 0.261253
H31   H     H_    0.672409 0.742005 0.967761 0.200526
C34   C     C_3   0.368524 0.318811 0.107711 -0.895976
H32   H     H_    0.360108 0.334502 0.214596 0.300705
H33   H     H_    0.289328 0.325818 0.050499 0.216810
H34   H     H_    0.397453 0.222524 0.093069 0.229611

loop_
_geom_bond_atom_site_label_1
_geom_bond_atom_site_label_2
_ccdc_geom_bond_type
C28   H14   S    
C30   H21   S    
C11   C18   A    
C3    C23   A    
C19   C20   A    
O2    Zn2   S    
O9    C25   S    
C17   O10   S    
C1    O1    A    
C26   H10   S    
C25   H7    S    
O6    Zn2   S    
C4    C24   A    
C9    O7    A    
C10   O8    A    
O3    Zn2   S    
C25   H8    S    
C12   C17   A    
C8    C34   S    
C23   H3    S    
O7    Zn2   S    
C18   C20   A    
C25   C26   S    
C5    N2    A    
C2    O2    A    
C6    N1    A    
C30   H22   S    
C29   H17   S    
C21   C31   S    
C13   H1    S    
O4    Zn1   S    
C9    C12   S    
C27   H13   S    
C26   H11   S    
C5    H5    S    
C21   C23   A    
C29   H18   S    
C7    N1    A    
C31   H23   S    
C8    N2    A    
C5    C7    A    
C6    C8    A    
O10   C27   S    
C31   H24   S    
C16   C29   S    
C33   H29   S    
C32   H28   S    
C11   C16   A    
C26   H9    S    
C12   C15   A    
C9    O5    A    
C14   H2    S    
C33   H30   S    
O8    Zn1   S    
C6    H6    S    
C13   C15   A    
C14   C16   A    
C22   C32   S    
C27   H12   S    
C1    O3    A    
C34   H33   S    
C2    O4    A    
C29   H19   S    
C15   C30   S    
N1    Zn1   S    
C13   C20   A    
C14   C19   A    
C24   H4    S    
C30   H20   S    
C34   H34   S    
C7    C33   S    
C27   C28   S    
C10   O6    A    
C1    C4    S    
O1    Zn1   S    
C31   H25   S    
C28   H15   S    
C2    C3    S    
C32   H26   S    
C18   O9    S    
C4    C21   A    
C17   C19   A    
C22   C24   A    
O5    Zn1   S    
C33   H31   S    
C10   C11   S    
C34   H32   S    
C28   H16   S    
C32   H27   S    
N2    Zn2   S    
C3    C22   A    
