data_mof_unit_58407.cif
_audit_creation_date              2012-10-26T20:07:46-0400
_audit_creation_method            fapswitch 2.2
_symmetry_space_group_name_H-M    P1
_symmetry_Int_Tables_number       1
_space_group_crystal_system       triclinic
_cell_length_a                    9.49187
_cell_length_b                    10.834326
_cell_length_c                    17.153943
_cell_angle_alpha                 89.439274
_cell_angle_beta                  95.444735
_cell_angle_gamma                 90.027744
_cell_volume                      1756.03396511

loop_
_atom_site_label
_atom_site_type_symbol
_atom_type_description
_atom_site_fract_x
_atom_site_fract_y
_atom_site_fract_z
_atom_type_partial_charge
C1    C     C_R   0.499959 0.261991 0.500093 0.552211
C2    C     C_R   0.067224 0.585410 0.457100 0.002690
C3    C     C_R   0.519926 0.496137 0.651337 0.547009
C4    C     C_R   0.480074 0.503863 0.348663 0.547009
C5    C     C_R   0.534959 0.492609 0.738054 0.003737
C6    C     C_R   0.465041 0.507393 0.261946 0.003737
C7    C     C_R   0.414324 0.521416 0.775836 -0.174529
C8    C     C_R   0.585676 0.478586 0.224164 -0.174529
C9    C     C_R   0.418311 0.519632 0.856736 -0.100297
C10   C     C_R   0.581689 0.480371 0.143264 -0.100297
C11   C     C_R   0.544305 0.489144 0.902506 0.209665
C12   C     C_R   0.500041 0.738009 0.499907 0.552211
C13   C     C_R   0.455695 0.510859 0.097494 0.209665
C14   C     C_R   0.664866 0.460225 0.866039 -0.088795
C15   C     C_R   0.335134 0.539777 0.133961 -0.088795
C16   C     C_R   0.663960 0.460708 0.783882 -0.028368
C17   C     C_R   0.336041 0.539294 0.216118 -0.028368
C18   C     C_R   0.371822 0.063782 0.499271 -0.139811
C19   C     C_R   0.628178 0.936218 0.500729 -0.139811
C20   C     C_3   0.797395 0.426541 0.745492 -0.242331
C21   C     C_3   0.926294 0.384969 0.800716 -0.322608
C22   C     C_3   0.050681 0.351185 0.754793 -0.456986
C23   C     C_R   0.371836 0.936093 0.499117 -0.141047
C24   C     C_3   0.202606 0.573460 0.254508 -0.242331
C25   C     C_3   0.073707 0.615034 0.199284 -0.322607
C26   C     C_3   0.949321 0.648820 0.245207 -0.456986
C27   C     C_R   0.628164 0.063907 0.500883 -0.141047
C28   C     C_R   0.500022 0.871814 0.499883 0.019941
C29   C     C_R   0.499978 0.128186 0.500117 0.019941
C30   C     C_R   0.081765 0.414567 0.542938 0.007189
C31   C     C_R   0.918235 0.585433 0.457062 0.007190
C32   C     C_R   0.932776 0.414590 0.542900 0.002690
Cu1   Cu    Cu3+1 0.640660 0.500020 0.500000 0.923136
Cu2   Cu    Cu3+1 0.359340 0.499980 0.500000 0.923136
H1    H     H_    0.684426 0.453396 0.257336 0.132261
H2    H     H_    0.728363 0.112001 0.501611 0.123796
H3    H     H_    0.143872 0.346237 0.577351 0.107988
H4    H     H_    0.856128 0.653762 0.422649 0.107988
H5    H     H_    0.882325 0.346098 0.577094 0.098943
H6    H     H_    0.117675 0.653902 0.422906 0.098943
H7    H     H_    0.021919 0.273007 0.714993 0.140725
H8    H     H_    0.081873 0.431761 0.719818 0.149959
H9    H     H_    0.142664 0.323341 0.796060 0.156403
H10   H     H_    0.960762 0.461069 0.841168 0.159041
H11   H     H_    0.898211 0.302762 0.835317 0.166083
H12   H     H_    0.315574 0.546605 0.742664 0.132261
H13   H     H_    0.770158 0.349881 0.704154 0.157722
H14   H     H_    0.830876 0.508411 0.712352 0.176399
H15   H     H_    0.918126 0.568243 0.280182 0.149959
H16   H     H_    0.978084 0.726996 0.285008 0.140725
H17   H     H_    0.857338 0.676666 0.203941 0.156403
H18   H     H_    0.101792 0.697242 0.164683 0.166083
H19   H     H_    0.039238 0.538936 0.158832 0.159040
H20   H     H_    0.169124 0.491590 0.287647 0.176399
H21   H     H_    0.229843 0.650120 0.295847 0.157723
H22   H     H_    0.677489 0.457522 0.116938 0.135901
H23   H     H_    0.322511 0.542480 0.883062 0.135901
H24   H     H_    0.759180 0.437254 0.903638 0.111215
H25   H     H_    0.240821 0.562748 0.096363 0.111215
H26   H     H_    0.271623 0.111777 0.498679 0.124478
H27   H     H_    0.728377 0.888223 0.501321 0.124478
H28   H     H_    0.271637 0.887999 0.498389 0.123796
N1    N     N_2   0.555535 0.486162 0.985510 -0.255226
N2    N     N_2   0.444465 0.513841 0.014490 -0.255226
N3    N     N_R   0.852070 0.500030 0.499980 -0.223083
N4    N     N_R   0.147930 0.499970 0.500020 -0.223083
O1    O     O_R   0.618740 0.319660 0.500000 -0.510443
O2    O     O_R   0.381260 0.680340 0.500000 -0.510444
O3    O     O_R   0.381170 0.319630 0.500010 -0.508269
O4    O     O_R   0.618830 0.680370 0.499990 -0.508269
O5    O     O_R   0.631780 0.498870 0.613920 -0.513275
O6    O     O_R   0.368220 0.501130 0.386080 -0.513275
O7    O     O_R   0.394210 0.498840 0.613930 -0.501424
O8    O     O_R   0.605790 0.501160 0.386070 -0.501424

loop_
_geom_bond_atom_site_label_1
_geom_bond_atom_site_label_2
_ccdc_geom_bond_type
C3    O5    A    
C5    C7    A    
C20   H13   S    
Cu2   O6    S    
C27   H2    S    
C27   C29   A    
C21   H10   S    
C10   H22   S    
C4    O8    A    
C22   H9    S    
C31   H4    S    
C16   C20   S    
C21   C22   S    
Cu2   N4    S    
C26   H16   S    
C1    C29   S    
Cu1   Cu2   S    
C25   H18   S    
Cu1   N3    S    
C18   C29   A    
C22   H8    S    
C23   C28   A    
C24   C25   S    
C24   H21   S    
C30   C32   A    
C19   C28   A    
C12   O2    A    
Cu2   O3    S    
C30   N4    A    
C13   N2    S    
Cu1   O4    S    
C19   H27   S    
C14   H24   S    
C6    C8    A    
C4    C6    S    
C1    O1    A    
C12   C28   S    
C18   H26   S    
C21   H11   S    
C9    C11   A    
C13   C15   A    
C3    O7    A    
C11   C14   A    
C14   C16   A    
C32   H5    S    
C17   C24   S    
Cu1   O5    S    
Cu2   O7    S    
C24   H20   S    
N1    N2    D    
C22   H7    S    
C7    H12   S    
C2    H6    S    
Cu1   O8    S    
C4    O6    A    
C19   C27   A    
C20   C21   S    
Cu1   O1    S    
C9    H23   S    
C7    C9    A    
C26   H15   S    
Cu2   O2    S    
C15   C17   A    
C6    C17   A    
C31   N3    A    
C32   N3    A    
C5    C16   A    
C12   O4    A    
C20   H14   S    
C3    C5    S    
C25   C26   S    
C26   H17   S    
C11   N1    S    
C15   H25   S    
C10   C13   A    
C8    C10   A    
C1    O3    A    
C23   H28   S    
C18   C23   A    
C30   H3    S    
C25   H19   S    
C2    C31   A    
C2    N4    A    
C8    H1    S    
