data_mof_unit_30428.cif
_audit_creation_date              2012-10-26T19:09:55-0400
_audit_creation_method            fapswitch 2.2
_symmetry_space_group_name_H-M    P1
_symmetry_Int_Tables_number       1
_space_group_crystal_system       triclinic
_cell_length_a                    16.025812
_cell_length_b                    16.540207
_cell_length_c                    10.170936
_cell_angle_alpha                 87.359298
_cell_angle_beta                  91.648971
_cell_angle_gamma                 85.28497
_cell_volume                      2682.59947593

loop_
_atom_site_label
_atom_site_type_symbol
_atom_type_description
_atom_site_fract_x
_atom_site_fract_y
_atom_site_fract_z
_atom_type_partial_charge
Br1   Br    Br    0.840871 0.604000 0.136696 -0.367872
Br2   Br    Br    0.827816 0.586826 0.845834 -0.363713
Br3   Br    Br    0.836709 0.440601 0.108240 -0.280754
Br4   Br    Br    0.859141 0.413046 0.854849 -0.402164
Br5   Br    Br    0.340871 0.104000 0.136696 -0.367872
Br6   Br    Br    0.327816 0.086826 0.845834 -0.363713
Br7   Br    Br    0.336709 0.940601 0.108240 -0.280754
Br8   Br    Br    0.359141 0.913046 0.854849 -0.402164
C1    C     C_R   0.120536 0.381410 0.501542 0.509295
C2    C     C_R   0.884516 0.621470 0.499914 0.461802
C3    C     C_R   0.379093 0.882210 0.500850 0.488395
C4    C     C_R   0.384516 0.121470 0.499914 0.461802
C5    C     C_3   0.809284 0.256224 0.632345 -0.230987
C6    C     C_3   0.824380 0.251489 0.393642 -0.188322
C7    C     C_3   0.821538 0.745909 0.625588 -0.218805
C8    C     C_3   0.823117 0.751213 0.380238 -0.231118
C9    C     C_3   0.309284 0.756224 0.632345 -0.230987
C10   C     C_3   0.324380 0.751489 0.393642 -0.188322
C11   C     C_3   0.321538 0.245909 0.625588 -0.218805
C12   C     C_R   0.118730 0.621010 0.500553 0.495271
C13   C     C_3   0.323117 0.251213 0.380238 -0.231118
C14   C     C_3   0.244157 0.687090 0.633166 -0.239501
C15   C     C_3   0.252951 0.688954 0.388542 -0.197187
C16   C     C_3   0.244937 0.310138 0.630714 -0.234114
C17   C     C_3   0.252340 0.321973 0.380564 -0.226664
C18   C     C_3   0.744157 0.187090 0.633166 -0.239501
C19   C     C_3   0.752951 0.188954 0.388542 -0.197187
C20   C     C_3   0.744937 0.810138 0.630714 -0.234114
C21   C     C_3   0.752340 0.821973 0.380564 -0.226664
C22   C     C_3   0.707664 0.358055 0.490027 -0.053524
C23   C     C_R   0.620536 0.881410 0.501542 0.509295
C24   C     C_3   0.729267 0.650885 0.508990 -0.027937
C25   C     C_3   0.207664 0.858055 0.490027 -0.053524
C26   C     C_3   0.229267 0.150885 0.508990 -0.027937
C27   C     C_3   0.806622 0.315277 0.503627 -0.003179
C28   C     C_3   0.814930 0.690882 0.502499 -0.010301
C29   C     C_3   0.306622 0.815276 0.503627 -0.003180
C30   C     C_3   0.314930 0.190882 0.502499 -0.010301
C31   C     C_3   0.187356 0.693218 0.504583 0.003250
C32   C     C_3   0.191638 0.311260 0.501532 -0.001086
C33   C     C_3   0.687356 0.193218 0.504583 0.003250
C34   C     C_R   0.618730 0.121010 0.500553 0.495271
C35   C     C_3   0.691638 0.811260 0.501532 -0.001086
C36   C     C_3   0.143911 0.784397 0.507133 -0.196407
C37   C     C_3   0.155556 0.224683 0.499347 -0.169418
C38   C     C_3   0.643911 0.284398 0.507133 -0.196407
C39   C     C_3   0.655557 0.724683 0.499347 -0.169418
C40   C     C_3   0.949980 0.572345 0.069790 0.201725
C41   C     C_3   0.947133 0.571587 0.908376 0.211138
C42   C     C_3   0.954707 0.432824 0.088156 0.213599
C43   C     C_3   0.965649 0.427865 0.928380 0.190426
C44   C     C_3   0.449980 0.072345 0.069790 0.201725
C45   C     C_3   0.087677 0.493894 0.079509 -0.204987
C46   C     C_3   0.447133 0.071587 0.908376 0.211138
C47   C     C_3   0.454707 0.932824 0.088156 0.213599
C48   C     C_3   0.465649 0.927865 0.928380 0.190426
C49   C     C_2   0.686919 0.420928 0.609028 0.181742
C50   C     C_2   0.686886 0.393384 0.339975 0.376427
C51   C     C_2   0.724254 0.595036 0.645647 0.477007
C52   C     C_2   0.732562 0.601258 0.385361 0.273885
C53   C     C_2   0.186919 0.920928 0.609028 0.181742
C54   C     C_2   0.186886 0.893384 0.339975 0.376427
C55   C     C_2   0.224254 0.095036 0.645647 0.477007
C56   C     C_3   0.087745 0.499018 0.918152 -0.202518
C57   C     C_2   0.232562 0.101258 0.385361 0.273885
C58   C     C_3   0.587677 0.993894 0.079509 -0.204987
C59   C     C_3   0.587745 0.999019 0.918152 -0.202518
C60   C     C_R   0.879093 0.382210 0.500850 0.488395
Cu1   Cu    Cu3+1 0.000100 0.500000 0.642410 0.994067
Cu2   Cu    Cu3+1 0.000100 0.500000 0.357590 0.993435
Cu3   Cu    Cu3+1 0.500100 0.000000 0.642410 0.994067
Cu4   Cu    Cu3+1 0.500100 0.000000 0.357590 0.993435
H1    H     H_    0.795524 0.292609 0.717815 0.171834
H2    H     H_    0.887927 0.217737 0.413407 0.107169
H3    H     H_    0.879909 0.776948 0.617871 0.114022
H4    H     H_    0.886790 0.774887 0.382567 0.118446
H5    H     H_    0.374195 0.726949 0.649548 0.146849
H6    H     H_    0.387927 0.717737 0.413407 0.107169
H7    H     H_    0.379909 0.276948 0.617871 0.114022
H8    H     H_    0.386790 0.274887 0.382567 0.118446
H9    H     H_    0.280671 0.626431 0.640151 0.130504
H10   H     H_    0.285253 0.626323 0.390203 0.109019
H11   H     H_    0.269479 0.371043 0.639926 0.120035
H12   H     H_    0.833505 0.280558 0.294954 0.208784
H13   H     H_    0.281670 0.381137 0.385160 0.120391
H14   H     H_    0.780671 0.126431 0.640151 0.130504
H15   H     H_    0.785253 0.126324 0.390203 0.109019
H16   H     H_    0.769479 0.871043 0.639926 0.120035
H17   H     H_    0.781670 0.881137 0.385160 0.120391
H18   H     H_    0.205344 0.690476 0.721424 0.136730
H19   H     H_    0.217924 0.698301 0.291985 0.178565
H20   H     H_    0.206406 0.297753 0.717317 0.168368
H21   H     H_    0.216419 0.324337 0.283677 0.151662
H22   H     H_    0.705344 0.190476 0.721424 0.136730
H23   H     H_    0.831470 0.715253 0.723384 0.186705
H24   H     H_    0.717924 0.198301 0.291985 0.178565
H25   H     H_    0.706406 0.797753 0.717317 0.168368
H26   H     H_    0.716419 0.824337 0.283677 0.151662
H27   H     H_    0.107822 0.790435 0.598573 0.106288
H28   H     H_    0.095386 0.789926 0.424473 0.132725
H29   H     H_    0.109127 0.219468 0.578204 0.163377
H30   H     H_    0.119716 0.224330 0.402730 0.168110
H31   H     H_    0.607822 0.290434 0.598573 0.106288
H32   H     H_    0.595386 0.289926 0.424473 0.132725
H33   H     H_    0.609127 0.719468 0.578204 0.163377
H34   H     H_    0.817213 0.720217 0.287180 0.208683
H35   H     H_    0.619716 0.724330 0.402730 0.168110
H36   H     H_    0.982061 0.627771 0.095653 0.096598
H37   H     H_    0.971766 0.628919 0.870772 0.089791
H38   H     H_    0.984306 0.373788 0.134459 0.106383
H39   H     H_    0.005072 0.371164 0.910515 0.101670
H40   H     H_    0.482061 0.127771 0.095653 0.096598
H41   H     H_    0.471766 0.128919 0.870772 0.089791
H42   H     H_    0.484306 0.873788 0.134459 0.106383
H43   H     H_    0.505072 0.871164 0.910515 0.101670
H44   H     H_    0.124461 0.543979 0.114606 0.134685
H45   H     H_    0.295524 0.792609 0.717815 0.171834
H46   H     H_    0.117340 0.554189 0.881976 0.131577
H47   H     H_    0.124562 0.435716 0.114842 0.124462
H48   H     H_    0.128167 0.446358 0.882990 0.130596
H49   H     H_    0.624461 0.043979 0.114606 0.134685
H50   H     H_    0.617340 0.054189 0.881976 0.131577
H51   H     H_    0.624562 0.935716 0.114842 0.124462
H52   H     H_    0.628168 0.946358 0.882990 0.130596
H53   H     H_    0.698562 0.398037 0.712660 0.170341
H54   H     H_    0.733870 0.420272 0.399299 0.129258
H55   H     H_    0.761828 0.556258 0.578325 0.087231
H56   H     H_    0.333505 0.780557 0.294954 0.208784
H57   H     H_    0.788852 0.553822 0.383655 0.162493
H58   H     H_    0.198562 0.898037 0.712660 0.170341
H59   H     H_    0.233870 0.920272 0.399299 0.129258
H60   H     H_    0.261828 0.056258 0.578325 0.087231
H61   H     H_    0.288852 0.053822 0.383655 0.162493
H62   H     H_    0.331470 0.215253 0.723384 0.186705
H63   H     H_    0.317213 0.220218 0.287180 0.208683
H64   H     H_    0.874195 0.226949 0.649548 0.146849
N1    N     N_3   0.001260 0.500000 0.143650 -0.283413
N2    N     N_3   0.001260 0.500000 0.856350 -0.268038
N3    N     N_3   0.501260 0.000000 0.143650 -0.283413
N4    N     N_3   0.501260 1.000000 0.856350 -0.268038
O1    O     O_R   0.091250 0.408820 0.620260 -0.517947
O2    O     O_R   0.908940 0.408800 0.379740 -0.488093
O3    O     O_R   0.908940 0.591200 0.620260 -0.493854
O4    O     O_R   0.908940 0.591200 0.379740 -0.491532
O5    O     O_R   0.408940 0.908800 0.620260 -0.452194
O6    O     O_R   0.408940 0.908800 0.379740 -0.488093
O7    O     O_R   0.408940 0.091200 0.620260 -0.493854
O8    O     O_R   0.408940 0.091200 0.379740 -0.491532
O9    O     O_2   0.654928 0.491772 0.569783 -0.519724
O10   O     O_2   0.705079 0.351046 0.248818 -0.492082
O11   O     O_2   0.664295 0.613505 0.717432 -0.421270
O12   O     O_R   0.091250 0.408820 0.379740 -0.526983
O13   O     O_2   0.686181 0.615543 0.289332 -0.438188
O14   O     O_2   0.154928 0.991772 0.569783 -0.519724
O15   O     O_2   0.205079 0.851046 0.248818 -0.492082
O16   O     O_2   0.164295 0.113505 0.717432 -0.421270
O17   O     O_2   0.186181 0.115543 0.289332 -0.438188
O18   O     O_R   0.091250 0.591180 0.620260 -0.527219
O19   O     O_R   0.091250 0.591180 0.379740 -0.513721
O20   O     O_R   0.591250 0.908820 0.620260 -0.517947
O21   O     O_R   0.591250 0.908820 0.379740 -0.526983
O22   O     O_R   0.591250 0.091180 0.620260 -0.527219
O23   O     O_R   0.591250 0.091180 0.379740 -0.513721
O24   O     O_R   0.908940 0.408800 0.620260 -0.452194

loop_
_geom_bond_atom_site_label_1
_geom_bond_atom_site_label_2
_ccdc_geom_bond_type
C20   H25   S    
C18   H22   S    
Cu3   O7    S    
C47   C48   S    
C23   O21   A    
C1    O12   A    
C17   H21   S    
C15   H10   S    
C33   C34   S    
C7    H3    S    
Cu1   O24   S    
C6    H12   S    
C53   O14   D    
Br8   C48   S    
C21   H17   S    
C42   N1    S    
C56   H46   S    
C56   N2    S    
C11   H62   S    
Cu3   O20   S    
C23   C35   S    
C40   N1    S    
C45   N1    S    
C34   O22   A    
C24   C28   S    
C4    O7    A    
Cu3   O22   S    
C16   H11   S    
C55   O16   D    
C5    C27   S    
C17   C32   S    
C49   H53   S    
C48   N4    S    
C36   H27   S    
C15   C31   S    
C44   H40   S    
Cu1   O1    S    
C46   H41   S    
C42   H38   S    
C44   N3    S    
C47   N3    S    
C54   O15   D    
Cu2   O19   S    
C3    C29   S    
C52   O13   D    
C10   H56   S    
C48   H43   S    
Cu4   N3    S    
C46   N4    S    
C13   C30   S    
C25   C54   S    
C39   H33   S    
C12   O19   A    
C49   O9    D    
C20   H16   S    
C33   C38   S    
Br5   C44   S    
C60   O2    A    
Br7   C47   S    
C6    C19   S    
C51   H55   S    
C23   O20   A    
C45   H44   S    
C8    H34   S    
C8    H4    S    
C58   C59   S    
C12   O18   A    
C41   N2    S    
C21   C35   S    
C19   H24   S    
Br6   C46   S    
C16   H20   S    
C26   C57   S    
C9    H5    S    
Br3   C42   S    
C44   C46   S    
C42   C43   S    
C60   O24   A    
C32   C37   S    
Cu2   O2    S    
C58   N3    S    
Br4   C43   S    
C10   C15   S    
C14   H9    S    
Cu2   O12   S    
C57   O17   D    
C6    C27   S    
C12   C31   S    
C1    O1    A    
C34   O23   A    
C3    O5    A    
C2    O4    A    
C18   H14   S    
C8    C21   S    
Cu4   O8    S    
C38   H32   S    
C1    C32   S    
C25   C29   S    
C22   C49   S    
C11   H7    S    
Br2   C41   S    
C51   O11   D    
C19   C33   S    
Cu4   O21   S    
C17   H13   S    
Cu1   O18   S    
C14   H18   S    
C58   H49   S    
C3    O6    A    
C26   C37   S    
C9    C29   S    
C55   H60   S    
C19   H15   S    
C59   N4    S    
Cu3   N4    S    
C37   H29   S    
C53   H58   S    
C21   H26   S    
C10   H6    S    
Cu3   O5    S    
C5    H1    S    
C50   H54   S    
C39   H35   S    
C24   C39   S    
C15   H19   S    
C5    C18   S    
C24   C52   S    
C59   H50   S    
C6    H2    S    
C7    C28   S    
C41   H37   S    
Cu1   N2    S    
C13   C17   S    
C40   C41   S    
C43   H39   S    
C5    H64   S    
C26   C30   S    
C25   C36   S    
C54   H59   S    
C22   C38   S    
C10   C29   S    
C52   H57   S    
C45   H47   S    
Br1   C40   S    
C31   C36   S    
C47   H42   S    
C9    H45   S    
Cu1   O3    S    
C22   C27   S    
C38   H31   S    
C20   C35   S    
Cu2   O4    S    
C9    C14   S    
C56   H48   S    
C4    O8    A    
C11   C16   S    
Cu3   Cu4   S    
C8    C28   S    
C7    H23   S    
C36   H28   S    
C7    C20   S    
C40   H36   S    
C27   C60   S    
Cu4   O6    S    
C14   C31   S    
C22   C50   S    
C13   H8    S    
C26   C55   S    
C45   C56   S    
Cu4   O23   S    
C2    O3    A    
C4    C30   S    
Cu1   Cu2   S    
C16   C32   S    
C37   H30   S    
C43   N2    S    
C11   C30   S    
Cu2   N1    S    
C25   C53   S    
C58   H51   S    
C2    C28   S    
C24   C51   S    
C35   C39   S    
C13   H63   S    
C57   H61   S    
C50   O10   D    
C18   C33   S    
C59   H52   S    
