data_mof_unit_33546.cif
_audit_creation_date              2012-12-10T18:53:44-0500
_audit_creation_method            fapswitch 2.2
_symmetry_space_group_name_H-M    P1
_symmetry_Int_Tables_number       1
_space_group_crystal_system       triclinic
_cell_length_a                    10.705412
_cell_length_b                    9.951528
_cell_length_c                    19.106695
_cell_angle_alpha                 90.269193
_cell_angle_beta                  92.923043
_cell_angle_gamma                 92.129148
_cell_volume                      2031.43955013

loop_
_atom_site_label
_atom_site_type_symbol
_atom_type_description
_atom_site_fract_x
_atom_site_fract_y
_atom_site_fract_z
_atom_type_partial_charge
C1    C     C_R   0.260102 0.497636 0.500290 0.963249
C2    C     C_R   0.072440 0.567518 0.555377 0.113365
C3    C     C_R   0.871358 0.505034 0.500649 -0.154201
C4    C     C_R   0.126921 0.493317 0.502878 -0.151652
C5    C     C_R   0.574055 0.074980 0.547870 0.015810
C6    C     C_R   0.419398 0.924495 0.455697 0.018898
C7    C     C_R   0.428875 0.068038 0.450992 0.012358
C8    C     C_R   0.582118 0.931762 0.543447 -0.001229
C9    C     C_R   0.534527 0.622853 0.255301 -0.180252
C10   C     C_R   0.518292 0.380176 0.747372 -0.170048
C11   C     C_R   0.537872 0.623906 0.746940 -0.199910
C12   C     C_R   0.739213 0.502151 0.500709 0.975639
C13   C     C_R   0.527947 0.378837 0.254009 -0.184065
C14   C     C_R   0.559852 0.623682 0.184853 -0.150327
C15   C     C_R   0.543674 0.380478 0.819207 -0.140431
C16   C     C_R   0.563024 0.624283 0.818879 -0.153810
C17   C     C_R   0.553417 0.379611 0.183601 -0.148805
C18   C     C_R   0.569152 0.502048 0.148452 0.074745
C19   C     C_R   0.566226 0.502516 0.855496 0.072030
C20   C     C_R   0.518648 0.500387 0.290344 -0.036263
C21   C     C_R   0.516261 0.501710 0.710723 -0.049390
C22   C     C_3   0.097620 0.188524 0.436138 -0.691509
C23   C     C_R   0.583843 0.502925 0.931762 0.293553
C24   C     C_3   0.846481 0.532574 0.667293 -0.802426
C25   C     C_3   0.803234 0.255896 0.382803 -0.685727
C26   C     C_3   0.178162 0.774132 0.600211 -0.670319
C27   C     C_2   0.643481 0.149801 0.605650 0.486720
C28   C     C_2   0.318682 0.848452 0.414770 0.506407
C29   C     C_2   0.368536 0.136063 0.390432 0.423183
C30   C     C_2   0.684505 0.864125 0.582471 0.501349
C31   C     C_R   0.585499 0.502682 0.073058 0.293274
C32   C     C_R   0.502051 0.499867 0.365552 0.861934
C33   C     C_R   0.501566 0.500405 0.634541 0.864382
C34   C     C_R   0.054028 0.420599 0.451326 0.095154
C35   C     C_R   0.942350 0.566256 0.556680 0.131270
C36   C     C_R   0.925638 0.436505 0.446592 0.115989
H1    H     H_    0.528631 0.718170 0.282324 0.166042
H2    H     H_    0.168394 0.175794 0.479822 0.251463
H3    H     H_    0.004482 0.165714 0.456825 0.245904
H4    H     H_    0.111977 0.114588 0.394034 0.276713
H5    H     H_    0.927524 0.711501 0.634097 0.275120
H6    H     H_    0.930357 0.485926 0.691983 0.244934
H7    H     H_    0.781202 0.452660 0.644940 0.236283
H8    H     H_    0.798260 0.586971 0.708308 0.252593
H9    H     H_    0.885747 0.426780 0.338694 0.223015
H10   H     H_    0.863273 0.193259 0.351164 0.224766
H11   H     H_    0.707841 0.252801 0.357365 0.246581
H12   H     H_    0.501012 0.284704 0.720616 0.191239
H13   H     H_    0.797240 0.212084 0.435926 0.251802
H14   H     H_    0.126418 0.607733 0.660133 0.227013
H15   H     H_    0.125166 0.835203 0.636487 0.219891
H16   H     H_    0.155099 0.806494 0.545588 0.272017
H17   H     H_    0.279699 0.794407 0.612094 0.248516
H18   H     H_    0.687009 0.246973 0.597437 0.101973
H19   H     H_    0.335039 0.754714 0.389428 0.106148
H20   H     H_    0.331414 0.234005 0.396282 0.149304
H21   H     H_    0.669713 0.766795 0.605292 0.119629
H22   H     H_    0.537493 0.719109 0.719700 0.163422
H23   H     H_    0.516683 0.283060 0.279936 0.184923
H24   H     H_    0.570903 0.719600 0.158920 0.158586
H25   H     H_    0.544151 0.285092 0.846240 0.162326
H26   H     H_    0.579372 0.719913 0.845687 0.161809
H27   H     H_    0.559349 0.284227 0.156694 0.160691
H28   H     H_    0.078949 0.328375 0.356127 0.231061
N1    N     N_R   0.500000 0.857200 0.500000 -0.196783
N2    N     N_2   0.149086 0.632141 0.609841 -0.314583
N3    N     N_R   0.500000 0.142800 0.500000 -0.193016
N4    N     N_R   0.585053 0.385339 0.036776 -0.171878
N5    N     N_R   0.588439 0.620403 0.968126 -0.171327
N6    N     N_R   0.584245 0.385464 0.967349 -0.171497
N7    N     N_R   0.589223 0.620275 0.037582 -0.171512
N8    N     N_2   0.107851 0.323801 0.408319 -0.325578
N9    N     N_2   0.882501 0.625915 0.613471 -0.302427
N10   N     N_2   0.851866 0.393780 0.385416 -0.308320
O1    O     O_R   0.316770 0.614620 0.500000 -0.624816
O2    O     O_2   0.212837 0.889991 0.409956 -0.614086
O3    O     O_2   0.360985 0.083391 0.332433 -0.596461
O4    O     O_2   0.789389 0.916878 0.588231 -0.592344
O5    O     O_R   0.683230 0.385380 0.500000 -0.649236
O6    O     O_R   0.683230 0.614620 0.500000 -0.618420
O7    O     O_R   0.316770 0.385380 0.500000 -0.630633
O8    O     O_R   0.499990 0.614700 0.398140 -0.651895
O9    O     O_R   0.500010 0.385300 0.601860 -0.644495
O10   O     O_R   0.500010 0.614700 0.601860 -0.647113
O11   O     O_R   0.499990 0.385300 0.398140 -0.646954
O12   O     O_2   0.651749 0.102665 0.664534 -0.599800
Zn1   Zn    Zn3+2 0.500000 0.653120 0.500000 0.926626
Zn2   Zn    Zn3+2 0.500000 0.346880 0.500000 0.913839

loop_
_geom_bond_atom_site_label_1
_geom_bond_atom_site_label_2
_ccdc_geom_bond_type
C2    C35   A    
C30   H21   S    
C7    C29   S    
C24   H6    S    
C23   N5    A    
C19   C23   S    
O10   Zn1   S    
C5    N3    A    
C27   H18   S    
C15   C19   A    
N3    Zn2   S    
O6    Zn1   S    
C10   C15   A    
C24   N9    S    
C21   C33   S    
C32   O11   A    
C1    O7    A    
O8    Zn1   S    
C22   H2    S    
C12   O5    A    
C25   N10   S    
N5    N7    A    
C14   C18   A    
C3    C12   S    
C5    C27   S    
C6    N1    A    
C6    C28   S    
C11   H22   S    
C25   H11   S    
C31   N7    A    
O9    Zn2   S    
C8    N1    A    
C23   N6    A    
C16   H26   S    
C22   N8    S    
O5    Zn2   S    
C28   H19   S    
N1    Zn1   S    
C10   C21   A    
C31   N4    A    
C4    C34   A    
C1    O1    A    
C7    N3    A    
C11   C21   A    
H9    N10   S    
C26   N2    S    
C27   O12   D    
C2    C4    A    
C9    C14   A    
C26   H16   S    
H14   N2    S    
C11   C16   A    
C9    C20   A    
C3    C35   A    
C22   H4    S    
C9    H1    S    
C17   C18   A    
C15   H25   S    
C33   O9    A    
C36   N10   S    
O1    Zn1   S    
C10   H12   S    
C24   H8    S    
C28   O2    D    
C26   H17   S    
C34   N8    S    
C32   O8    A    
C20   C32   S    
O11   Zn2   S    
C35   N9    S    
C13   C20   A    
C2    N2    S    
C5    C8    A    
C6    C7    A    
C13   H23   S    
C29   H20   S    
C14   H24   S    
C13   C17   A    
C1    C4    S    
C8    C30   S    
C26   H15   S    
C17   H27   S    
C3    C36   A    
C16   C19   A    
C22   H3    S    
C12   O6    A    
C34   C36   A    
H28   N8    S    
C33   O10   A    
C25   H13   S    
O7    Zn2   S    
H5    N9    S    
C30   O4    D    
C29   O3    D    
N4    N6    A    
C24   H7    S    
C18   C31   S    
C25   H10   S    
