data_mof_unit_29275.cif
_audit_creation_date              2012-12-10T18:50:53-0500
_audit_creation_method            fapswitch 2.2
_symmetry_space_group_name_H-M    P1
_symmetry_Int_Tables_number       1
_space_group_crystal_system       triclinic
_cell_length_a                    10.640163
_cell_length_b                    9.898038
_cell_length_c                    15.718441
_cell_angle_alpha                 89.843015
_cell_angle_beta                  90.672054
_cell_angle_gamma                 90.09135
_cell_volume                      1655.2928177

loop_
_atom_site_label
_atom_site_type_symbol
_atom_type_description
_atom_site_fract_x
_atom_site_fract_y
_atom_site_fract_z
_atom_type_partial_charge
C1    C     C_R   0.260190 0.500169 0.499340 0.974143
C2    C     C_R   0.935727 0.580073 0.559395 -0.304088
C3    C     C_R   0.871520 0.500827 0.500239 -0.147491
C4    C     C_R   0.127371 0.501731 0.498957 -0.254028
C5    C     C_R   0.593786 0.071613 0.539736 -0.204591
C6    C     C_R   0.594362 0.928306 0.539111 -0.200977
C7    C     C_R   0.499470 0.500164 0.338377 0.886920
C8    C     C_R   0.405125 0.928044 0.460052 0.469420
C9    C     C_R   0.406955 0.072362 0.458381 0.479023
C10   C     C_R   0.739515 0.500132 0.500678 0.911544
C11   C     C_R   0.499702 0.499843 0.661688 0.906659
C12   C     C_3   0.630991 0.475355 0.952326 -0.403044
C13   C     C_3   0.448252 0.637982 0.048410 -0.406596
C14   C     C_3   0.408469 0.386751 0.048830 -0.410013
C15   C     C_3   0.408732 0.386402 0.950592 -0.388551
C16   C     C_3   0.448506 0.637662 0.950194 -0.390233
C17   C     C_1   0.498155 0.499520 0.750660 -0.162428
C18   C     C_3   0.495791 0.500248 0.082699 0.382680
C19   C     C_3   0.496189 0.499695 0.917532 0.363498
C20   C     C_3   0.312651 0.823387 0.344684 -0.232730
C21   C     C_3   0.328518 0.146273 0.330083 -0.132981
C22   C     C_3   0.108803 0.428385 0.295605 -0.383168
C23   C     C_3   0.630753 0.475666 0.050470 -0.395042
C24   C     C_3   0.108711 0.790187 0.616017 -0.230653
C25   C     C_1   0.496886 0.499471 0.826046 -0.126017
C26   C     C_1   0.496160 0.500510 0.174123 -0.142509
C27   C     C_1   0.497525 0.500505 0.249476 -0.219265
C28   C     C_R   0.062066 0.428477 0.436296 0.508975
C29   C     C_R   0.065770 0.582102 0.558891 0.475387
C30   C     C_R   0.932639 0.424344 0.439472 -0.292015
H1    H     H_    0.351700 0.657281 0.925549 0.170970
H2    H     H_    0.666837 0.377159 0.074777 0.163594
H3    H     H_    0.695520 0.555618 0.928986 0.165997
H4    H     H_    0.667197 0.376706 0.929260 0.166345
H5    H     H_    0.879926 0.364675 0.393554 0.165103
H6    H     H_    0.884779 0.636186 0.606986 0.153969
H7    H     H_    0.668809 0.125423 0.572076 0.176469
H8    H     H_    0.669887 0.874446 0.570902 0.169656
H9    H     H_    0.290540 0.714516 0.338221 0.180937
H10   H     H_    0.407477 0.842246 0.317391 0.124540
H11   H     H_    0.241181 0.876864 0.305564 0.140505
H12   H     H_    0.311273 0.401858 0.925949 0.169401
H13   H     H_    0.412968 0.091382 0.306851 0.053865
H14   H     H_    0.336549 0.252381 0.309018 0.200502
H15   H     H_    0.243612 0.105592 0.297662 0.156590
H16   H     H_    0.167329 0.379260 0.246710 0.174055
H17   H     H_    0.139884 0.535551 0.300399 0.144803
H18   H     H_    0.009570 0.422968 0.272879 0.168548
H19   H     H_    0.110281 0.828582 0.549321 0.199754
H20   H     H_    0.183019 0.845049 0.652052 0.185116
H21   H     H_    0.017401 0.814043 0.645981 0.134973
H22   H     H_    0.351329 0.657715 0.071204 0.159742
H23   H     H_    0.310903 0.402411 0.071644 0.158110
H24   H     H_    0.440777 0.286772 0.073164 0.161214
H25   H     H_    0.509559 0.721136 0.072428 0.163411
H26   H     H_    0.441205 0.286258 0.927508 0.165807
H27   H     H_    0.509947 0.720662 0.926814 0.165594
H28   H     H_    0.695193 0.556059 0.074497 0.163460
N1    N     N_R   0.499970 0.857200 0.499980 -0.135760
N2    N     N_R   0.499970 0.142800 0.499980 -0.141888
O1    O     O_R   0.316750 0.614620 0.499990 -0.557284
O2    O     O_3   0.310141 0.142268 0.419132 -0.539180
O3    O     O_3   0.125382 0.359301 0.373647 -0.564343
O4    O     O_3   0.134226 0.650447 0.621000 -0.606775
O5    O     O_R   0.316750 0.385380 0.499990 -0.549191
O6    O     O_R   0.499990 0.614720 0.377140 -0.626337
O7    O     O_R   0.499990 0.385280 0.377140 -0.612329
O8    O     O_R   0.683220 0.614710 0.500000 -0.627197
O9    O     O_R   0.683220 0.385290 0.500000 -0.625427
O10   O     O_R   0.499980 0.614620 0.622860 -0.605839
O11   O     O_R   0.499980 0.385380 0.622860 -0.620989
O12   O     O_3   0.299328 0.860655 0.430811 -0.588654
Zn1   Zn    Zn3+2 0.499980 0.653120 0.500000 0.978414
Zn2   Zn    Zn3+2 0.499980 0.346880 0.500000 0.987920

loop_
_geom_bond_atom_site_label_1
_geom_bond_atom_site_label_2
_ccdc_geom_bond_type
O11   Zn2   S    
C22   H18   S    
C6    H8    S    
C10   O8    A    
C3    C30   A    
C13   H22   S    
C14   C18   S    
C1    O5    A    
C4    C29   A    
C18   C26   S    
C1    C4    S    
C17   C25   T    
C15   H26   S    
C9    N2    A    
O10   Zn1   S    
C28   C30   A    
C2    C3    A    
C26   C27   T    
C29   O4    S    
O9    Zn2   S    
C24   O4    S    
O7    Zn2   S    
C21   H13   S    
C9    O2    S    
C23   H2    S    
C7    O6    A    
C15   C19   S    
C12   C23   S    
C21   O2    S    
C30   H5    S    
C12   H3    S    
C2    C29   A    
C20   H10   S    
C13   C18   S    
C12   C19   S    
N2    Zn2   S    
C4    C28   A    
C20   H11   S    
C23   H28   S    
C21   H15   S    
C16   H27   S    
C16   C19   S    
C8    N1    A    
C24   H20   S    
C5    C6    A    
C19   C25   S    
C11   O11   A    
C8    O12   S    
C24   H21   S    
C5    H7    S    
C7    O7    A    
C18   C23   S    
C14   H24   S    
C28   O3    S    
C14   H23   S    
C7    C27   S    
O1    Zn1   S    
C21   H14   S    
C13   C16   S    
C2    H6    S    
C24   H19   S    
C3    C10   S    
C20   H9    S    
N1    Zn1   S    
C10   O9    A    
C11   C17   S    
C5    N2    A    
C22   H16   S    
O8    Zn1   S    
C14   C15   S    
O6    Zn1   S    
C12   H4    S    
C6    N1    A    
C22   H17   S    
C20   O12   S    
O5    Zn2   S    
C22   O3    S    
C15   H12   S    
C13   H25   S    
C8    C9    A    
C16   H1    S    
C11   O10   A    
C1    O1    A    
