data_mof_unit_62596.cif
_audit_creation_date              2013-03-05T16:00:16-0500
_audit_creation_method            fapswitch 2.2
_symmetry_space_group_name_H-M    P1
_symmetry_Int_Tables_number       1
_space_group_crystal_system       triclinic
_cell_length_a                    21.663523
_cell_length_b                    21.663654
_cell_length_c                    32.085625
_cell_angle_alpha                 90.074923
_cell_angle_beta                  90.009543
_cell_angle_gamma                 90.000752
_cell_volume                      15058.1258097

loop_
_atom_site_label
_atom_site_type_symbol
_atom_site_description
_atom_site_fract_x
_atom_site_fract_y
_atom_site_fract_z
_atom_type_partial_charge
O1    O     O_R   0.091640 0.551640 0.999920 -0.597069
O2    O     O_R   0.448360 0.091640 0.999920 -0.597032
O3    O     O_R   0.908360 0.448360 0.999920 -0.598280
O4    O     O_R   0.551640 0.908360 0.999920 -0.597731
O5    O     O_R   0.091640 0.448360 0.000080 -0.597449
O6    O     O_R   0.448360 0.908360 0.000080 -0.597183
O7    O     O_R   0.908360 0.551640 0.000080 -0.596374
O8    O     O_R   0.551640 0.091640 0.000080 -0.597746
O9    O     O_R   0.591640 0.051640 0.499920 -0.596790
O10   O     O_R   0.948360 0.591640 0.499920 -0.597887
O11   O     O_R   0.408360 0.948360 0.499920 -0.596633
O12   O     O_R   0.051640 0.408360 0.499920 -0.597521
O13   O     O_R   0.591640 0.948360 0.500080 -0.597176
O14   O     O_R   0.948360 0.408360 0.500080 -0.596286
O15   O     O_R   0.408360 0.051640 0.500080 -0.597768
O16   O     O_R   0.051640 0.591640 0.500080 -0.596923
C1    C     C_R   0.313413 0.499998 0.999992 -0.151579
C2    C     C_R   0.499941 0.313382 0.999940 -0.152567
C3    C     C_R   0.686613 0.500007 0.000013 -0.152127
C4    C     C_R   0.499946 0.686596 0.000059 -0.151979
C5    C     C_R   0.813397 0.000010 0.499991 -0.151569
C6    C     C_R   0.999948 0.813409 0.499944 -0.151395
C7    C     C_R   0.186611 0.000006 0.500005 -0.151599
C8    C     C_R   0.999938 0.186617 0.500062 -0.152112
C9    C     C_R   0.120079 0.500004 0.999988 0.986265
C10   C     C_R   0.499998 0.120069 0.999980 0.988617
C11   C     C_R   0.879930 0.500002 0.000013 0.989256
C12   C     C_R   0.499995 0.879924 0.000022 0.987602
C13   C     C_R   0.620074 1.000000 0.499996 0.986429
C14   C     C_R   0.999997 0.620078 0.499983 0.986596
C15   C     C_R   0.379929 0.999999 0.499999 0.988542
C16   C     C_R   0.999997 0.379931 0.500022 0.988378
O17   O     O_R   0.000010 0.551640 0.060910 -0.590652
O18   O     O_R   0.448360 0.000010 0.060910 -0.590492
O19   O     O_R   0.999990 0.448360 0.060910 -0.601391
O20   O     O_R   0.551640 0.999990 0.060910 -0.597874
O21   O     O_R   0.000010 0.448360 0.939090 -0.588868
O22   O     O_R   0.448360 0.999990 0.939090 -0.590340
O23   O     O_R   0.999990 0.551640 0.939090 -0.596199
O24   O     O_R   0.551640 0.000010 0.939090 -0.601131
O25   O     O_R   0.500010 0.051640 0.560910 -0.589417
O26   O     O_R   0.948360 0.500010 0.560910 -0.590235
O27   O     O_R   0.499990 0.948360 0.560910 -0.595918
O28   O     O_R   0.051640 0.499990 0.560910 -0.601234
O29   O     O_R   0.500010 0.948360 0.439090 -0.590016
O30   O     O_R   0.948360 0.499990 0.439090 -0.589801
O31   O     O_R   0.499990 0.051640 0.439090 -0.598306
O32   O     O_R   0.051640 0.500010 0.439090 -0.594686
C17   C     C_R   0.000077 0.500050 0.080444 0.969789
C18   C     C_R   0.499987 0.000060 0.080443 0.970349
C19   C     C_R   0.000081 0.499943 0.919556 0.969473
C20   C     C_R   0.499981 0.999902 0.919556 0.970487
C21   C     C_R   0.500070 0.000055 0.580444 0.968995
C22   C     C_R   0.999993 0.500092 0.580444 0.969594
C23   C     C_R   0.500058 0.999947 0.419557 0.969246
C24   C     C_R   0.999976 0.499938 0.419556 0.969202
Zn1   Zn    Zn3+2 1.000000 0.568980 0.000000 1.153627
Zn2   Zn    Zn3+2 0.431020 0.000000 0.000000 1.156954
Zn3   Zn    Zn3+2 0.000000 0.431020 0.000000 1.151294
Zn4   Zn    Zn3+2 0.568980 0.000000 0.000000 1.144981
Zn5   Zn    Zn3+2 0.500000 0.068980 0.500000 1.155095
Zn6   Zn    Zn3+2 0.931020 0.500000 0.500000 1.159331
Zn7   Zn    Zn3+2 0.500000 0.931020 0.500000 1.156202
Zn8   Zn    Zn3+2 0.068980 0.500000 0.500000 1.148929
O33   O     O_R   0.500000 0.591640 0.965510 -0.613949
O34   O     O_R   0.408360 0.500000 0.965510 -0.614195
O35   O     O_R   0.500000 0.408360 0.965510 -0.614393
O36   O     O_R   0.591640 0.500000 0.965510 -0.614775
O37   O     O_R   0.500000 0.408360 0.034490 -0.613861
O38   O     O_R   0.408360 0.500000 0.034490 -0.613470
O39   O     O_R   0.500000 0.591640 0.034490 -0.613930
O40   O     O_R   0.591640 0.500000 0.034490 -0.613715
O41   O     O_R   1.000000 0.091640 0.465510 -0.614710
O42   O     O_R   0.908360 0.000000 0.465510 -0.614427
O43   O     O_R   0.000000 0.908360 0.465510 -0.614918
O44   O     O_R   0.091640 0.000000 0.465510 -0.614669
O45   O     O_R   0.000000 0.908360 0.534490 -0.613649
O46   O     O_R   0.908360 0.000000 0.534490 -0.614146
O47   O     O_R   1.000000 0.091640 0.534490 -0.614111
O48   O     O_R   0.091640 0.000000 0.534490 -0.614520
Zn9   Zn    Zn3+2 0.500000 0.500000 0.953950 1.070730
Zn10  Zn    Zn3+2 0.500000 0.500000 0.046050 1.073514
Zn11  Zn    Zn3+2 0.000000 0.000000 0.453950 1.067951
Zn12  Zn    Zn3+2 0.000000 0.000000 0.546050 1.070735
C25   C     C_R   0.047070 0.467226 0.271877 0.204416
C26   C     C_R   0.541930 0.039180 0.271931 0.202901
C27   C     C_R   0.951271 0.527589 0.271892 0.202490
C28   C     C_R   0.461765 0.959212 0.271828 0.203457
C29   C     C_R   0.031325 0.547976 0.728197 0.201556
C30   C     C_R   0.533961 0.953790 0.728049 0.204230
C31   C     C_R   0.968570 0.453730 0.728067 0.203568
C32   C     C_R   0.471297 0.048099 0.728180 0.202786
C33   C     C_R   0.531004 0.951778 0.771804 0.201483
C34   C     C_R   0.034270 0.545979 0.771953 0.204235
C35   C     C_R   0.468435 0.046148 0.771933 0.203544
C36   C     C_R   0.971403 0.451802 0.771822 0.202826
C37   C     C_R   0.539417 0.041721 0.228172 0.203025
C38   C     C_R   0.048990 0.470245 0.228124 0.201171
C39   C     C_R   0.459344 0.961662 0.228076 0.203476
C40   C     C_R   0.953137 0.530516 0.228140 0.203581
C41   C     C_R   0.998299 0.496043 0.293453 -0.186782
C42   C     C_R   0.503036 0.997989 0.293446 -0.188018
C43   C     C_R   0.998430 0.501883 0.706567 -0.189589
C44   C     C_R   0.503965 0.001858 0.706545 -0.186860
C45   C     C_R   0.498228 0.997948 0.793434 -0.189467
C46   C     C_R   0.004136 0.498005 0.793458 -0.186784
C47   C     C_R   0.498180 0.002900 0.206557 -0.188045
C48   C     C_R   0.002035 0.501907 0.206567 -0.189570
C49   C     C_R   0.186124 0.500025 0.999994 -0.262329
C50   C     C_R   0.499978 0.186095 0.999963 -0.262012
C51   C     C_R   0.813901 0.500016 0.000018 -0.261919
C52   C     C_R   0.499967 0.813884 0.000032 -0.262575
C53   C     C_R   0.686109 0.000001 0.499992 -0.261206
C54   C     C_R   0.999979 0.686120 0.499974 -0.262172
C55   C     C_R   0.313899 0.999993 0.499999 -0.261321
C56   C     C_R   0.999977 0.313904 0.500042 -0.261276
C57   C     C_R   0.499994 0.620465 0.000023 0.914116
C58   C     C_R   0.379538 0.499990 0.999997 0.913927
C59   C     C_R   0.499988 0.379527 0.999977 0.914260
C60   C     C_R   0.620471 0.499997 0.000004 0.914373
C61   C     C_R   0.999987 0.120472 0.500023 0.914926
C62   C     C_R   0.879533 0.000004 0.499997 0.914658
C63   C     C_R   0.999992 0.879537 0.499978 0.914546
C64   C     C_R   0.120470 0.000004 0.500002 0.914898
C65   C     C_1   0.999187 0.497540 0.338067 0.195381
C66   C     C_1   0.501926 0.999007 0.338063 0.194045
C67   C     C_1   0.999316 0.501277 0.661945 0.191822
C68   C     C_1   0.502467 0.000948 0.661932 0.195322
C69   C     C_1   0.499198 0.998600 0.838055 0.191687
C70   C     C_1   0.002574 0.498985 0.838070 0.195315
C71   C     C_1   0.499180 0.001849 0.161939 0.193944
C72   C     C_1   0.001384 0.500927 0.161945 0.191254
C73   C     C_1   0.000717 0.500290 0.124654 0.017553
C74   C     C_1   0.499812 0.000900 0.124652 0.020138
C75   C     C_1   0.001238 0.499665 0.875352 0.021411
C76   C     C_1   0.499806 0.999265 0.875345 0.018166
C77   C     C_1   0.501181 0.000316 0.624649 0.022061
C78   C     C_1   0.999857 0.500670 0.624654 0.018514
C79   C     C_1   0.500934 0.999683 0.375350 0.020772
C80   C     C_1   0.999782 0.498827 0.375351 0.022031
C81   C     C_R   0.217979 0.471641 0.966724 0.283675
C82   C     C_R   0.527478 0.217880 0.966385 0.285307
C83   C     C_R   0.782038 0.527786 0.966563 0.284787
C84   C     C_R   0.471734 0.781946 0.966726 0.280991
C85   C     C_R   0.218009 0.528447 0.033253 0.281296
C86   C     C_R   0.528124 0.782092 0.033372 0.285874
C87   C     C_R   0.782053 0.472285 0.033486 0.284177
C88   C     C_R   0.472413 0.218017 0.033512 0.282185
C89   C     C_R   0.717963 0.972049 0.466558 0.283044
C90   C     C_R   0.028295 0.717916 0.466702 0.285703
C91   C     C_R   0.282034 0.027805 0.466561 0.284846
C92   C     C_R   0.972365 0.281983 0.466504 0.282701
C93   C     C_R   0.717977 0.027959 0.533423 0.283346
C94   C     C_R   0.027521 0.282118 0.533609 0.285158
C95   C     C_R   0.282049 0.972170 0.533434 0.284652
C96   C     C_R   0.971606 0.718059 0.533220 0.280984
C97   C     C_R   0.281910 0.471663 0.967296 -0.194185
C98   C     C_R   0.527463 0.281815 0.966953 -0.193572
C99   C     C_R   0.718107 0.527764 0.967137 -0.196109
C100  C     C_R   0.471775 0.718018 0.967314 -0.192124
C101  C     C_R   0.281941 0.528368 0.032680 -0.191813
C102  C     C_R   0.528086 0.718156 0.032810 -0.194596
C103  C     C_R   0.718121 0.472280 0.032902 -0.193097
C104  C     C_R   0.472400 0.281942 0.032922 -0.192331
C105  C     C_R   0.781894 0.972077 0.467133 -0.193410
C106  C     C_R   0.028239 0.781852 0.467260 -0.196861
C107  C     C_R   0.218103 0.027801 0.467143 -0.195326
C108  C     C_R   0.972350 0.218058 0.467093 -0.194207
C109  C     C_R   0.781907 0.027943 0.532847 -0.193878
C110  C     C_R   0.027504 0.218183 0.533040 -0.193510
C111  C     C_R   0.218117 0.972196 0.532860 -0.196104
C112  C     C_R   0.971644 0.781988 0.532630 -0.192332
H1    H     H_    0.307145 0.450084 0.942003 0.206940
H2    H     H_    0.548407 0.306992 0.941433 0.207565
H3    H     H_    0.692869 0.548891 0.941704 0.207209
H4    H     H_    0.450331 0.692715 0.941991 0.207600
H5    H     H_    0.307210 0.549957 0.057959 0.207679
H6    H     H_    0.549510 0.692966 0.058146 0.207350
H7    H     H_    0.692895 0.451170 0.058341 0.207945
H8    H     H_    0.451435 0.307218 0.058434 0.207878
H9    H     H_    0.807127 0.950814 0.441718 0.206911
H10   H     H_    0.049777 0.807048 0.441974 0.206536
H11   H     H_    0.192864 0.048964 0.441724 0.207063
H12   H     H_    0.951350 0.192784 0.441588 0.207169
H13   H     H_    0.807147 0.049208 0.558265 0.207157
H14   H     H_    0.048484 0.193004 0.558550 0.207500
H15   H     H_    0.192888 0.951029 0.558276 0.207149
H16   H     H_    0.950094 0.807293 0.557906 0.207465
N1    N     N_R   0.097238 0.439101 0.205587 0.248620
O49   O     O_R   0.128223 0.467872 0.176813 -0.286928
O50   O     O_R   0.110363 0.381773 0.213787 -0.264662
N2    N     N_R   0.580442 0.081908 0.205687 0.249571
O51   O     O_R   0.559281 0.118168 0.176710 -0.294951
O52   O     O_R   0.639221 0.082228 0.214044 -0.263003
N3    N     N_R   0.904089 0.560372 0.205622 0.256625
O53   O     O_R   0.916493 0.600491 0.176660 -0.310610
O54   O     O_R   0.846763 0.547358 0.213941 -0.251778
N4    N     N_R   0.419266 0.920536 0.205504 0.254197
O55   O     O_R   0.382993 0.941591 0.176485 -0.310691
O56   O     O_R   0.419032 0.861770 0.213846 -0.255650
N5    N     N_R   0.065732 0.594000 0.794548 0.250485
O57   O     O_R   0.105235 0.580246 0.823649 -0.302568
O58   O     O_R   0.054804 0.651733 0.786177 -0.260473
N6    N     N_R   0.563307 0.904282 0.794268 0.248638
O59   O     O_R   0.535317 0.872643 0.823067 -0.288314
O60   O     O_R   0.620923 0.892522 0.785989 -0.264153
N7    N     N_R   0.938963 0.404384 0.794277 0.252285
O61   O     O_R   0.966660 0.373116 0.823396 -0.307920
O62   O     O_R   0.881474 0.392404 0.785727 -0.259313
N8    N     N_R   0.437406 0.094448 0.794524 0.256576
O63   O     O_R   0.397604 0.081064 0.823507 -0.309780
O64   O     O_R   0.449020 0.152076 0.786245 -0.252711
N9    N     N_R   0.565291 0.905692 0.705452 0.250544
O65   O     O_R   0.604866 0.919350 0.676384 -0.302116
O66   O     O_R   0.554162 0.847986 0.713785 -0.260187
N10   N     N_R   0.063769 0.595368 0.705732 0.248702
O67   O     O_R   0.035868 0.627099 0.676934 -0.288725
O68   O     O_R   0.121433 0.606926 0.714002 -0.263935
N11   N     N_R   0.438950 0.095584 0.705724 0.252300
O69   O     O_R   0.466744 0.126879 0.676665 -0.307683
O70   O     O_R   0.381450 0.107591 0.714207 -0.259310
N12   N     N_R   0.937515 0.405441 0.705475 0.256631
O71   O     O_R   0.897720 0.418833 0.676481 -0.309557
O72   O     O_R   0.949114 0.347810 0.713757 -0.252810
N13   N     N_R   0.582156 0.080141 0.294517 0.249556
O73   O     O_R   0.618363 0.058920 0.323520 -0.295738
O74   O     O_R   0.582556 0.138924 0.286233 -0.261125
N14   N     N_R   0.095918 0.437056 0.294399 0.250660
O75   O     O_R   0.083231 0.397155 0.323445 -0.302905
O76   O     O_R   0.153337 0.449566 0.286017 -0.259212
N15   N     N_R   0.420574 0.919176 0.294299 0.254354
O77   O     O_R   0.441561 0.882884 0.323314 -0.309348
O78   O     O_R   0.361815 0.919009 0.285874 -0.256713
N16   N     N_R   0.903019 0.558757 0.294422 0.252117
O79   O     O_R   0.872416 0.530193 0.323479 -0.306779
O80   O     O_R   0.889610 0.615950 0.286006 -0.260100
N17   N     N_R   0.186384 0.444394 0.931806 0.228263
O81   O     O_R   0.140318 0.472951 0.914405 -0.383219
O82   O     O_R   0.209404 0.396050 0.913377 -0.310216
N18   N     N_R   0.553836 0.186207 0.931192 0.227237
O83   O     O_R   0.524861 0.140073 0.914126 -0.391108
O84   O     O_R   0.601672 0.209215 0.912225 -0.314011
N19   N     N_R   0.813621 0.554473 0.931496 0.226339
O85   O     O_R   0.859831 0.525759 0.914345 -0.400724
O86   O     O_R   0.790528 0.602440 0.912742 -0.314950
N20   N     N_R   0.444550 0.813435 0.931788 0.230422
O87   O     O_R   0.472811 0.859860 0.914632 -0.374876
O88   O     O_R   0.396522 0.790126 0.913160 -0.308403
N21   N     N_R   0.186462 0.555872 0.068125 0.230761
O89   O     O_R   0.139953 0.527771 0.085311 -0.374258
O90   O     O_R   0.209779 0.603978 0.086674 -0.307807
N22   N     N_R   0.555174 0.813755 0.068335 0.226940
O91   O     O_R   0.526565 0.859917 0.085643 -0.396195
O92   O     O_R   0.603371 0.790735 0.086884 -0.314579
N23   N     N_R   0.813656 0.445716 0.068592 0.227555
O93   O     O_R   0.859768 0.474577 0.085763 -0.390241
O94   O     O_R   0.790616 0.397760 0.087383 -0.313027
N24   N     N_R   0.445988 0.186500 0.068692 0.228656
O95   O     O_R   0.474853 0.140350 0.085737 -0.379204
O96   O     O_R   0.398162 0.209625 0.087646 -0.310175
N25   N     N_R   0.686370 0.945200 0.431499 0.228812
O97   O     O_R   0.640198 0.973872 0.414316 -0.379057
O98   O     O_R   0.709456 0.897148 0.412762 -0.310681
N26   N     N_R   0.055541 0.686259 0.431811 0.226601
O99   O     O_R   0.027069 0.640050 0.414450 -0.400895
O100  O     O_R   0.103816 0.709306 0.413380 -0.314499
N27   N     N_R   0.313618 0.054481 0.431490 0.226776
O101  O     O_R   0.359774 0.025718 0.414312 -0.396481
O102  O     O_R   0.290544 0.102466 0.412747 -0.314803
N28   N     N_R   0.945903 0.313503 0.431335 0.227825
O103  O     O_R   0.974811 0.359580 0.414237 -0.384442
O104  O     O_R   0.897997 0.290428 0.412434 -0.309753
N29   N     N_R   0.686397 0.054788 0.568485 0.228097
O105  O     O_R   0.640309 0.026045 0.585709 -0.383641
O106  O     O_R   0.709440 0.102892 0.587192 -0.309716
N30   N     N_R   0.053930 0.313789 0.568791 0.227299
O107  O     O_R   0.024984 0.359927 0.585867 -0.391173
O108  O     O_R   0.101790 0.290779 0.587739 -0.313654
N31   N     N_R   0.313648 0.945440 0.568486 0.226428
O109  O     O_R   0.359857 0.974140 0.585658 -0.400836
O110  O     O_R   0.290560 0.897451 0.587213 -0.314587
N32   N     N_R   0.944293 0.686570 0.568106 0.230473
O111  O     O_R   0.972508 0.640169 0.585332 -0.374693
O112  O     O_R   0.896179 0.709864 0.586630 -0.308409

loop_
_geom_bond_atom_site_label_1
_geom_bond_atom_site_label_2
_geom_bond_distance
_ccdc_geom_bond_type
O23   C19   1.282671 A    
N23   O94   1.301424 A    
O24   Zn4   1.990048 S    
O38   Zn10  2.019539 S    
C84   N20   1.438942 S    
O35   C59   1.270813 A    
N32   O111  1.300363 A    
O8    C10   1.277081 A    
N5    O57   1.301321 A    
O6    Zn2   2.020495 S    
C70   C75   1.196627 T    
C106  H10   1.084045 S    
O40   Zn10  2.019658 S    
O25   Zn5   1.990589 S    
O42   Zn11  2.019660 S    
O48   Zn12  2.019658 S    
C71   C74   1.196620 T    
C16   C56   1.430381 S    
N14   O76   1.301276 A    
N5    O58   1.301274 A    
C5    C105  1.393372 A    
C6    C63   1.432578 S    
C52   C86   1.411547 A    
N9    O65   1.301322 A    
C12   C52   1.430664 S    
C82   N18   1.438768 S    
O41   Zn11  2.019132 S    
O47   C61   1.270804 A    
N21   O89   1.300322 A    
C27   N16   1.438816 S    
C85   C101  1.385134 A    
O30   Zn6   1.990170 S    
C21   C77   1.418559 S    
O36   Zn9   2.019536 S    
C85   N21   1.438934 S    
C8    C108  1.393483 A    
N10   O68   1.301268 A    
C51   C87   1.411389 A    
O48   C64   1.270736 A    
N25   O97   1.300390 A    
O21   C19   1.281963 A    
O18   Zn2   1.990044 S    
C91   C107  1.385106 A    
O32   Zn8   1.990048 S    
O22   C20   1.282052 A    
O17   C17   1.282098 A    
N19   O85   1.300460 A    
C90   C106  1.385180 A    
C5    C62   1.432737 S    
O7    C11   1.276994 A    
C94   C110  1.385171 A    
N1    O50   1.301265 A    
O8    Zn4   2.020487 S    
C32   C44   1.408747 A    
C15   C55   1.430451 S    
C29   C34   1.406106 A    
C50   C82   1.411372 A    
C33   N6    1.438648 S    
C4    C57   1.432643 S    
C95   N31   1.438838 S    
C25   C38   1.406096 A    
C35   C45   1.408740 A    
C33   C45   1.408760 A    
C31   C36   1.405925 A    
O22   Zn2   1.990170 S    
C2    C104  1.393490 A    
C98   H2    1.084019 S    
C37   N2    1.438787 S    
C107  H11   1.084033 S    
O43   C63   1.270728 A    
O20   C18   1.282642 A    
C92   N28   1.438771 S    
N26   O99   1.300468 A    
C108  H12   1.084032 S    
N29   O106  1.301423 A    
O13   Zn7   2.020468 S    
O19   C17   1.282545 A    
C41   C65   1.431913 S    
N31   O109  1.300457 A    
N4    O55   1.301271 A    
O37   Zn10  2.019134 S    
C67   C78   1.196623 T    
C81   N17   1.438766 S    
C84   C100  1.385068 A    
C8    C110  1.393466 A    
O26   Zn6   1.990044 S    
C56   C94   1.411375 A    
C104  H8    1.084028 S    
O28   C22   1.282535 A    
C51   C83   1.411419 A    
O39   Zn10  2.020086 S    
C55   C95   1.411437 A    
O11   C15   1.277032 A    
C23   C79   1.418546 S    
N17   O81   1.300436 A    
O12   C16   1.277081 A    
O1    C9    1.277065 A    
C110  H14   1.084021 S    
C100  H4    1.084042 S    
O40   C60   1.270709 A    
O10   Zn6   2.020484 S    
N16   O80   1.301279 A    
C82   C98   1.385162 A    
C38   N1    1.438613 S    
C50   C88   1.411330 A    
O44   Zn11  2.019536 S    
C54   C96   1.411644 A    
N14   O75   1.301319 A    
C92   C108  1.385005 A    
O27   C21   1.282636 A    
N29   O105  1.300416 A    
O32   C24   1.282666 A    
N9    O66   1.301278 A    
C65   C80   1.196620 T    
O19   Zn3   1.989624 S    
N20   O88   1.301433 A    
C66   C79   1.196618 T    
C40   C48   1.408730 A    
O34   C58   1.270625 A    
N21   O90   1.301432 A    
O5    Zn3   2.020468 S    
O27   Zn7   1.989624 S    
N7    O61   1.301272 A    
C88   C104  1.385010 A    
C53   C89   1.411460 A    
C89   C105  1.385106 A    
C43   C67   1.431890 S    
C47   C71   1.431906 S    
C18   C74   1.418550 S    
C31   C43   1.408733 A    
N11   O69   1.301276 A    
N25   O98   1.301423 A    
O39   C57   1.270731 A    
N20   O87   1.300348 A    
C72   C73   1.196635 T    
C36   N7    1.438849 S    
C88   N24   1.438812 S    
O45   Zn12  2.019134 S    
N19   O86   1.301432 A    
O24   C20   1.282575 A    
C96   C112  1.385079 A    
C32   C35   1.405908 A    
O28   Zn8   1.990168 S    
O13   C13   1.277082 A    
C86   N22   1.438803 S    
C34   N5    1.438839 S    
N2    O52   1.301269 A    
C38   C48   1.408761 A    
C32   N11   1.438818 S    
N24   O96   1.301424 A    
C68   C77   1.196625 T    
O31   Zn5   1.989627 S    
O47   Zn12  2.020086 S    
C2    C98   1.393457 A    
O1    Zn1   2.020479 S    
N11   O70   1.301282 A    
C69   C76   1.196630 T    
C86   C102  1.385173 A    
O10   C14   1.277068 A    
N22   O92   1.301423 A    
C28   C42   1.408698 A    
C44   C68   1.431921 S    
C24   C80   1.418549 S    
C27   C41   1.408760 A    
C30   C44   1.408708 A    
C1    C97   1.393244 A    
O4    Zn4   2.020479 S    
N18   O84   1.301423 A    
N13   O73   1.301308 A    
O15   Zn5   2.020472 S    
O2    C10   1.276976 A    
C25   N14   1.438832 S    
C3    C103  1.393463 A    
N10   O67   1.301213 A    
C31   N12   1.438836 S    
N12   O72   1.301280 A    
O23   Zn1   1.989627 S    
O25   C21   1.281996 A    
O21   Zn3   1.990592 S    
O29   Zn7   1.990592 S    
C1    C101  1.393231 A    
C1    C58   1.432516 S    
C29   N10   1.438644 S    
C7    C107  1.393435 A    
C10   C50   1.430365 S    
N8    O64   1.301276 A    
C91   N27   1.438836 S    
O42   C62   1.270691 A    
N30   O108  1.301420 A    
C3    C60   1.432884 S    
O35   Zn9   2.020088 S    
O41   C61   1.270675 A    
N17   O82   1.301420 A    
N6    O59   1.301218 A    
C103  H7    1.084029 S    
C4    C102  1.393281 A    
C20   C76   1.418578 S    
N28   O104  1.301425 A    
C87   N23   1.438824 S    
C26   C37   1.406228 A    
N16   O79   1.301274 A    
C54   C90   1.411601 A    
C101  H5    1.084045 S    
N23   O93   1.300470 A    
C26   C42   1.408763 A    
C97   H1    1.084050 S    
C53   C93   1.411418 A    
C56   C92   1.411301 A    
C25   C41   1.408685 A    
C30   C33   1.406113 A    
O31   C23   1.282607 A    
C27   C40   1.405916 A    
C14   C54   1.430724 S    
C40   N3    1.438852 S    
C81   C97   1.385094 A    
C46   C70   1.431930 S    
O12   Zn8   2.020479 S    
C36   C46   1.408768 A    
O4    C12   1.277195 A    
C34   C46   1.408693 A    
C102  H6    1.084039 S    
O17   Zn1   1.990589 S    
N18   O83   1.300442 A    
C49   C81   1.411541 A    
N28   O103  1.300414 A    
C35   N8    1.438850 S    
C89   N25   1.438778 S    
C49   C85   1.411725 A    
O14   C16   1.276984 A    
C42   C66   1.431908 S    
O30   C24   1.281950 A    
C11   C51   1.430414 S    
O5    C9    1.277223 A    
O18   C18   1.281971 A    
C45   C69   1.431904 S    
N27   O101  1.300468 A    
O2    Zn2   2.020484 S    
O15   C15   1.277073 A    
C7    C64   1.432845 S    
C9    C49   1.430772 S    
C55   C91   1.411403 A    
C39   C47   1.408711 A    
O16   Zn8   2.020487 S    
N32   O112  1.301434 A    
O3    Zn3   2.020481 S    
C111  H15   1.084030 S    
C3    C99   1.393426 A    
N2    O51   1.301306 A    
C52   C84   1.411618 A    
N4    O56   1.301275 A    
N24   O95   1.300395 A    
C105  H9    1.084036 S    
C87   C103  1.385122 A    
O26   C22   1.282086 A    
O34   Zn9   2.019660 S    
N6    O60   1.301266 A    
O9    C13   1.277093 A    
N27   O102  1.301426 A    
O43   Zn11  2.020088 S    
C22   C78   1.418564 S    
C19   C75   1.418563 S    
C112  H16   1.084048 S    
C5    C109  1.393374 A    
C2    C59   1.432957 S    
C39   N4    1.438818 S    
O3    C11   1.277094 A    
C8    C61   1.432942 S    
N13   O74   1.301269 A    
O37   C59   1.270673 A    
O9    Zn5   2.020479 S    
C83   N19   1.438846 S    
C83   C99   1.385094 A    
N31   O110  1.301428 A    
C93   C109  1.385075 A    
N1    O49   1.301196 A    
O46   C62   1.270680 A    
C94   N30   1.438768 S    
C13   C53   1.430559 S    
O46   Zn12  2.019539 S    
C48   C72   1.431915 S    
C28   C39   1.405850 A    
C37   C47   1.408755 A    
N15   O78   1.301275 A    
O44   C64   1.270691 A    
C109  H13   1.084039 S    
N3    O53   1.301269 A    
C6    C106  1.393236 A    
C95   C111  1.385116 A    
O6    C12   1.277022 A    
O38   C58   1.270625 A    
C28   N15   1.438820 S    
C7    C111  1.393406 A    
N30   O107  1.300439 A    
O29   C23   1.282016 A    
O36   C60   1.270737 A    
N26   O100  1.301425 A    
N8    O63   1.301271 A    
C4    C100  1.393315 A    
C17   C73   1.418586 S    
N15   O77   1.301272 A    
N7    O62   1.301282 A    
C26   N13   1.438787 S    
O33   C57   1.270586 A    
O33   Zn9   2.019132 S    
N22   O91   1.300465 A    
C99   H3    1.084032 S    
C29   C43   1.408751 A    
C96   N32   1.438949 S    
O20   Zn4   1.990168 S    
C93   N29   1.438749 S    
O11   Zn7   2.020481 S    
O16   C14   1.277181 A    
N12   O71   1.301260 A    
O7    Zn1   2.020472 S    
C30   N9    1.438830 S    
C6    C112  1.393290 A    
C90   N26   1.438825 S    
O45   C63   1.270555 A    
N3    O54   1.301276 A    
O14   Zn6   2.020495 S    
