data_mof_unit_9781.cif
_audit_creation_date              2012-12-10T16:37:47-0500
_audit_creation_method            fapswitch 2.2
_symmetry_space_group_name_H-M    P1
_symmetry_Int_Tables_number       1
_space_group_crystal_system       triclinic
_cell_length_a                    28.035795
_cell_length_b                    18.281575
_cell_length_c                    16.968085
_cell_angle_alpha                 90.033235
_cell_angle_beta                  61.086872
_cell_angle_gamma                 90.198586
_cell_volume                      7612.72205107

loop_
_atom_site_label
_atom_site_type_symbol
_atom_type_description
_atom_site_fract_x
_atom_site_fract_y
_atom_site_fract_z
_atom_type_partial_charge
C1    C     C_R   0.706341 0.277671 0.672913 0.890803
C2    C     C_R   0.299081 0.733951 0.322904 0.875990
C3    C     C_R   0.299550 0.265024 0.322748 0.894092
C4    C     C_R   0.700869 0.734069 0.677146 0.877426
C5    C     C_R   0.200900 0.766013 0.677104 0.879691
C6    C     C_R   0.799246 0.234224 0.322958 0.901230
C7    C     C_R   0.799181 0.765837 0.322846 0.877747
C8    C     C_R   0.201032 0.233755 0.677145 0.892202
C9    C     C_R   0.921168 0.500229 0.435757 -0.071283
C10   C     C_R   0.095603 0.503644 0.512725 -0.071111
C11   C     C_R   0.418726 0.000187 0.446171 -0.068047
C12   C     C_R   0.581423 0.999766 0.553088 -0.067019
C13   C     C_R   0.129189 0.391120 0.427945 0.504951
C14   C     C_R   0.923963 0.633156 0.435273 0.521888
C15   C     C_R   0.936623 0.370343 0.397077 0.495389
C16   C     C_R   0.070817 0.627488 0.572228 0.518252
C17   C     C_R   0.573000 0.867647 0.569059 0.516884
C18   C     C_R   0.427087 0.132315 0.430289 0.517281
C19   C     C_R   0.427346 0.868263 0.428102 0.517249
C20   C     C_R   0.572789 0.131674 0.571121 0.515073
C21   C     C_R   0.731292 0.288511 0.944743 0.018565
C22   C     C_R   0.282263 0.739662 0.042706 0.017400
C23   C     C_R   0.283901 0.257073 0.041832 0.016670
C24   C     C_R   0.717878 0.739657 0.957201 0.017890
C25   C     C_R   0.217591 0.760095 0.957411 0.018399
C26   C     C_R   0.791912 0.258311 0.034845 0.020167
C27   C     C_R   0.782706 0.759313 0.042368 0.017832
C28   C     C_R   0.218853 0.237926 0.956883 0.018952
C29   C     C_R   0.786156 0.264965 0.895038 0.049963
C30   C     C_R   0.233011 0.779176 0.086896 0.049644
C31   C     C_R   0.234097 0.218361 0.086509 0.047240
C32   C     C_R   0.767617 0.778522 0.912650 0.050323
C33   C     C_R   0.266840 0.720576 0.913225 0.049324
C34   C     C_R   0.740695 0.293050 0.080794 0.050081
C35   C     C_R   0.733008 0.720362 0.086875 0.050185
C36   C     C_R   0.268668 0.276606 0.912268 0.049418
C37   C     C_R   0.815106 0.244293 0.941469 0.047765
C38   C     C_R   0.199382 0.786421 0.045895 0.048587
C39   C     C_R   0.200297 0.211810 0.045645 0.051385
C40   C     C_R   0.801295 0.785372 0.953618 0.048688
C41   C     C_R   0.300469 0.713331 0.954225 0.048228
C42   C     C_R   0.708088 0.301025 0.038289 0.046590
C43   C     C_R   0.699324 0.713521 0.045916 0.048454
C44   C     C_R   0.302399 0.283322 0.953165 0.049149
C45   C     C_R   0.645138 0.324484 0.949532 0.076740
C46   C     C_R   0.362290 0.686149 0.043953 0.069209
C47   C     C_R   0.363972 0.310875 0.043107 0.069724
C48   C     C_R   0.637366 0.686947 0.956295 0.069139
C49   C     C_R   0.137602 0.813694 0.956119 0.070302
C50   C     C_R   0.867780 0.195425 0.040614 0.070040
C51   C     C_R   0.863017 0.812477 0.043499 0.069229
C52   C     C_R   0.138056 0.185898 0.956178 0.070702
C53   C     C_R   0.616681 0.344460 0.901769 -0.143949
C54   C     C_R   0.387400 0.661053 0.095088 -0.141912
C55   C     C_R   0.388589 0.337088 0.094484 -0.144418
C56   C     C_R   0.612193 0.661794 0.905252 -0.142220
C57   C     C_R   0.112523 0.838843 0.904961 -0.142625
C58   C     C_R   0.889390 0.163963 0.094106 -0.147182
C59   C     C_R   0.888005 0.837962 0.094672 -0.141430
C60   C     C_R   0.112636 0.161246 0.905223 -0.138894
C61   C     C_R   0.636898 0.325067 0.813334 -0.316816
C62   C     C_R   0.368320 0.683558 0.182746 -0.322584
C63   C     C_R   0.369568 0.314454 0.182176 -0.328325
C64   C     C_R   0.631275 0.684312 0.817593 -0.319350
C65   C     C_R   0.131598 0.816320 0.817303 -0.314961
C66   C     C_R   0.868669 0.183669 0.183133 -0.284877
C67   C     C_R   0.868849 0.815572 0.182410 -0.319451
C68   C     C_R   0.131714 0.183800 0.817620 -0.310920
C69   C     C_R   0.688998 0.298633 0.765314 -0.110514
C70   C     C_R   0.322602 0.726681 0.224863 -0.124303
C71   C     C_R   0.323907 0.270743 0.224310 -0.139666
C72   C     C_R   0.677373 0.727043 0.775171 -0.124390
C73   C     C_R   0.177328 0.773210 0.775175 -0.123621
C74   C     C_R   0.823879 0.228611 0.224651 -0.117054
C75   C     C_R   0.822822 0.772682 0.224770 -0.124326
C76   C     C_R   0.177909 0.226267 0.775107 -0.120303
C77   C     C_R   0.723169 0.292332 0.806459 0.067366
C78   C     C_R   0.295790 0.751953 0.175712 0.071833
C79   C     C_R   0.297386 0.244610 0.174865 0.058085
C80   C     C_R   0.704516 0.752082 0.824068 0.073205
C81   C     C_R   0.204106 0.747886 0.824356 0.071102
C82   C     C_R   0.799305 0.258149 0.174072 0.065208
C83   C     C_R   0.795873 0.747307 0.175719 0.073503
C84   C     C_R   0.205339 0.250789 0.823836 0.072286
C85   C     C_R   0.690317 0.129665 0.538234 0.974567
C86   C     C_R   0.309672 0.870335 0.461778 0.947384
C87   C     C_R   0.309615 0.129615 0.462030 0.944274
C88   C     C_R   0.690399 0.870400 0.537844 0.945154
C89   C     C_R   0.190143 0.630004 0.538471 0.945281
C90   C     C_R   0.810394 0.369613 0.458990 0.951010
C91   C     C_R   0.809218 0.629336 0.462873 0.942854
C92   C     C_R   0.195590 0.372788 0.521160 0.992659
C93   C     C_R   0.699745 0.301007 0.900421 0.073321
C94   C     C_R   0.313450 0.725979 0.087501 0.073109
C95   C     C_R   0.315206 0.270496 0.086516 0.059874
C96   C     C_R   0.686566 0.726350 0.912502 0.074858
C97   C     C_R   0.186423 0.773821 0.912592 0.075146
C98   C     C_R   0.819779 0.237411 0.083120 0.076961
C99   C     C_R   0.813901 0.772879 0.087200 0.075006
C100  C     C_R   0.187416 0.224944 0.912262 0.073426
C101  C     C_R   0.621302 0.328096 0.044003 -0.186377
C102  C     C_R   0.384283 0.673839 0.950635 -0.189093
C103  C     C_R   0.386280 0.323029 0.949749 -0.187860
C104  C     C_R   0.615131 0.674878 0.049702 -0.187977
C105  C     C_R   0.115599 0.826004 0.049438 -0.188137
C106  C     C_R   0.892371 0.187162 0.946321 -0.190014
C107  C     C_R   0.885348 0.824424 0.950059 -0.188073
C108  C     C_R   0.115908 0.173769 0.049606 -0.178227
C109  C     C_R   0.652291 0.318260 0.087175 -0.218656
C110  C     C_R   0.353528 0.684969 0.907503 -0.219900
C111  C     C_R   0.355704 0.311441 0.906353 -0.218912
C112  C     C_R   0.645934 0.685754 0.092849 -0.218041
C113  C     C_R   0.146333 0.814822 0.092597 -0.219386
C114  C     C_R   0.866559 0.210351 0.898142 -0.217577
C115  C     C_R   0.854664 0.813239 0.906755 -0.218627
C116  C     C_R   0.146816 0.184370 0.092673 -0.222738
C117  C     C_R   0.779903 0.279952 0.757435 -0.185464
C118  C     C_R   0.252693 0.803036 0.209731 -0.190418
C119  C     C_R   0.253559 0.194275 0.209595 -0.155809
C120  C     C_R   0.748247 0.802622 0.789598 -0.192188
C121  C     C_R   0.247194 0.696796 0.790333 -0.189002
C122  C     C_R   0.755546 0.308403 0.209521 -0.191047
C123  C     C_R   0.752253 0.696602 0.210138 -0.190148
C124  C     C_R   0.249259 0.301035 0.789305 -0.184546
C125  C     C_R   0.810205 0.264433 0.800546 -0.225139
C126  C     C_R   0.221022 0.814414 0.168088 -0.223591
C127  C     C_R   0.221610 0.183449 0.168196 -0.227118
C128  C     C_R   0.780062 0.813582 0.831131 -0.223951
C129  C     C_R   0.278843 0.685369 0.832007 -0.222416
C130  C     C_R   0.725034 0.321866 0.166439 -0.226002
C131  C     C_R   0.720555 0.685362 0.168440 -0.223010
C132  C     C_R   0.281129 0.311724 0.830778 -0.225764
C133  C     C_R   0.071983 0.103058 0.936583 0.915389
C134  C     C_R   0.928220 0.896737 0.063318 0.913946
C135  C     C_R   0.928582 0.103724 0.063064 0.912154
C136  C     C_R   0.072102 0.897126 0.936368 0.912373
C137  C     C_R   0.571849 0.603193 0.936635 0.914334
C138  C     C_R   0.428302 0.396613 0.063309 0.908792
C139  C     C_R   0.427867 0.602840 0.063657 0.909520
C140  C     C_R   0.572246 0.397080 0.936415 0.904714
C141  C     C_R   0.536442 0.132660 0.536025 0.007038
C142  C     C_R   0.463740 0.867282 0.463116 0.007119
C143  C     C_R   0.463379 0.132977 0.465535 0.006874
C144  C     C_R   0.536780 0.866978 0.533669 0.006631
C145  C     C_R   0.032144 0.629625 0.541651 0.001699
C146  C     C_R   0.987629 0.376778 0.397354 -0.010848
C147  C     C_R   0.957489 0.632568 0.475032 0.012845
C148  C     C_R   0.082714 0.385943 0.416704 0.001731
C149  C     C_R   0.517074 0.198895 0.520377 -0.192344
C150  C     C_R   0.483087 0.801050 0.478816 -0.191305
C151  C     C_R   0.482562 0.199075 0.482432 -0.191722
C152  C     C_R   0.517586 0.800879 0.516792 -0.191244
C153  C     C_R   0.005527 0.694943 0.542641 -0.197358
C154  C     C_R   0.030035 0.325158 0.356225 -0.217915
C155  C     C_R   0.970740 0.697143 0.505215 -0.185847
C156  C     C_R   0.076762 0.329598 0.365871 -0.189500
C157  C     C_R   0.480818 0.066445 0.484368 0.001830
C158  C     C_R   0.519391 0.933505 0.514737 0.001794
C159  C     C_R   0.519197 0.066309 0.515961 0.002212
C160  C     C_R   0.481019 0.933639 0.483123 0.001923
C161  C     C_R   0.980529 0.566225 0.480027 -0.001759
C162  C     C_R   0.043453 0.441423 0.451005 0.002351
C163  C     C_R   0.021098 0.565889 0.506325 0.000560
C164  C     C_R   0.997823 0.438724 0.436482 0.010682
C165  C     C_R   0.966084 0.501214 0.451792 -0.041808
C166  C     C_R   0.052458 0.503007 0.492364 -0.039774
C167  C     C_R   0.461102 0.000108 0.469124 -0.042718
C168  C     C_R   0.539105 0.999842 0.529987 -0.042812
C169  C     C_R   0.901169 0.432971 0.421523 -0.081270
C170  C     C_R   0.106328 0.566267 0.550621 -0.102323
C171  C     C_R   0.130919 0.443552 0.488757 -0.120397
C172  C     C_R   0.896352 0.567052 0.434995 -0.124560
C173  C     C_R   0.397159 0.933330 0.435627 -0.112434
C174  C     C_R   0.602960 0.066622 0.563717 -0.115287
C175  C     C_R   0.603083 0.932876 0.562790 -0.110367
C176  C     C_R   0.396993 0.067082 0.436654 -0.112051
C177  C     C_R   0.847852 0.433477 0.428233 -0.201096
C178  C     C_R   0.154254 0.565948 0.560378 -0.223609
C179  C     C_R   0.167776 0.439801 0.524096 -0.220755
C180  C     C_R   0.845540 0.565410 0.434785 -0.239461
C181  C     C_R   0.346433 0.934323 0.434163 -0.232741
C182  C     C_R   0.653584 0.065635 0.565563 -0.234695
C183  C     C_R   0.653648 0.934121 0.565029 -0.234072
C184  C     C_R   0.346323 0.065846 0.434767 -0.231700
C185  C     C_R   0.825600 0.499646 0.420473 0.421874
C186  C     C_R   0.175824 0.499872 0.566807 0.417040
C187  C     C_R   0.326073 0.000054 0.421468 0.428414
C188  C     C_R   0.673828 0.999929 0.578512 0.423436
H1    H     H_    0.107941 0.288258 0.334108 0.185664
H2    H     H_    0.952857 0.748906 0.502602 0.174567
H3    H     H_    0.028842 0.282489 0.313431 0.167439
H4    H     H_    0.013731 0.745231 0.567781 0.182300
H5    H     H_    0.530667 0.748796 0.529985 0.180693
H6    H     H_    0.469445 0.251161 0.469316 0.180718
H7    H     H_    0.470092 0.749085 0.464775 0.180847
H8    H     H_    0.530049 0.250855 0.534471 0.180857
H9    H     H_    0.612790 0.334800 0.780029 0.190480
H10   H     H_    0.387461 0.663264 0.220723 0.194465
H11   H     H_    0.388389 0.335586 0.220372 0.195830
H12   H     H_    0.611924 0.664133 0.779777 0.193851
H13   H     H_    0.112456 0.836611 0.779325 0.196009
H14   H     H_    0.885672 0.159688 0.222548 0.195859
H15   H     H_    0.888062 0.835993 0.220333 0.193205
H16   H     H_    0.112176 0.163971 0.779943 0.192198
H17   H     H_    0.578091 0.336661 0.086310 0.160241
H18   H     H_    0.425986 0.657407 0.908250 0.167388
H19   H     H_    0.428018 0.340010 0.907814 0.165510
H20   H     H_    0.573253 0.658653 0.091967 0.166069
H21   H     H_    0.073905 0.842491 0.091794 0.166791
H22   H     H_    0.932656 0.164667 0.907173 0.167052
H23   H     H_    0.927196 0.840855 0.907937 0.166309
H24   H     H_    0.073994 0.157789 0.092013 0.167269
H25   H     H_    0.631234 0.321542 0.159833 0.144289
H26   H     H_    0.372984 0.673312 0.836282 0.142454
H27   H     H_    0.375356 0.322972 0.835064 0.142129
H28   H     H_    0.626321 0.674281 0.164155 0.142094
H29   H     H_    0.126875 0.826489 0.163816 0.142462
H30   H     H_    0.887321 0.198756 0.826981 0.137783
H31   H     H_    0.874326 0.824639 0.835429 0.140851
H32   H     H_    0.127212 0.172982 0.164007 0.133300
H33   H     H_    0.802672 0.284248 0.685068 0.177309
H34   H     H_    0.243400 0.837449 0.266915 0.176349
H35   H     H_    0.243664 0.160535 0.267603 0.170580
H36   H     H_    0.757996 0.836931 0.732126 0.175092
H37   H     H_    0.256499 0.662426 0.733109 0.177269
H38   H     H_    0.744156 0.339877 0.269619 0.177833
H39   H     H_    0.742496 0.662447 0.267744 0.175684
H40   H     H_    0.259111 0.335470 0.731916 0.181268
H41   H     H_    0.853155 0.254864 0.757793 0.137423
H42   H     H_    0.188397 0.853644 0.199065 0.140241
H43   H     H_    0.188264 0.145027 0.199880 0.136311
H44   H     H_    0.813188 0.852371 0.799791 0.140427
H45   H     H_    0.311470 0.646143 0.801022 0.140930
H46   H     H_    0.690630 0.358315 0.199319 0.141356
H47   H     H_    0.687485 0.646485 0.199735 0.140228
H48   H     H_    0.314313 0.350417 0.799393 0.141057
O1    O     O_R   0.746490 0.236330 0.638080 -0.655058
O2    O     O_R   0.253510 0.763670 0.361920 -0.649828
O3    O     O_R   0.253510 0.236330 0.361920 -0.614967
O4    O     O_R   0.746490 0.763670 0.638080 -0.650788
O5    O     O_R   0.246490 0.736330 0.638080 -0.649955
O6    O     O_R   0.753510 0.263670 0.361920 -0.651370
O7    O     O_R   0.753510 0.736330 0.361920 -0.649095
O8    O     O_R   0.246490 0.263670 0.638080 -0.644292
O9    O     O_R   0.674170 0.186160 0.516270 -0.578555
O10   O     O_R   0.325830 0.813840 0.483730 -0.580071
O11   O     O_R   0.325830 0.186160 0.483730 -0.581159
O12   O     O_R   0.674170 0.813840 0.516270 -0.579723
O13   O     O_R   0.174170 0.686160 0.516270 -0.581680
O14   O     O_R   0.825830 0.313840 0.483730 -0.635258
O15   O     O_R   0.825830 0.686160 0.483730 -0.582563
O16   O     O_R   0.174170 0.313840 0.516270 -0.608818
O17   O     O_R   0.739960 0.127620 0.525000 -0.570941
O18   O     O_R   0.260040 0.872380 0.475000 -0.576254
O19   O     O_R   0.260040 0.127620 0.475000 -0.578910
O20   O     O_R   0.739960 0.872380 0.525000 -0.577804
O21   O     O_R   0.239960 0.627620 0.525000 -0.586793
O22   O     O_R   0.760040 0.372380 0.475000 -0.579152
O23   O     O_R   0.760040 0.627620 0.475000 -0.575409
O24   O     O_R   0.239960 0.372380 0.525000 -0.581839
O25   O     O_R   0.680700 0.294870 0.629350 -0.607501
O26   O     O_R   0.319300 0.705130 0.370650 -0.606553
O27   O     O_R   0.319300 0.294870 0.370650 -0.616980
O28   O     O_R   0.680700 0.705130 0.629350 -0.606357
O29   O     O_R   0.180700 0.794870 0.629350 -0.606423
O30   O     O_R   0.819300 0.205130 0.370650 -0.632245
O31   O     O_R   0.819300 0.794870 0.370650 -0.607236
O32   O     O_R   0.180700 0.205130 0.629350 -0.627907
O33   O     O_R   0.062020 0.072840 0.007170 -0.624815
O34   O     O_R   0.937980 0.927160 0.992830 -0.622470
O35   O     O_R   0.937980 0.072840 0.992830 -0.621672
O36   O     O_R   0.062020 0.927160 0.007170 -0.624597
O37   O     O_R   0.562020 0.572840 0.007170 -0.622542
O38   O     O_R   0.437980 0.427160 0.992830 -0.623194
O39   O     O_R   0.437980 0.572840 0.992830 -0.624505
O40   O     O_R   0.562020 0.427160 0.007170 -0.619890
O41   O     O_R   0.947860 0.073950 0.109290 -0.618609
O42   O     O_R   0.052140 0.926050 0.890710 -0.618424
O43   O     O_R   0.052140 0.073950 0.890710 -0.619099
O44   O     O_R   0.947860 0.926050 0.109290 -0.619160
O45   O     O_R   0.447860 0.573950 0.109290 -0.619214
O46   O     O_R   0.552140 0.426050 0.890710 -0.614977
O47   O     O_R   0.552140 0.573950 0.890710 -0.617507
O48   O     O_R   0.447860 0.426050 0.109290 -0.618253
Zn1   Zn    Zn3+2 0.792340 0.208750 0.507670 0.938593
Zn2   Zn    Zn3+2 0.207660 0.791250 0.492330 1.007420
Zn3   Zn    Zn3+2 0.207660 0.208750 0.492330 0.993406
Zn4   Zn    Zn3+2 0.792340 0.791250 0.507670 1.004148
Zn5   Zn    Zn3+2 0.292340 0.708750 0.507670 1.005391
Zn6   Zn    Zn3+2 0.707660 0.291250 0.492330 1.004804
Zn7   Zn    Zn3+2 0.707660 0.708750 0.492330 1.009350
Zn8   Zn    Zn3+2 0.292340 0.291250 0.507670 1.009118
Zn9   Zn    Zn3+2 0.505960 0.500000 0.080520 0.928216
Zn10  Zn    Zn3+2 0.494040 0.500000 0.919480 0.927091
Zn11  Zn    Zn3+2 0.005960 1.000000 0.080520 0.922360
Zn12  Zn    Zn3+2 0.994040 0.000000 0.919480 0.927700
O49   O     O_3   0.780129 0.499776 0.408453 -0.567180
C189  C     C_3   0.798022 0.498249 0.315230 -0.295144
H49   H     H_    0.823181 0.547327 0.280886 0.139446
H50   H     H_    0.761805 0.499015 0.305053 0.178583
H51   H     H_    0.821037 0.447254 0.283855 0.149727
O50   O     O_3   0.212181 0.496456 0.600335 -0.570017
C190  C     C_3   0.183849 0.509984 0.693820 -0.312566
H52   H     H_    0.212132 0.501051 0.721275 0.186101
H53   H     H_    0.148913 0.471531 0.729151 0.145997
H54   H     H_    0.169653 0.567625 0.708459 0.142073
O51   O     O_3   0.281802 0.999944 0.406225 -0.565284
C191  C     C_3   0.301653 0.000306 0.312414 -0.312569
H55   H     H_    0.326043 0.050551 0.280783 0.138663
H56   H     H_    0.266417 0.000220 0.299609 0.182622
H57   H     H_    0.326111 0.950436 0.280312 0.140065
O52   O     O_3   0.717899 0.000240 0.594285 -0.566369
C192  C     C_3   0.697956 0.992615 0.687705 -0.290168
H58   H     H_    0.733004 0.993627 0.700980 0.185955
H59   H     H_    0.676517 0.939343 0.712890 0.132223
H60   H     H_    0.670622 0.038805 0.725543 0.144324
O53   O     O_3   0.175300 0.352446 0.369981 -0.593798
C193  C     C_3   0.209814 0.400362 0.300038 -0.308497
H61   H     H_    0.228426 0.441871 0.324951 0.161837
H62   H     H_    0.188128 0.427658 0.267770 0.159069
H63   H     H_    0.243278 0.368666 0.246784 0.201018
O54   O     O_3   0.923145 0.696724 0.391043 -0.592335
C194  C     C_3   0.943148 0.682109 0.298695 -0.301396
H64   H     H_    0.913152 0.650275 0.287440 0.147961
H65   H     H_    0.983073 0.653343 0.268669 0.153410
H66   H     H_    0.949675 0.734951 0.262724 0.183867
O55   O     O_3   0.925204 0.309090 0.359895 -0.605223
C195  C     C_3   0.927087 0.243140 0.402859 -0.236969
H67   H     H_    0.889961 0.210545 0.421213 0.214737
H68   H     H_    0.929819 0.251011 0.465750 0.119109
H69   H     H_    0.960868 0.208148 0.354839 0.128061
O56   O     O_3   0.073502 0.685573 0.622417 -0.593886
C196  C     C_3   0.047567 0.664981 0.713891 -0.358109
H70   H     H_    0.069497 0.619528 0.726052 0.153254
H71   H     H_    0.004191 0.649673 0.738159 0.166374
H72   H     H_    0.048052 0.712498 0.754207 0.193945
O57   O     O_3   0.575909 0.805266 0.613091 -0.592262
C197  C     C_3   0.554036 0.820325 0.705707 -0.326507
H73   H     H_    0.512188 0.843404 0.734920 0.156182
H74   H     H_    0.581033 0.857592 0.718291 0.147914
H75   H     H_    0.551098 0.768255 0.741354 0.188722
O58   O     O_3   0.424070 0.194736 0.386414 -0.592454
C198  C     C_3   0.445574 0.179683 0.293867 -0.327512
H76   H     H_    0.418279 0.142710 0.281654 0.148494
H77   H     H_    0.487340 0.156273 0.264285 0.155022
H78   H     H_    0.448596 0.231808 0.258271 0.189055
O59   O     O_3   0.423996 0.806227 0.383823 -0.592421
C199  C     C_3   0.445485 0.821982 0.291420 -0.328505
H79   H     H_    0.448079 0.770192 0.255471 0.189466
H80   H     H_    0.487426 0.845211 0.261879 0.156220
H81   H     H_    0.418408 0.859402 0.279616 0.148539
O60   O     O_3   0.575997 0.193610 0.615659 -0.591020
C200  C     C_3   0.553550 0.177916 0.708246 -0.322326
H82   H     H_    0.579742 0.139556 0.721009 0.151904
H83   H     H_    0.511339 0.155791 0.736911 0.154713
H84   H     H_    0.551343 0.229544 0.744236 0.188008

loop_
_geom_bond_atom_site_label_1
_geom_bond_atom_site_label_2
_ccdc_geom_bond_type
C154  H3    S    
O10   Zn5   S    
C5    O29   A    
C85   C182  S    
O34   Zn12  S    
C9    C169  A    
C34   C42   A    
C171  C179  A    
O57   C197  S    
C181  C187  A    
C190  H53   S    
C196  H70   S    
C90   O14   A    
C27   C99   A    
C138  O38   A    
C12   C174  A    
C42   C109  A    
C111  H27   S    
C24   C96   A    
C149  H8    S    
C123  H39   S    
C8    O8    A    
O47   Zn10  S    
C106  H22   S    
O44   Zn11  S    
C121  H37   S    
C30   C38   A    
C113  H29   S    
C124  H40   S    
O11   Zn8   S    
C147  C155  A    
C191  H57   S    
C143  C151  A    
C90   C177  S    
C128  H44   S    
C11   C167  A    
C82   C98   A    
C76   C84   A    
C73   C81   A    
C200  H83   S    
C162  C164  A    
O18   Zn2   S    
O7    Zn7   S    
C19   O59   S    
C139  O45   A    
C194  H64   S    
C84   C100  A    
C61   H9    S    
O58   C198  S    
C37   C114  A    
C27   C35   A    
C10   C171  A    
C21   C29   A    
C81   C121  A    
C23   C31   A    
C24   C32   A    
O39   Zn10  S    
C190  H52   S    
O41   Zn11  S    
O42   Zn12  S    
O25   Zn6   S    
C135  O35   A    
C136  O36   A    
C132  H48   S    
C14   C172  A    
C63   C71   A    
C64   H12   S    
C36   C44   A    
C189  H49   S    
C90   O22   A    
C175  C183  A    
C196  H72   S    
C176  C184  A    
O3    Zn3   S    
O4    Zn4   S    
C193  H63   S    
C140  O46   A    
C192  H60   S    
C87   O11   A    
C133  O43   A    
C148  C162  A    
C33   C41   A    
C183  C188  A    
O30   Zn1   S    
C108  C116  A    
C2    O26   A    
C21   C93   A    
C78   C94   A    
C199  H79   S    
C23   C95   A    
O33   Zn11  S    
C67   H15   S    
O36   Zn11  S    
O5    Zn5   S    
C21   C42   A    
C22   C41   A    
C107  H23   S    
C51   C107  A    
C24   C43   A    
C82   C122  A    
C161  C165  A    
C17   C175  A    
C18   C176  A    
O24   Zn8   S    
C29   C125  A    
C118  H34   S    
C69   C77   A    
C31   C127  A    
C45   C93   A    
C174  C182  A    
C71   C79   A    
O21   Zn5   S    
C179  C186  A    
C62   C70   A    
C11   C176  A    
C17   C144  A    
C151  H6    S    
C105  C113  A    
C18   C143  A    
C110  H26   S    
C103  H19   S    
C125  H41   S    
C149  C151  A    
C192  H59   S    
C66   C74   A    
C48   C96   A    
C8    C76   S    
C155  H2    S    
C49   C57   A    
O52   C192  S    
C124  C132  A    
C193  H62   S    
C52   C60   A    
C59   C67   A    
C53   C61   A    
C141  C159  A    
C20   C174  A    
C55   C63   A    
C6    O30   A    
C86   C181  S    
C56   C64   A    
C116  H32   S    
C15   O55   S    
C10   C166  A    
C156  H1    S    
C45   C53   A    
C120  H36   S    
C85   O9    A    
C22   C94   A    
C139  O39   A    
C186  O50   S    
C114  H30   S    
C169  C177  A    
C108  H24   S    
C191  H56   S    
C92   O16   A    
C50   C98   A    
O56   C196  S    
C104  C112  A    
O37   Zn9   S    
C145  C163  A    
C1    O1    A    
C146  C164  A    
C14   C147  A    
C52   C100  A    
C199  H81   S    
C16   C145  A    
C194  H65   S    
C178  C186  A    
C136  O42   A    
C25   C38   A    
C88   O12   A    
C54   C139  S    
C46   C94   A    
C27   C40   A    
C4    O28   A    
C57   C65   A    
C91   C180  S    
C182  C188  A    
C89   C178  S    
C7    O31   A    
C102  H18   S    
C60   C68   A    
C25   C97   A    
C197  H74   S    
O13   Zn2   S    
C198  H77   S    
C67   C75   A    
C22   C30   A    
C20   C141  A    
C195  H67   S    
C15   C146  A    
C58   C135  S    
C134  O34   A    
C197  H75   S    
C59   C134  S    
O26   Zn5   S    
C134  O44   A    
C32   C128  A    
C72   C80   A    
C17   O57   S    
C56   C137  S    
O22   Zn6   S    
C112  H28   S    
C5    C73   S    
C150  H7    S    
C91   O23   A    
C66   H14   S    
C13   C171  A    
C138  O48   A    
C6    O6    A    
C117  C125  A    
C25   C33   A    
C119  C127  A    
O1    Zn1   S    
C157  C167  A    
C30   C126  A    
C200  H82   S    
C14   O54   S    
C158  C168  A    
C91   O15   A    
C89   O13   A    
C164  C165  A    
C120  C128  A    
O6    Zn6   S    
C40   C115  A    
C68   H16   S    
C101  C109  A    
C122  H38   S    
O19   Zn3   S    
C177  C185  A    
O20   Zn4   S    
C103  C111  A    
O49   C189  S    
C161  C163  A    
C162  C166  A    
C79   C119  A    
C153  C155  A    
C154  C156  A    
C172  C180  A    
C87   O19   A    
O54   C194  S    
C173  C181  A    
C157  C159  A    
C83   C99   A    
C158  C160  A    
C189  H50   S    
C74   C82   A    
C195  H69   S    
C6    C74   S    
C190  H54   S    
C196  H71   S    
C47   C103  A    
O51   C191  S    
C50   C58   A    
C163  C166  A    
C13   O53   S    
C147  C161  A    
O59   C199  S    
C38   C113  A    
O46   Zn10  S    
C49   C105  A    
C54   C62   A    
C28   C39   A    
C130  H46   S    
C1    C69   S    
C23   C44   A    
O28   Zn7   S    
C188  O52   S    
C3    C71   S    
C19   C173  A    
C79   C95   A    
C92   C179  S    
C46   C54   A    
C199  H80   S    
C4    O4    A    
C45   C101  A    
C19   C142  A    
O32   Zn3   S    
C102  C110  A    
C86   O18   A    
O15   Zn4   S    
C105  H21   S    
O16   Zn3   S    
C35   C131  A    
C4    C72   S    
C200  H84   S    
C58   C66   A    
C33   C129  A    
O12   Zn7   S    
C123  C131  A    
C135  O41   A    
C121  C129  A    
C184  C187  A    
C26   C37   A    
O9    Zn6   S    
C10   C170  A    
C109  H25   S    
C131  H47   S    
C142  C150  A    
C9    C165  A    
O38   Zn10  S    
O55   C195  S    
O40   Zn9   S    
C75   C83   A    
C192  H58   S    
C77   C93   A    
O14   Zn1   S    
C185  O49   S    
C104  H20   S    
C49   C97   A    
C44   C111  A    
C16   C170  A    
C28   C36   A    
C144  C152  A    
C39   C116  A    
C29   C37   A    
C50   C106  A    
C9    C172  A    
C148  C156  A    
C83   C123  A    
C2    C70   S    
C60   C133  S    
C189  H51   S    
C3    O3    A    
C170  C178  A    
C198  H76   S    
C80   C120  A    
C70   C78   A    
C53   C140  S    
O27   Zn8   S    
C117  H33   S    
C8    O32   A    
C141  C149  A    
C88   O20   A    
C46   C102  A    
C55   C138  S    
C152  H5    S    
C106  C114  A    
C126  H42   S    
C77   C117  A    
O17   Zn1   S    
O43   Zn12  S    
C48   C104  A    
C65   C73   A    
C159  C168  A    
C15   C169  A    
C160  C167  A    
C16   O56   S    
C26   C34   A    
C31   C39   A    
C146  C154  A    
C57   C136  S    
C80   C96   A    
O2    Zn2   S    
O45   Zn9   S    
C28   C100  A    
C32   C40   A    
C52   C108  A    
C86   O10   A    
O60   C200  S    
C115  H31   S    
C119  H35   S    
C92   O24   A    
O8    Zn8   S    
C143  C157  A    
C51   C99   A    
C11   C173  A    
C137  O47   A    
C89   O21   A    
C62   H10   S    
C195  H68   S    
C87   C184  S    
C2    O2    A    
C88   C183  S    
C7    C75   S    
C129  H45   S    
C193  H61   S    
C133  O33   A    
O23   Zn7   S    
C127  H43   S    
C68   C76   A    
C107  C115  A    
C36   C132  A    
C101  H17   S    
O29   Zn2   S    
C26   C98   A    
C12   C175  A    
C1    O25   A    
C78   C118  A    
O31   Zn4   S    
C3    O27   A    
C41   C110  A    
C150  C152  A    
C51   C59   A    
C43   C112  A    
C144  C158  A    
C35   C43   A    
C191  H55   S    
C47   C55   A    
C61   C69   A    
C48   C56   A    
O50   C190  S    
C142  C160  A    
C12   C168  A    
C84   C124  A    
C85   O17   A    
C194  H66   S    
C140  O40   A    
C187  O51   S    
C20   O60   S    
C145  C153  A    
C81   C97   A    
O48   Zn9   S    
C137  O37   A    
C63   H11   S    
C64   C72   A    
O53   C193  S    
O35   Zn12  S    
C180  C185  A    
C65   H13   S    
C34   C130  A    
C197  H73   S    
C198  H78   S    
C7    O7    A    
C47   C95   A    
C118  C126  A    
C13   C148  A    
C5    O5    A    
C122  C130  A    
C18   O58   S    
C153  H4    S    
