data_mof_unit_42261.cif
_audit_creation_date              2012-12-10T17:34:24-0500
_audit_creation_method            fapswitch 2.2
_symmetry_space_group_name_H-M    P1
_symmetry_Int_Tables_number       1
_space_group_crystal_system       triclinic
_cell_length_a                    12.365413
_cell_length_b                    13.088676
_cell_length_c                    14.33541
_cell_angle_alpha                 79.452182
_cell_angle_beta                  100.771064
_cell_angle_gamma                 116.114648
_cell_volume                      2033.18091237

loop_
_atom_site_label
_atom_site_type_symbol
_atom_type_description
_atom_site_fract_x
_atom_site_fract_y
_atom_site_fract_z
_atom_type_partial_charge
C1    C     C_R   0.855336 0.286209 0.503310 0.809731
C2    C     C_1   0.000498 0.499865 0.229032 -0.120177
C3    C     C_R   0.270279 0.033014 0.423116 -0.130130
C4    C     C_R   0.229234 0.835927 0.480855 -0.075114
C5    C     C_R   0.817470 0.077258 0.536251 0.169468
C6    C     C_R   0.739742 0.970781 0.576508 -0.152585
C7    C     C_R   0.616947 0.943163 0.574782 0.106978
C8    C     C_R   0.565725 0.014086 0.513831 0.032883
C9    C     C_R   0.646789 0.124920 0.477179 -0.004532
C10   C     C_R   0.438833 0.980789 0.487436 0.068293
C11   C     C_R   0.395363 0.061490 0.436005 0.080788
C12   C     C_R   0.999978 0.499983 0.668672 0.815676
C13   C     C_R   0.476847 0.164212 0.391978 0.123583
C14   C     C_R   0.600318 0.193833 0.411170 -0.174035
C15   C     C_R   0.354373 0.866516 0.498866 -0.178144
C16   C     C_R   0.188155 0.921815 0.450001 -0.140474
C17   C     C_R   0.773643 0.161861 0.502125 -0.154830
C18   C     C_R   0.367165 0.359551 0.663845 -0.270157
C19   C     C_R   0.743268 0.616666 0.359137 0.108396
C20   C     C_R   0.629306 0.607487 0.311304 -0.202485
C21   C     C_R   0.526328 0.551764 0.359947 -0.071805
C22   C     C_R   0.542187 0.517637 0.459823 -0.081990
C23   C     C_R   0.145268 0.713711 0.489454 0.803711
C24   C     C_R   0.660061 0.525762 0.503687 0.213710
C25   C     C_R   0.446829 0.475411 0.519237 -0.011284
C26   C     C_R   0.463906 0.418685 0.610523 0.091979
C27   C     C_R   0.580606 0.434863 0.652708 -0.254779
C28   C     C_R   0.679262 0.508857 0.604070 -0.027982
C29   C     C_R   0.339269 0.493584 0.496349 0.068940
C30   C     C_R   0.257350 0.366794 0.631840 0.380456
C31   C     C_R   0.000147 0.499988 0.331345 0.797771
C32   C     C_1   0.000147 0.499828 0.771124 -0.128501
C33   C     C_1   0.000426 0.499743 0.856654 0.070170
C34   C     C_1   0.000630 0.499771 0.957405 0.057985
C35   C     C_1   0.000719 0.499817 0.042888 0.047538
C36   C     C_1   0.000676 0.499847 0.143599 0.032304
Cu1   Cu    Cu3+1 0.098280 0.475420 0.520190 1.007593
Cu2   Cu    Cu3+1 0.901720 0.524580 0.479810 0.997393
H1    H     H_    0.092920 0.902482 0.441276 0.232535
H2    H     H_    0.595315 0.408866 0.728584 0.192855
H3    H     H_    0.378418 0.311878 0.732404 0.173688
H4    H     H_    0.331023 0.557038 0.439592 0.136269
H5    H     H_    0.235267 0.095712 0.391333 0.198402
H6    H     H_    0.385782 0.799885 0.514136 0.184221
H7    H     H_    0.776266 0.910454 0.612656 0.195820
H8    H     H_    0.659436 0.268784 0.369584 0.183546
N1    N     N_R   0.246290 0.438200 0.550780 -0.197592
N2    N     N_R   0.754310 0.561180 0.449760 -0.215753
O1    O     O_R   0.972510 0.318130 0.525390 -0.527561
O2    O     O_R   0.806530 0.359650 0.491290 -0.585511
O3    O     O_R   0.083010 0.479240 0.641000 -0.539692
O4    O     O_R   0.917030 0.520750 0.606900 -0.564433
O5    O     O_R   0.193470 0.640350 0.508710 -0.590066
O6    O     O_R   0.027490 0.681870 0.474610 -0.540130
O7    O     O_R   0.082970 0.479250 0.393100 -0.552882
O8    O     O_R   0.916990 0.520760 0.359000 -0.569762
C37   C     C_2   0.851104 0.694991 0.311313 0.937937
O9    O     O_2   0.917670 0.786262 0.341686 -0.585048
O10   O     O_R   0.868133 0.671370 0.225213 -0.756814
H9    H     H_    0.942948 0.733618 0.197912 0.337126
C38   C     C_2   0.405292 0.531970 0.304513 0.873924
O11   O     O_2   0.321332 0.436673 0.309839 -0.550418
O12   O     O_R   0.386840 0.623365 0.247917 -0.750234
H10   H     H_    0.300826 0.599473 0.214709 0.338214
C39   C     C_2   0.617667 0.653520 0.208761 0.955817
O13   O     O_2   0.670906 0.756109 0.184211 -0.543363
O14   O     O_R   0.544962 0.579048 0.140868 -0.705780
H11   H     H_    0.543706 0.620228 0.073779 0.354000
C40   C     C_2   0.779250 0.600306 0.657029 0.890540
O15   O     O_2   0.794658 0.588410 0.744474 -0.598621
O16   O     O_R   0.853705 0.702195 0.606792 -0.731528
H12   H     H_    0.917750 0.758059 0.650553 0.336635
I1    I     I_    0.421016 0.263140 0.276217 -0.241694
I2    I     I_    0.991665 0.094520 0.517791 -0.284692
I3    I     I_    0.531514 0.806601 0.681103 -0.333632
I4    I     I_    0.121691 0.271177 0.724678 -0.262663

loop_
_geom_bond_atom_site_label_1
_geom_bond_atom_site_label_2
_ccdc_geom_bond_type
C6    H7    S    
C29   H4    S    
C19   C20   A    
C18   C26   A    
C7    C8    A    
C14   H8    S    
C19   C37   S    
C3    H5    S    
C26   C27   A    
C29   N1    A    
C15   H6    S    
C10   C15   A    
C5    C6    A    
Cu1   O3    S    
C37   O10   S    
Cu2   O4    S    
Cu1   O1    S    
C40   O16   S    
C34   C35   T    
C5    I2    S    
C38   O12   S    
C28   C40   S    
C8    C9    A    
C39   O14   S    
C22   C25   A    
C18   C30   A    
C31   O8    A    
Cu1   N1    S    
C1    O2    A    
Cu2   N2    S    
Cu1   O5    S    
O10   H9    S    
C13   C14   A    
C12   C32   S    
C38   O11   D    
C12   O4    A    
C23   O5    A    
C25   C29   A    
O14   H11   S    
C24   N2    A    
C30   N1    A    
C18   H3    S    
C4    C23   S    
C19   N2    A    
C7    I3    S    
C25   C26   A    
C2    C31   S    
C35   C36   S    
C4    C16   A    
C9    C14   A    
Cu1   Cu2   S    
C30   I4    S    
C20   C39   S    
Cu2   O6    S    
C27   H2    S    
C33   C34   S    
C5    C17   A    
C9    C17   A    
C13   I1    S    
C22   C24   A    
C12   O3    A    
C23   O6    A    
C2    C36   T    
C21   C38   S    
C24   C28   A    
C6    C7    A    
Cu2   O2    S    
C1    C17   S    
C32   C33   T    
C4    C15   A    
O16   H12   S    
C11   C13   A    
C37   O9    D    
C40   O15   D    
C3    C11   A    
C10   C11   A    
C16   H1    S    
O12   H10   S    
Cu1   O7    S    
Cu2   O8    S    
C20   C21   A    
C8    C10   A    
C39   O13   D    
C27   C28   A    
C31   O7    A    
C21   C22   A    
C1    O1    A    
C3    C16   A    
