data_mof_unit_39713.cif
_audit_creation_date              2013-03-05T15:48:51-0500
_audit_creation_method            fapswitch 2.2
_symmetry_space_group_name_H-M    P1
_symmetry_Int_Tables_number       1
_space_group_crystal_system       triclinic
_cell_length_a                    17.477207
_cell_length_b                    24.281519
_cell_length_c                    15.011354
_cell_angle_alpha                 89.947805
_cell_angle_beta                  125.833459
_cell_angle_gamma                 90.022202
_cell_volume                      5164.63416852

loop_
_atom_site_label
_atom_site_type_symbol
_atom_site_description
_atom_site_fract_x
_atom_site_fract_y
_atom_site_fract_z
_atom_type_partial_charge
C1    C     C_R   0.901420 0.876512 0.091813 -0.136330
C2    C     C_R   0.901666 0.123622 0.091934 -0.137965
C3    C     C_R   0.401421 0.376512 0.091814 -0.136332
C4    C     C_R   0.401666 0.623621 0.091934 -0.137968
H1    H     H_    0.930534 0.868620 0.176748 0.088991
H2    H     H_    0.930977 0.131426 0.176918 0.093306
H3    H     H_    0.430537 0.368622 0.176750 0.088990
H4    H     H_    0.430976 0.631425 0.176918 0.093323
N1    N     N_R   0.950530 0.896220 0.057200 -0.037592
N2    N     N_R   0.950530 0.103780 0.057200 -0.038012
N3    N     N_R   0.450530 0.396220 0.057200 -0.037591
N4    N     N_R   0.450530 0.603780 0.057200 -0.038014
C5    C     C_R   0.809373 0.123694 0.907580 -0.137299
C6    C     C_R   0.809284 0.876490 0.907499 -0.132943
C7    C     C_R   0.309373 0.623694 0.907581 -0.137291
C8    C     C_R   0.309284 0.376490 0.907501 -0.132949
H5    H     H_    0.753382 0.131478 0.822469 0.089724
H6    H     H_    0.753366 0.868803 0.822367 0.093359
H7    H     H_    0.253382 0.631478 0.822469 0.089728
H8    H     H_    0.253365 0.368801 0.822369 0.093352
N5    N     N_R   0.893330 0.103780 0.942800 -0.039369
N6    N     N_R   0.893330 0.896220 0.942800 -0.037477
N7    N     N_R   0.393330 0.603780 0.942800 -0.039372
N8    N     N_R   0.393330 0.396220 0.942800 -0.037474
C9    C     C_R   0.744984 0.954226 0.695060 -0.151473
C10   C     C_R   0.744934 0.045839 0.695077 -0.149289
C11   C     C_R   0.244983 0.454226 0.695061 -0.151469
C12   C     C_R   0.244933 0.545839 0.695077 -0.149290
H9    H     H_    0.732424 0.911696 0.669258 0.088101
H10   H     H_    0.732284 0.088396 0.669300 0.084806
H11   H     H_    0.232423 0.411696 0.669259 0.088094
H12   H     H_    0.232284 0.588396 0.669300 0.084816
N9    N     N_R   0.818150 0.971400 0.792440 -0.032075
N10   N     N_R   0.818150 0.028600 0.792440 -0.032217
N11   N     N_R   0.318150 0.471400 0.792440 -0.032074
N12   N     N_R   0.318150 0.528600 0.792440 -0.032219
C13   C     C_R   0.047802 0.045397 0.304136 -0.160568
C14   C     C_R   0.048427 0.953618 0.303338 -0.154416
C15   C     C_R   0.547811 0.545398 0.304140 -0.160554
C16   C     C_R   0.548436 0.453619 0.303344 -0.154414
H13   H     H_    0.060536 0.087718 0.331583 0.097757
H14   H     H_    0.063962 0.911115 0.329458 0.086315
H15   H     H_    0.560541 0.587720 0.331581 0.097779
H16   H     H_    0.563968 0.411116 0.329464 0.086305
N13   N     N_R   0.025710 0.028600 0.207560 -0.033848
N14   N     N_R   0.025710 0.971400 0.207560 -0.033829
N15   N     N_R   0.525710 0.528600 0.207560 -0.033851
N16   N     N_R   0.525710 0.471400 0.207560 -0.033829
C17   C     C_R   0.811875 0.863542 0.999430 -0.004689
C18   C     C_R   0.812145 0.136688 0.999621 -0.002893
C19   C     C_R   0.311877 0.363542 0.999432 -0.004689
C20   C     C_R   0.312145 0.636688 0.999621 -0.002886
C21   C     C_R   0.698520 0.000049 0.631650 -0.006255
C22   C     C_R   0.198519 0.500049 0.631651 -0.006252
C23   C     C_R   0.061411 0.999100 0.365008 0.040874
C24   C     C_R   0.561434 0.499102 0.365021 0.040849
C25   C     C_R   0.267996 0.953846 0.246816 -0.129023
C26   C     C_R   0.267979 0.046173 0.246808 -0.122482
C27   C     C_R   0.767996 0.453846 0.246817 -0.129048
C28   C     C_R   0.767979 0.546173 0.246809 -0.122472
H17   H     H_    0.289084 0.911208 0.262240 0.088676
H18   H     H_    0.289050 0.088808 0.262250 0.087017
H19   H     H_    0.789084 0.411208 0.262241 0.088671
H20   H     H_    0.789050 0.588808 0.262252 0.087017
N17   N     N_R   0.181850 0.971400 0.207560 -0.038135
N18   N     N_R   0.181850 0.028600 0.207560 -0.038219
N19   N     N_R   0.681850 0.471400 0.207560 -0.038134
N20   N     N_R   0.681850 0.528600 0.207560 -0.038218
C29   C     C_R   0.020406 0.046215 0.752547 -0.112313
C30   C     C_R   0.021355 0.953832 0.754052 -0.122838
C31   C     C_R   0.520399 0.546217 0.752540 -0.112245
C32   C     C_R   0.521357 0.453833 0.754051 -0.122906
H21   H     H_    0.025045 0.088786 0.736043 0.150138
H22   H     H_    0.030371 0.911024 0.743399 0.091057
H23   H     H_    0.525025 0.588787 0.736029 0.150164
H24   H     H_    0.530382 0.411026 0.743408 0.091061
N21   N     N_R   0.974290 0.028600 0.792440 -0.053028
N22   N     N_R   0.974290 0.971400 0.792440 -0.045708
N23   N     N_R   0.474290 0.528600 0.792440 -0.053035
N24   N     N_R   0.474290 0.471400 0.792440 -0.045700
C33   C     C_R   0.056419 0.847375 0.908691 -0.137160
C34   C     C_R   0.056750 0.152472 0.908409 -0.102868
C35   C     C_R   0.556419 0.347375 0.908691 -0.137197
C36   C     C_R   0.556749 0.652472 0.908409 -0.102816
H25   H     H_    0.013249 0.834375 0.823879 0.082845
H26   H     H_    0.013886 0.165331 0.823468 0.091232
H27   H     H_    0.513250 0.334375 0.823879 0.082848
H28   H     H_    0.513882 0.665332 0.823468 0.091260
N25   N     N_R   0.049470 0.896220 0.942800 -0.029371
N26   N     N_R   0.049470 0.103780 0.942800 -0.032576
N27   N     N_R   0.549470 0.396220 0.942800 -0.029370
N28   N     N_R   0.549470 0.603780 0.942800 -0.032583
C37   C     C_R   0.148288 0.152581 0.091306 -0.138845
C38   C     C_R   0.148232 0.847387 0.091501 -0.143594
C39   C     C_R   0.648289 0.652581 0.091306 -0.138838
C40   C     C_R   0.648233 0.347388 0.091501 -0.143603
H29   H     H_    0.190600 0.165611 0.176104 0.082881
H30   H     H_    0.190577 0.834394 0.176366 0.083911
H31   H     H_    0.690603 0.665611 0.176104 0.082883
H32   H     H_    0.690577 0.334394 0.176366 0.083902
N29   N     N_R   0.106670 0.103780 0.057200 -0.029932
N30   N     N_R   0.106670 0.896220 0.057200 -0.029689
N31   N     N_R   0.606670 0.603780 0.057200 -0.029934
N32   N     N_R   0.606670 0.396220 0.057200 -0.029688
Ni1   Ni    Ni4+2 0.065600 0.934400 0.131190 0.212143
Ni2   Ni    Ni4+2 0.065600 0.065600 0.131190 0.213800
Ni3   Ni    Ni4+2 0.565600 0.434400 0.131190 0.212129
Ni4   Ni    Ni4+2 0.565600 0.565600 0.131190 0.213805
Ni5   Ni    Ni4+2 0.934400 0.065600 0.868810 0.213085
Ni6   Ni    Ni4+2 0.934400 0.934400 0.868810 0.213409
Ni7   Ni    Ni4+2 0.434400 0.565600 0.868810 0.213102
Ni8   Ni    Ni4+2 0.434400 0.434400 0.868810 0.213405
C41   C     C_R   0.324399 0.000019 0.272740 0.010299
C42   C     C_R   0.824399 0.500019 0.272741 0.010299
C43   C     C_R   0.049033 0.999978 0.724812 0.112038
C44   C     C_R   0.549038 0.499981 0.724815 0.112043
C45   C     C_R   0.116981 0.815621 0.000110 -0.006670
C46   C     C_R   0.117204 0.184255 0.999758 -0.018849
C47   C     C_R   0.616981 0.315621 0.000110 -0.006666
C48   C     C_R   0.617203 0.684255 0.999757 -0.018863
C49   C     C_3   0.970727 0.020724 0.433462 -0.363334
C50   C     C_3   0.083431 0.939846 0.514118 -0.401562
C51   C     C_3   0.470733 0.520693 0.433463 -0.363252
C52   C     C_3   0.583531 0.439856 0.514187 -0.401660
H33   H     H_    0.958652 0.063595 0.401323 0.173881
H34   H     H_    0.153706 0.924236 0.540530 0.180950
H35   H     H_    0.458641 0.563569 0.401345 0.173995
H36   H     H_    0.653808 0.424265 0.540572 0.180787
H37   H     H_    0.912241 0.994838 0.366953 0.156195
H38   H     H_    0.028631 0.910995 0.451406 0.150593
H39   H     H_    0.412269 0.494803 0.366935 0.156145
H40   H     H_    0.528743 0.410989 0.451507 0.150651
C53   C     C_3   0.967275 0.020292 0.531912 -0.418761
C54   C     C_3   0.077455 0.940002 0.611425 -0.424435
C55   C     C_3   0.467253 0.520226 0.531892 -0.418600
C56   C     C_3   0.577607 0.440016 0.611535 -0.424505
H41   H     H_    0.909065 0.992478 0.514028 0.164147
H42   H     H_    0.016526 0.913392 0.588271 0.159723
H43   H     H_    0.409108 0.492352 0.514015 0.164126
H44   H     H_    0.516754 0.413353 0.588456 0.159729
H45   H     H_    0.947369 0.061892 0.542446 0.199190
H46   H     H_    0.141828 0.920907 0.684401 0.197423
H47   H     H_    0.447227 0.561801 0.542376 0.199148
H48   H     H_    0.642042 0.420980 0.684533 0.197369
H49   H     H_    0.136306 0.078962 0.522983 0.185448
H50   H     H_    0.214802 0.023476 0.570985 0.198326
H51   H     H_    0.636303 0.578981 0.522933 0.185433
H52   H     H_    0.714804 0.523493 0.571014 0.198347
C57   C     C_3   0.147283 0.036445 0.555826 -0.552257
C58   C     C_3   0.647276 0.536474 0.555817 -0.552194
C59   C     C_3   0.066972 0.998826 0.466182 0.314744
C60   C     C_3   0.567001 0.498829 0.466200 0.314672
C61   C     C_3   0.062804 0.999955 0.636520 0.114498
C62   C     C_3   0.562824 0.499960 0.636534 0.114445
C63   C     C_3   0.149444 0.036114 0.662318 0.592063
C64   C     C_3   0.649393 0.536182 0.662282 0.592035
C65   C     C_3   0.650692 0.179318 0.896411 -0.394865
C66   C     C_3   0.650783 0.820397 0.895311 -0.392236
C67   C     C_3   0.150691 0.679317 0.896413 -0.394847
C68   C     C_3   0.150780 0.320404 0.895326 -0.392251
H53   H     H_    0.646126 0.180558 0.819509 0.144235
H54   H     H_    0.646928 0.819107 0.818874 0.153393
H55   H     H_    0.146123 0.680555 0.819509 0.144240
H56   H     H_    0.146913 0.319115 0.818881 0.153380
H57   H     H_    0.616343 0.140546 0.895633 0.168126
H58   H     H_    0.615684 0.859018 0.893583 0.165519
H59   H     H_    0.116343 0.640546 0.895638 0.168145
H60   H     H_    0.115693 0.359028 0.893612 0.165494
C69   C     C_3   0.096702 0.729410 0.896226 -0.397318
C70   C     C_3   0.097083 0.270091 0.894919 -0.399707
C71   C     C_3   0.596702 0.229410 0.896226 -0.397332
C72   C     C_3   0.597092 0.770081 0.894898 -0.399677
H61   H     H_    0.535030 0.215432 0.894144 0.168261
H62   H     H_    0.534501 0.783767 0.891140 0.158939
H63   H     H_    0.035029 0.715433 0.894144 0.168272
H64   H     H_    0.034511 0.283783 0.891196 0.158920
H65   H     H_    0.069375 0.753252 0.819911 0.145992
H66   H     H_    0.071173 0.245983 0.819341 0.168019
H67   H     H_    0.569375 0.253253 0.819911 0.145985
H68   H     H_    0.571212 0.745965 0.819337 0.168079
H69   H     H_    0.301837 0.738165 0.926455 0.157431
H70   H     H_    0.303031 0.261859 0.928044 0.175251
H71   H     H_    0.801842 0.238166 0.926460 0.157410
H72   H     H_    0.803044 0.761852 0.928070 0.175274
H73   H     H_    0.223005 0.811063 0.927454 0.163639
H74   H     H_    0.225178 0.188735 0.930125 0.217546
H75   H     H_    0.723006 0.311062 0.927453 0.163598
H76   H     H_    0.725222 0.688723 0.930193 0.217595
C73   C     C_3   0.301270 0.735669 0.000171 -0.396171
C74   C     C_3   0.301949 0.264575 0.001381 -0.397141
C75   C     C_3   0.801272 0.235669 0.000174 -0.396177
C76   C     C_3   0.801959 0.764576 0.001404 -0.397127
C77   C     C_3   0.753919 0.178916 0.102536 -0.395699
C78   C     C_3   0.752553 0.821473 0.101407 -0.397098
C79   C     C_3   0.253921 0.678916 0.102538 -0.395680
C80   C     C_3   0.252573 0.321466 0.101423 -0.397106
C81   C     C_3   0.754874 0.181068 0.999658 0.385072
C82   C     C_3   0.754648 0.819085 0.999357 0.380398
C83   C     C_3   0.254874 0.681067 0.999658 0.385027
C84   C     C_3   0.254650 0.319084 0.999359 0.380425
H77   H     H_    0.826519 0.180072 0.179715 0.150194
H78   H     H_    0.824886 0.820520 0.179061 0.143692
H79   H     H_    0.326521 0.680074 0.179716 0.150218
H80   H     H_    0.324911 0.320512 0.179070 0.143685
H81   H     H_    0.720319 0.140044 0.102814 0.161443
H82   H     H_    0.718495 0.860341 0.100697 0.160281
H83   H     H_    0.220323 0.640044 0.102819 0.161450
H84   H     H_    0.218516 0.360331 0.100725 0.160276
C85   C     C_3   0.163371 0.765280 0.999973 0.382817
C86   C     C_3   0.163398 0.234697 0.999639 0.367906
C87   C     C_3   0.663371 0.265280 0.999973 0.382874
C88   C     C_3   0.663397 0.734698 0.999639 0.367887
C89   C     C_3   0.247885 0.784879 0.000717 -0.378789
C90   C     C_3   0.248948 0.215288 0.002425 -0.354089
C91   C     C_3   0.747885 0.284879 0.000717 -0.378837
C92   C     C_3   0.748967 0.715289 0.002467 -0.354114
C93   C     C_3   0.199835 0.728852 0.102755 -0.400762
C94   C     C_3   0.198306 0.271514 0.101415 -0.399693
C95   C     C_3   0.699835 0.228852 0.102754 -0.400780
C96   C     C_3   0.698274 0.771526 0.101393 -0.399680
H85   H     H_    0.639610 0.214683 0.103412 0.160106
H86   H     H_    0.637235 0.785696 0.100394 0.158624
H87   H     H_    0.139609 0.714682 0.103411 0.160114
H88   H     H_    0.137282 0.285680 0.100453 0.158605
H89   H     H_    0.248671 0.752330 0.179695 0.148721
H90   H     H_    0.246608 0.248353 0.179026 0.145049
H91   H     H_    0.748672 0.252330 0.179695 0.148707
H92   H     H_    0.746560 0.748371 0.179017 0.145047
H93   H     H_    0.376022 0.737769 0.073858 0.157245
H94   H     H_    0.376570 0.262810 0.075436 0.155461
H95   H     H_    0.876023 0.237769 0.073863 0.157236
H96   H     H_    0.876580 0.762818 0.075461 0.155456
H97   H     H_    0.296786 0.810388 0.074960 0.159511
H98   H     H_    0.297737 0.190240 0.077538 0.156020
H99   H     H_    0.796786 0.310389 0.074959 0.159501
H100  H     H_    0.797755 0.690255 0.077602 0.156002
C97   C     C_3   0.476896 0.948387 0.358510 -0.392470
C98   C     C_3   0.476838 0.051694 0.358362 -0.391408
C99   C     C_3   0.976896 0.448388 0.358511 -0.392479
C100  C     C_3   0.976838 0.551695 0.358364 -0.391414
H101  H     H_    0.443958 0.909761 0.360524 0.145885
H102  H     H_    0.443896 0.090304 0.360351 0.143422
H103  H     H_    0.943958 0.409761 0.360524 0.145875
H104  H     H_    0.943895 0.590304 0.360353 0.143426
H105  H     H_    0.472398 0.948163 0.281442 0.166752
H106  H     H_    0.472277 0.051968 0.281253 0.169208
H107  H     H_    0.972398 0.448164 0.281442 0.166741
H108  H     H_    0.972276 0.551968 0.281255 0.169212
C101  C     C_3   0.580886 0.948275 0.458911 -0.407015
C102  C     C_3   0.580860 0.051797 0.458704 -0.408094
C103  C     C_3   0.080886 0.448275 0.458912 -0.407017
C104  C     C_3   0.080860 0.551798 0.458705 -0.408087
H109  H     H_    0.627858 0.947561 0.431532 0.155421
H110  H     H_    0.627780 0.052464 0.431248 0.157091
H111  H     H_    0.127858 0.447562 0.431532 0.155420
H112  H     H_    0.127779 0.552465 0.431250 0.157099
H113  H     H_    0.593689 0.909875 0.506067 0.150179
H114  H     H_    0.593727 0.090212 0.505727 0.146475
H115  H     H_    0.093689 0.409875 0.506067 0.150169
H116  H     H_    0.093726 0.590212 0.505729 0.146481
H117  H     H_    0.398458 0.963046 0.474589 0.160501
H118  H     H_    0.398329 0.036923 0.474445 0.159455
H119  H     H_    0.898458 0.463045 0.474589 0.160479
H120  H     H_    0.898328 0.536922 0.474446 0.159465
H121  H     H_    0.550682 0.963110 0.620600 0.159581
H122  H     H_    0.550589 0.037048 0.620347 0.158545
H123  H     H_    0.050682 0.463109 0.620600 0.159569
H124  H     H_    0.050589 0.537047 0.620349 0.158555
C105  C     C_3   0.433963 0.000010 0.470298 -0.391121
C106  C     C_3   0.933963 0.500009 0.470299 -0.391130
C107  C     C_3   0.426072 0.000027 0.361807 0.376267
C108  C     C_3   0.926072 0.500027 0.361809 0.376282
C109  C     C_3   0.601838 0.000047 0.530768 0.393213
C110  C     C_3   0.101838 0.500047 0.530769 0.393213
C111  C     C_3   0.536775 0.000057 0.569027 -0.380259
C112  C     C_3   0.036775 0.500057 0.569028 -0.380260
N33   N     N_R   0.143245 0.093765 0.689582 0.200968
O1    O     O_R   0.209990 0.114876 0.783905 -0.392172
O2    O     O_R   0.076826 0.126385 0.615764 -0.481246
N34   N     N_R   0.238060 0.011267 0.757238 0.229467
O3    O     O_R   0.301736 0.990335 0.748068 -0.431821
O4    O     O_R   0.252064 0.008061 0.852371 -0.384850
N35   N     N_R   0.643033 0.593841 0.689376 0.200975
O5    O     O_R   0.576541 0.626392 0.615449 -0.481195
O6    O     O_R   0.709709 0.615029 0.783652 -0.392266
N36   N     N_R   0.738064 0.511428 0.757298 0.229480
O7    O     O_R   0.752018 0.508230 0.852407 -0.384902
O8    O     O_R   0.801914 0.490661 0.748290 -0.431702

loop_
_geom_bond_atom_site_label_1
_geom_bond_atom_site_label_2
_geom_bond_distance
_ccdc_geom_bond_type
C44   C62   1.479225 S    
C102  H110  1.112772 S    
C35   H27   1.079647 S    
H124  C112  1.114377 S    
C95   H91   1.110885 S    
C53   H41   1.114990 S    
C37   H29   1.079672 S    
N25   N30   1.392264 A    
N35   O6    1.302058 A    
C101  C109  1.554852 S    
C6    H6    1.077533 S    
C40   C47   1.378290 A    
C29   N21   1.324974 A    
N11   N12   1.388903 A    
N8    Ni8   1.881324 S    
C8    C19   1.389731 A    
N27   N32   1.392264 A    
C4    H4    1.077505 S    
C97   C101  1.538656 S    
C64   N36   1.486061 S    
H76   C92   1.113247 S    
C11   C22   1.377403 A    
C74   C84   1.551619 S    
C87   C95   1.554258 S    
C68   C84   1.554327 S    
C68   C70   1.538066 S    
C70   H64   1.112771 S    
N13   N14   1.388903 A    
N17   N18   1.388903 A    
C101  H109  1.112766 S    
C54   H46   1.112305 S    
C71   H61   1.112773 S    
N4    N7    1.392264 A    
C75   C81   1.551523 S    
C46   C86   1.467263 S    
C55   C62   1.557789 S    
C99   C108  1.554384 S    
C70   H66   1.111021 S    
C1    H1    1.077619 S    
C68   H56   1.109800 S    
C50   H38   1.113224 S    
C8    H8    1.077536 S    
C9    C21   1.377403 A    
C14   H14   1.080466 S    
C3    H3    1.077617 S    
C57   C59   1.550835 S    
C76   H96   1.113973 S    
N36   O7    1.302305 A    
C38   C45   1.378289 A    
C39   H31   1.079673 S    
N1    N6    1.392264 A    
N9    Ni6   1.876618 S    
C6    C17   1.389726 A    
C30   N22   1.321513 A    
C87   C91   1.545465 S    
C38   H30   1.079685 S    
N1    Ni1   1.876881 S    
C52   H36   1.113227 S    
C78   H78   1.109983 S    
N14   Ni1   1.882984 S    
C33   C45   1.376982 A    
N3    N8    1.392264 A    
C100  H104  1.109887 S    
C32   N24   1.321535 A    
C27   N19   1.325501 A    
C94   H90   1.110801 S    
C96   H92   1.110797 S    
N30   Ni1   1.882594 S    
C99   H107  1.112735 S    
C102  C109  1.554715 S    
C35   C47   1.376983 A    
C25   H17   1.077629 S    
C16   N16   1.319811 A    
C50   C54   1.524221 S    
C2    C18   1.389203 A    
N28   N31   1.392264 A    
C103  H115  1.110882 S    
C28   C42   1.389397 A    
C56   H44   1.112985 S    
C10   N10   1.326005 A    
H119  C106  1.114010 S    
C29   C43   1.389010 A    
C14   C23   1.372532 A    
C88   C92   1.544890 S    
C37   N29   1.326557 A    
C39   N31   1.326561 A    
C72   H62   1.112768 S    
C16   C24   1.372543 A    
C67   C83   1.554067 S    
C70   C86   1.555032 S    
C30   H22   1.077394 S    
C26   C41   1.389398 A    
H72   C76   1.114076 S    
C29   H21   1.076760 S    
N31   Ni4   1.881322 S    
C50   C59   1.551643 S    
C76   C82   1.551618 S    
C4    N4    1.324925 A    
C49   H37   1.114654 S    
C62   C64   1.589647 S    
N33   O2    1.302218 A    
C32   H24   1.077387 S    
C104  H112  1.112773 S    
C75   C91   1.519270 S    
C41   C107  1.470873 S    
C72   H68   1.111023 S    
C34   H26   1.079613 S    
C7    N7    1.325956 A    
C52   C60   1.551641 S    
C8    N8    1.325330 A    
C58   C64   1.576817 S    
N33   O1    1.302026 A    
C43   C61   1.479202 S    
C13   H13   1.080985 S    
C10   H10   1.079671 S    
C71   H67   1.110867 S    
C56   C62   1.562369 S    
C2    H2    1.077505 S    
H69   C73   1.114015 S    
C48   C88   1.467266 S    
N18   Ni2   1.876617 S    
C89   H97   1.114355 S    
C69   H65   1.110869 S    
C18   C81   1.471252 S    
C26   N18   1.325398 A    
H70   C74   1.114077 S    
C79   C83   1.555009 S    
C17   C82   1.470905 S    
N19   Ni3   1.876863 S    
N2    N5    1.392264 A    
C9    H9    1.079658 S    
C78   H82   1.112708 S    
H75   C91   1.114378 S    
H123  C112  1.114380 S    
C31   H23   1.076749 S    
C77   H81   1.112722 S    
C105  C111  1.518936 S    
C99   C103  1.538655 S    
N19   N20   1.388903 A    
N15   N16   1.388903 A    
C106  C112  1.518936 S    
C12   H12   1.079671 S    
H51   C58   1.110916 S    
C1    N1    1.325536 A    
N34   O3    1.302204 A    
N22   Ni6   1.881728 S    
C65   H57   1.112736 S    
C80   C84   1.554767 S    
N4    Ni4   1.876650 S    
C3    C19   1.389542 A    
C97   H105  1.112733 S    
C52   C56   1.524270 S    
C15   H15   1.080983 S    
C88   C96   1.554435 S    
C11   N11   1.325890 A    
N34   O4    1.302282 A    
C11   H11   1.079657 S    
N25   Ni6   1.876651 S    
C85   C89   1.545466 S    
C31   N23   1.324966 A    
C49   C59   1.544761 S    
C103  C110  1.554853 S    
C51   C55   1.513995 S    
C74   H94   1.113975 S    
C33   H25   1.079647 S    
N27   Ni8   1.876651 S    
C50   H34   1.113229 S    
C65   C81   1.554066 S    
C7    H7    1.077730 S    
C5    C18   1.390422 A    
N26   N29   1.392264 A    
C49   H33   1.113986 S    
C63   N34   1.486009 S    
C58   C60   1.550818 S    
C22   C110  1.467099 S    
C95   H85   1.112767 S    
H50   C57   1.108688 S    
C71   C87   1.555217 S    
C80   H80   1.109982 S    
C5    H5    1.077730 S    
C103  H111  1.112766 S    
C15   C24   1.378096 A    
N6    Ni6   1.881324 S    
C54   C61   1.562352 S    
H122  C111  1.114377 S    
C36   C48   1.377390 A    
C69   C85   1.555218 S    
N24   Ni8   1.881728 S    
N12   Ni7   1.876864 S    
N9    N10   1.388903 A    
C69   H63   1.112774 S    
H121  C111  1.114381 S    
C91   H99   1.114354 S    
C97   C107  1.554384 S    
C20   C83   1.471252 S    
C25   C41   1.389570 A    
C7    C20   1.390421 A    
N21   Ni5   1.882983 S    
C74   C90   1.518770 S    
C28   N20   1.325395 A    
C73   C89   1.519269 S    
C26   H18   1.077615 S    
N11   Ni8   1.876618 S    
H52   C58   1.108681 S    
C75   H95   1.113998 S    
C80   H84   1.112709 S    
C4    C20   1.389203 A    
C100  C104  1.538732 S    
C105  C107  1.551891 S    
N3    Ni3   1.876881 S    
C6    N6    1.325326 A    
C30   C43   1.389054 A    
C106  C108  1.551892 S    
C80   C94   1.539361 S    
N2    Ni2   1.876650 S    
C61   C63   1.589573 S    
C37   C46   1.378221 A    
C34   C46   1.377388 A    
C13   N13   1.327677 A    
C98   C107  1.554534 S    
C2    N2    1.324925 A    
C10   C21   1.377563 A    
C65   H53   1.109956 S    
C51   H35   1.113985 S    
C79   C93   1.538909 S    
C35   N27   1.325742 A    
N13   Ni2   1.881729 S    
C104  H116  1.110881 S    
C15   N15   1.327678 A    
N29   Ni2   1.881322 S    
C77   C95   1.538909 S    
C40   N32   1.326782 A    
C98   H102  1.109889 S    
C51   C60   1.544749 S    
C53   C61   1.557785 S    
H120  C106  1.114013 S    
C67   C69   1.538695 S    
C51   H39   1.114652 S    
C27   H19   1.077629 S    
C78   C96   1.539374 S    
C36   H28   1.079614 S    
C101  H113  1.110882 S    
C72   C88   1.555031 S    
C42   C108  1.470870 S    
C73   C83   1.551523 S    
C54   H42   1.112987 S    
C64   N35   1.480545 S    
N5    Ni5   1.882594 S    
N17   Ni1   1.876863 S    
N28   Ni7   1.876880 S    
C23   C59   1.463986 S    
H71   C75   1.114017 S    
C97   H101  1.109897 S    
C39   C48   1.378219 A    
N7    Ni7   1.882594 S    
C32   C44   1.389076 A    
C47   C87   1.467725 S    
C34   N26   1.325241 A    
N23   Ni7   1.882983 S    
C96   H86   1.112756 S    
C28   H20   1.077614 S    
C55   H43   1.115015 S    
C85   C93   1.554257 S    
C21   C109  1.467102 S    
C100  C108  1.554533 S    
C76   C92   1.518769 S    
C45   C85   1.467726 S    
C57   C63   1.576792 S    
C12   C22   1.377564 A    
C33   N25   1.325743 A    
C56   H48   1.112319 S    
C86   C90   1.544895 S    
C65   C71   1.538696 S    
H118  C105  1.114014 S    
N36   O8    1.301963 A    
C66   C72   1.538053 S    
C78   C82   1.554767 S    
C77   H77   1.109881 S    
C104  C110  1.554715 S    
C52   H40   1.113226 S    
C27   C42   1.389568 A    
C77   C81   1.555008 S    
H74   C90   1.113258 S    
C55   H47   1.109705 S    
N16   Ni3   1.882984 S    
C109  C111  1.545167 S    
C92   H100  1.114348 S    
C67   H59   1.112737 S    
C31   C44   1.389014 A    
C67   H55   1.109954 S    
C94   H88   1.112759 S    
C68   H60   1.112738 S    
C5    N5    1.325954 A    
C73   H93   1.113998 S    
H117  C105  1.114010 S    
N20   Ni4   1.876617 S    
C14   N14   1.319789 A    
C3    N3    1.325528 A    
C19   C84   1.470904 S    
C66   H54   1.109797 S    
C98   H106  1.112735 S    
N23   N24   1.388903 A    
C13   C23   1.378093 A    
C66   H58   1.112738 S    
C16   H16   1.080464 S    
C40   H32   1.079685 S    
C79   H79   1.109881 S    
C66   C82   1.554327 S    
C12   N12   1.326005 A    
C79   H83   1.112722 S    
C63   N33   1.480510 S    
N15   Ni4   1.881729 S    
C93   H89   1.110887 S    
N35   O5    1.302251 A    
C100  H108  1.112734 S    
N10   Ni5   1.876864 S    
H49   C57   1.110919 S    
N21   N22   1.388903 A    
H73   C89   1.114378 S    
C99   H103  1.109896 S    
C53   H45   1.109669 S    
C36   N28   1.325238 A    
N26   Ni5   1.876880 S    
C49   C53   1.514006 S    
C24   C60   1.464015 S    
C1    C17   1.389545 A    
C93   H87   1.112766 S    
C102  H114  1.110881 S    
N32   Ni3   1.882594 S    
C98   C102  1.538735 S    
C86   C94   1.554436 S    
C38   N30   1.326782 A    
C9    N9    1.325890 A    
C90   H98   1.114352 S    
C25   N17   1.325502 A    
C110  C112  1.545168 S    
