data_mof_unit_24008.cif
_audit_creation_date              2012-12-11T15:12:44-0500
_audit_creation_method            fapswitch 2.2
_symmetry_space_group_name_H-M    P1
_symmetry_Int_Tables_number       1
_space_group_crystal_system       triclinic
_cell_length_a                    22.32443
_cell_length_b                    6.943112
_cell_length_c                    19.366243
_cell_angle_alpha                 89.998559
_cell_angle_beta                  99.233882
_cell_angle_gamma                 89.997694
_cell_volume                      2962.88884995

loop_
_atom_site_label
_atom_site_type_symbol
_atom_type_description
_atom_site_fract_x
_atom_site_fract_y
_atom_site_fract_z
_atom_type_partial_charge
O1    O     O_R   0.448420 0.506120 0.415750 -0.535404
O2    O     O_R   0.551580 0.006120 0.584250 -0.535421
O3    O     O_R   0.436490 0.174470 0.555610 -0.536881
O4    O     O_R   0.563510 0.674470 0.444390 -0.536881
C1    C     C_R   0.421099 0.344683 0.575834 0.719013
C2    C     C_R   0.578901 0.844680 0.424166 0.719023
O5    O     O_R   0.441310 0.176330 0.414520 -0.537149
O6    O     O_R   0.558690 0.676330 0.585480 -0.537144
O7    O     O_R   0.556430 0.007110 0.442150 -0.535651
O8    O     O_R   0.443570 0.507110 0.557850 -0.535642
C3    C     C_R   0.426706 0.345094 0.388338 0.695910
C4    C     C_R   0.573294 0.845081 0.611662 0.695894
O9    O     O_3   0.537770 0.339560 0.509230 -0.365544
O10   O     O_3   0.462230 0.839560 0.490770 -0.365532
V1    V     V_3+5 0.492990 0.064280 0.498290 1.425065
V2    V     V_3+5 0.507010 0.564280 0.501710 1.425086
C5    C     C_R   0.864383 0.021164 0.697870 -0.164012
C6    C     C_R   0.135558 0.520400 0.302185 -0.163993
H1    H     H_    0.951663 0.048397 0.761803 0.102600
H2    H     H_    0.048278 0.547630 0.238245 0.102573
H3    H     H_    0.781705 0.021123 0.583596 0.118674
H4    H     H_    0.218214 0.519956 0.416483 0.118666
H5    H     H_    0.881736 0.064285 0.651041 0.107875
H6    H     H_    0.118177 0.563129 0.349038 0.107867
C7    C     C_R   0.884389 0.945173 0.821257 -0.046825
C8    C     C_R   0.115608 0.445093 0.178742 -0.046755
C9    C     C_R   0.589608 0.814520 0.739622 -0.213590
C10   C     C_R   0.410412 0.315067 0.260363 -0.213606
C11   C     C_R   0.623735 0.838889 0.805504 -0.122145
C12   C     C_R   0.376291 0.339735 0.194493 -0.122165
C13   C     C_R   0.684761 0.895770 0.813798 0.182170
C14   C     C_R   0.315252 0.396476 0.186229 0.182138
C15   C     C_R   0.714808 0.906141 0.753807 0.058812
C16   C     C_R   0.285189 0.406334 0.246217 0.058821
C17   C     C_R   0.677397 0.898781 0.686061 0.035035
C18   C     C_R   0.322587 0.398671 0.313963 0.035035
C19   C     C_R   0.779463 0.930038 0.757366 0.080254
C20   C     C_R   0.220526 0.430006 0.242655 0.080261
C21   C     C_R   0.802504 0.980001 0.695408 0.141835
C22   C     C_R   0.197453 0.479482 0.304638 0.141828
C23   C     C_R   0.764054 0.985858 0.631034 -0.204754
C24   C     C_R   0.235889 0.485074 0.369026 -0.204744
C25   C     C_R   0.703066 0.939572 0.626044 -0.183020
C26   C     C_R   0.296892 0.438989 0.374001 -0.182965
C27   C     C_R   0.822734 0.898430 0.818881 -0.229084
C28   C     C_R   0.177281 0.398593 0.181106 -0.229102
C29   C     C_R   0.904500 0.009597 0.760659 -0.165002
C30   C     C_R   0.095458 0.509054 0.239376 -0.165031
C31   C     C_R   0.614630 0.853087 0.679649 -0.083374
C32   C     C_R   0.385368 0.353172 0.320355 -0.083341
H7    H     H_    0.810051 0.835965 0.865273 0.125433
H8    H     H_    0.190001 0.336431 0.134682 0.125390
H9    H     H_    0.542092 0.776244 0.735490 0.112981
H10   H     H_    0.457941 0.276962 0.264479 0.112957
H11   H     H_    0.601152 0.823633 0.850746 0.120901
H12   H     H_    0.398887 0.324870 0.149245 0.120909
H13   H     H_    0.675829 0.939121 0.574469 0.109714
H14   H     H_    0.324120 0.438306 0.425580 0.109628
C33   C     C_3   0.808124 0.749067 0.261853 -0.327999
C34   C     C_3   0.191857 0.249155 0.738117 -0.328001
C35   C     C_3   0.786146 0.103101 0.247791 -0.330889
C36   C     C_3   0.213878 0.603144 0.752241 -0.330893
C37   C     C_3   0.738118 0.085660 0.297574 -0.328099
C38   C     C_3   0.261906 0.585708 0.702459 -0.328102
H15   H     H_    0.782477 0.752910 0.366636 0.137182
H16   H     H_    0.217510 0.253104 0.633336 0.137174
H17   H     H_    0.853441 0.778743 0.293259 0.136259
H18   H     H_    0.146545 0.278930 0.706713 0.136256
H19   H     H_    0.773308 0.222998 0.210168 0.135616
H20   H     H_    0.226728 0.722977 0.789885 0.135622
H21   H     H_    0.831030 0.140119 0.278846 0.136642
H22   H     H_    0.168999 0.640260 0.721190 0.136639
H23   H     H_    0.760160 0.114245 0.352329 0.136660
H24   H     H_    0.239871 0.614394 0.647708 0.136663
H25   H     H_    0.702475 0.197406 0.283662 0.135471
H26   H     H_    0.297563 0.697391 0.716393 0.135477
C39   C     C_1   0.624695 0.854874 0.378702 -0.191064
C40   C     C_1   0.375305 0.354881 0.621298 -0.191061
C41   C     C_3   0.791008 0.912129 0.207380 0.291923
C42   C     C_3   0.208991 0.412126 0.792618 0.291931
C43   C     C_3   0.760046 0.731607 0.311573 -0.328566
C44   C     C_3   0.239936 0.231700 0.688397 -0.328565
C45   C     C_3   0.708738 0.882379 0.292535 0.291265
C46   C     C_3   0.291261 0.382382 0.707465 0.291264
C47   C     C_3   0.679327 0.848285 0.215300 -0.328740
C48   C     C_3   0.320665 0.348147 0.784694 -0.328733
C49   C     C_3   0.727398 0.865618 0.165546 -0.327445
C50   C     C_3   0.272593 0.365478 0.834448 -0.327456
C51   C     C_1   0.662597 0.866216 0.340164 -0.101400
C52   C     C_1   0.337403 0.366223 0.659836 -0.101399
C53   C     C_1   0.837178 0.928254 0.159787 -0.100758
C54   C     C_1   0.162821 0.428247 0.840211 -0.100767
C55   C     C_1   0.875126 0.939562 0.121307 -0.192744
C56   C     C_1   0.124872 0.439555 0.878691 -0.192752
H27   H     H_    0.729189 0.728268 0.136319 0.137217
H28   H     H_    0.270784 0.228092 0.863651 0.137212
H29   H     H_    0.713455 0.980758 0.126267 0.138549
H30   H     H_    0.286549 0.480549 0.873747 0.138548
H31   H     H_    0.658230 0.702720 0.209714 0.136104
H32   H     H_    0.341744 0.202547 0.790256 0.136105
H33   H     H_    0.811498 0.609421 0.234507 0.136118
H34   H     H_    0.188466 0.109477 0.765438 0.136123
H35   H     H_    0.740515 0.583753 0.307804 0.137428
H36   H     H_    0.259449 0.083815 0.692140 0.137436
H37   H     H_    0.642509 0.955243 0.199716 0.136901
H38   H     H_    0.357497 0.455037 0.800299 0.136900
O11   O     O_R   0.056480 0.288780 0.942210 -0.535848
O12   O     O_R   0.943520 0.788780 0.057790 -0.535844
O13   O     O_R   0.058700 0.616820 0.085490 -0.537344
O14   O     O_R   0.941300 0.116820 0.914510 -0.537347
C57   C     C_R   0.073168 0.448666 0.111840 0.694453
C58   C     C_R   0.926833 0.948679 0.888158 0.694454
O15   O     O_R   0.063520 0.618570 0.944410 -0.537162
O16   O     O_R   0.936480 0.118570 0.055590 -0.537164
O17   O     O_R   0.948420 0.787670 0.915740 -0.536656
O18   O     O_R   0.051580 0.287670 0.084260 -0.536649
C59   C     C_R   0.079027 0.449769 0.924093 0.727458
C60   C     C_R   0.920973 0.949771 0.075907 0.727479
O19   O     O_3   0.962260 0.453430 0.990800 -0.366396
O20   O     O_3   0.037740 0.953430 0.009200 -0.366390
V3    V     V_3+5 0.007000 0.728750 0.001710 1.418633
V4    V     V_3+5 0.993000 0.228750 0.998290 1.418636
C61   C     C_3   0.710831 0.973935 0.885114 -0.836100
H39   H     H_    0.729065 0.854705 0.920549 0.203675
H40   H     H_    0.745699 0.085929 0.881855 0.217896
H41   H     H_    0.674970 0.047334 0.909099 0.207913
C62   C     C_3   0.289181 0.475088 0.114978 -0.836069
H42   H     H_    0.271023 0.356045 0.079415 0.203662
H43   H     H_    0.254247 0.586822 0.118316 0.217918
H44   H     H_    0.325024 0.548941 0.091103 0.207944

loop_
_geom_bond_atom_site_label_1
_geom_bond_atom_site_label_2
_ccdc_geom_bond_type
C12   C14   A    
C50   H28   S    
O4    V2    S    
O17   V3    S    
C9    C11   A    
O1    C3    A    
O12   V3    S    
O2    C4    A    
C17   C25   A    
C2    O7    A    
C41   C49   S    
C4    C31   S    
O3    V1    S    
C61   H39   S    
C21   C23   A    
C40   C52   T    
O5    C3    A    
C39   C51   T    
C5    H5    S    
C46   C52   S    
C6    H6    S    
C14   C62   S    
C36   C42   S    
C46   C48   S    
O13   C57   A    
C43   H35   S    
C56   C59   S    
C48   C50   S    
C61   H40   S    
C53   C55   T    
C27   H7    S    
C28   H8    S    
C36   H20   S    
C5    C21   A    
C35   C37   S    
C6    C22   A    
C38   C46   S    
C36   C38   S    
C7    C58   S    
C33   H17   S    
C10   C32   A    
C26   H14   S    
C49   H27   S    
C17   C31   A    
C13   C15   A    
C57   O18   A    
C48   H32   S    
C7    C29   A    
C41   C53   S    
C8    C30   A    
C35   H21   S    
C47   C49   S    
O6    V2    S    
C11   C13   A    
C23   C25   A    
C48   H38   S    
C24   C26   A    
C34   H34   S    
C43   C45   S    
O20   V4    S    
O19   V3    S    
C45   C51   S    
C33   H33   S    
O12   C60   A    
O4    C2    A    
C33   C41   S    
C10   H10   S    
C61   H41   S    
C37   H23   S    
O3    C1    A    
C12   H12   S    
C15   C19   A    
C37   C45   S    
C14   C16   A    
C42   C54   S    
C62   H43   S    
C47   H31   S    
H16   C44   S    
H15   C43   S    
O6    C4    A    
C54   C56   T    
C38   H26   S    
C36   H22   S    
O1    V2    S    
O16   C60   A    
O2    V1    S    
H2    C30   S    
C34   C44   S    
O15   C59   A    
C45   C47   S    
C44   C46   S    
O9    V1    S    
H3    C23   S    
C18   C26   A    
C55   C60   S    
C19   C27   A    
C62   H42   S    
C7    C27   A    
C18   C32   A    
O20   V3    S    
O18   V4    S    
O19   V4    S    
C35   H19   S    
C34   C42   S    
C38   H24   S    
C16   C20   A    
C5    C29   A    
C22   C24   A    
C2    C39   S    
C6    C30   A    
C9    H9    S    
C11   H11   S    
H1    C29   S    
C10   C12   A    
O7    V1    S    
C62   H44   S    
C13   C61   S    
C1    O8    A    
C42   C50   S    
C3    C32   S    
O8    V2    S    
O14   V4    S    
C20   C22   A    
O13   V3    S    
H4    C24   S    
C37   H25   S    
C35   C41   S    
O5    V1    S    
C15   C17   A    
C16   C18   A    
O10   V2    S    
O14   C58   A    
C20   C28   A    
C25   H13   S    
O16   V4    S    
O15   V3    S    
C34   H18   S    
C19   C21   A    
O9    V2    S    
C33   C43   S    
C44   H36   S    
O10   V1    S    
C47   H37   S    
O11   V4    S    
C1    C40   S    
C8    C28   A    
C8    C57   S    
O11   C59   A    
C58   O17   A    
C50   H30   S    
C9    C31   A    
C49   H29   S    
