data_mof_unit_58581.cif
_audit_creation_date              2013-03-05T15:44:46-0500
_audit_creation_method            fapswitch 2.2
_symmetry_space_group_name_H-M    P1
_symmetry_Int_Tables_number       1
_space_group_crystal_system       triclinic
_cell_length_a                    12.950438
_cell_length_b                    13.027696
_cell_length_c                    15.31217
_cell_angle_alpha                 116.430223
_cell_angle_beta                  63.78081
_cell_angle_gamma                 96.84418
_cell_volume                      2065.66433247

loop_
_atom_site_label
_atom_site_type_symbol
_atom_site_description
_atom_site_fract_x
_atom_site_fract_y
_atom_site_fract_z
_atom_type_partial_charge
C1    C     C_R   0.009642 0.834638 0.042666 -0.118620
H1    H     H_    0.049165 0.900572 0.087431 0.092739
N1    N     N_R   0.037310 0.720000 0.995790 -0.050832
C2    C     C_R   0.679648 0.458601 0.220985 0.529563
N2    N     N_R   0.790790 0.446160 0.152010 -0.071984
C3    C     C_R   0.757737 0.518015 0.890041 0.298567
N3    N     N_R   0.824890 0.517960 0.936420 -0.095581
C4    C     C_R   0.962831 0.719404 0.316226 -0.106431
H2    H     H_    0.931477 0.694211 0.380763 0.092227
N4    N     N_R   0.003210 0.648190 0.211380 -0.039115
C5    C     C_R   0.678228 0.419703 0.986425 -0.111380
H3    H     H_    0.634681 0.353321 0.008792 0.173346
N5    N     N_R   0.774330 0.457010 0.995840 -0.071599
C6    C     C_R   0.044882 0.819500 0.221048 -0.131766
H4    H     H_    0.088348 0.886250 0.199598 0.088923
N6    N     N_R   0.053760 0.709140 0.151960 -0.041685
C7    C     C_R   0.781282 0.542487 0.316253 -0.192931
H5    H     H_    0.807162 0.577623 0.380564 0.124169
N7    N     N_R   0.853860 0.498840 0.211410 -0.064959
C8    C     C_R   0.903773 0.748737 0.952932 -0.075463
H6    H     H_    0.838488 0.733732 0.924160 0.143002
N8    N     N_R   0.974240 0.667310 0.936390 -0.036134
C9    C     C_R   0.921557 0.854302 0.021908 0.096185
C10   C     C_R   0.669712 0.526671 0.325510 -0.124150
C11   C     C_R   0.664714 0.456462 0.920265 -0.039393
C12   C     C_R   0.978268 0.829085 0.324467 0.038618
C13   C     C_R   0.338705 0.512934 0.947865 -0.186396
H7    H     H_    0.396986 0.548298 0.894333 0.134548
N9    N     N_R   0.225670 0.542990 0.004160 -0.073830
C14   C     C_R   0.904887 0.200468 0.791763 -0.134587
H8    H     H_    0.847859 0.146430 0.825224 0.094003
N10   N     N_R   0.946240 0.290860 0.848040 -0.047622
C15   C     C_R   0.197846 0.512096 0.696400 -0.085115
H9    H     H_    0.161257 0.489638 0.639717 0.119938
N11   N     N_R   0.146140 0.501160 0.788590 -0.038617
C16   C     C_R   0.057209 0.251143 0.080869 -0.092655
H10   H     H_    0.089443 0.266639 0.139030 0.173357
N12   N     N_R   0.025760 0.332690 0.063610 -0.050455
C17   C     C_R   0.964170 0.167700 0.979335 -0.090806
H11   H     H_    0.918256 0.107209 0.937050 0.101771
N13   N     N_R   0.962690 0.280000 0.004210 -0.053567
C18   C     C_R   0.296593 0.598467 0.793552 -0.131161
H12   H     H_    0.347627 0.659004 0.829059 0.096782
N14   N     N_R   0.209210 0.553840 0.847990 -0.044961
C19   C     C_R   0.260399 0.419498 0.050421 0.522368
N15   N     N_R   0.175110 0.482040 0.063580 -0.073827
C20   C     C_R   0.988912 0.299309 0.695496 -0.090911
H13   H     H_    0.011663 0.336248 0.639484 0.130905
N16   N     N_R   0.996790 0.351810 0.788620 -0.042202
Ni1   Ni    Ni4+2 0.130310 0.630310 0.999970 0.207089
Ni2   Ni    Ni4+2 0.869690 0.369690 0.000030 0.224211
Ni3   Ni    Ni4+2 0.985640 0.509470 0.863740 0.277249
Ni4   Ni    Ni4+2 0.014360 0.490530 0.136260 0.243694
C21   C     C_R   0.364038 0.432295 0.973086 -0.015266
C22   C     C_R   0.928114 0.205319 0.696493 0.023957
C23   C     C_R   0.291657 0.574684 0.698511 0.027363
C24   C     C_R   0.024010 0.145408 0.026047 0.027853
C25   C     C_R   0.953535 0.041033 0.421184 -0.174670
H14   H     H_    0.994517 0.048991 0.346078 0.108294
C26   C     C_R   0.934667 0.137922 0.516356 -0.152343
H15   H     H_    0.963581 0.217194 0.511235 0.122994
C27   C     C_R   0.894881 0.126715 0.612673 0.143434
C28   C     C_R   0.847079 0.026406 0.617939 -0.159025
H16   H     H_    0.807782 0.017664 0.692629 0.114065
C29   C     C_R   0.865050 0.929762 0.522943 -0.162476
H17   H     H_    0.836040 0.850489 0.528058 0.113539
C30   C     C_R   0.930434 0.934483 0.423670 0.143636
C31   C     C_R   0.573628 0.628393 0.525290 -0.131889
H18   H     H_    0.654933 0.646970 0.530008 0.117173
C32   C     C_R   0.477476 0.645608 0.619959 -0.163559
H19   H     H_    0.490215 0.674319 0.692109 0.123780
C33   C     C_R   0.372943 0.608492 0.616164 0.137751
C34   C     C_R   0.358729 0.582134 0.523202 -0.166405
H20   H     H_    0.276307 0.562220 0.520648 0.127676
C35   C     C_R   0.455185 0.568873 0.428542 -0.194065
H21   H     H_    0.443958 0.544849 0.356258 0.158560
C36   C     C_R   0.564919 0.576461 0.426979 0.154031
C37   C     C_2   0.479591 0.386666 0.938933 -0.198616
H22   H     H_    0.487538 0.336038 0.975792 0.125869
C38   C     C_2   0.571388 0.431128 0.887722 -0.105401
H23   H     H_    0.565703 0.473921 0.843596 0.181084
C39   C     C_2   0.846946 0.961861 0.074896 -0.211545
H24   H     H_    0.794758 0.969759 0.038538 0.143459
C40   C     C_2   0.834045 0.046600 0.170737 -0.114813
H25   H     H_    0.880476 0.042353 0.213385 0.124866
O1    O     O_3   0.246675 0.372533 0.118970 -0.796620
H26   H     H_    0.320742 0.331077 0.094134 0.309547
O2    O     O_3   0.598996 0.393516 0.191091 -0.804495
H27   H     H_    0.546278 0.374945 0.251402 0.310515
N17   N     N_R   0.797765 0.543017 0.798484 0.217206
O3    O     O_R   0.724999 0.572064 0.774175 -0.443493
O4    O     O_R   0.907628 0.546891 0.744469 -0.456487

loop_
_geom_bond_atom_site_label_1
_geom_bond_atom_site_label_2
_geom_bond_distance
_ccdc_geom_bond_type
C4    H2    1.073091 S    
C28   C29   1.376791 A    
C9    C39   1.474216 S    
C13   N9    1.326793 A    
C11   C38   1.452126 S    
C4    C12   1.375255 A    
C34   H20   1.081683 S    
C13   C21   1.384085 A    
C20   N16   1.324836 A    
C19   N15   1.340201 A    
C12   C30   1.446033 S    
C20   C22   1.376860 A    
C16   H10   1.075389 S    
N6    Ni1   1.878853 S    
N3    Ni3   1.866208 S    
C14   H8    1.079995 S    
C2    C10   1.395086 A    
C37   C38   1.334241 D    
C3    C11   1.384196 A    
C5    C11   1.376491 A    
C25   C26   1.377684 A    
C17   C24   1.387383 A    
C22   C27   1.447115 S    
C26   C27   1.401493 A    
C1    H1    1.072728 S    
N4    Ni4   1.839392 S    
C18   C23   1.376227 A    
N5    Ni2   1.814696 S    
C31   H18   1.078608 S    
C29   C30   1.401763 A    
C32   H19   1.079874 S    
C33   C34   1.399767 A    
O2    H27   0.989895 S    
N7    Ni4   1.866953 S    
C15   C23   1.384565 A    
C34   C35   1.385563 A    
C18   N14   1.324595 A    
N1    Ni1   1.813846 S    
C15   H9    1.080616 S    
N9    Ni1   1.814697 S    
C7    C10   1.387187 A    
C40   H25   1.085431 S    
N12   N13   1.390180 A    
C17   N13   1.337912 A    
C16   C24   1.391174 A    
C17   H11   1.080774 S    
O1    H26   0.987255 S    
C2    N2    1.331693 A    
C23   C33   1.450194 S    
C25   H14   1.081078 S    
C3    N17   1.436778 S    
C39   H24   1.085057 S    
C26   H15   1.080224 S    
C1    N1    1.349087 A    
C35   H21   1.080350 S    
N10   Ni2   1.878854 S    
C27   C28   1.397983 A    
C10   C36   1.458084 S    
N17   O4    1.300446 A    
C20   H13   1.079049 S    
C8    C9    1.380683 A    
N16   Ni3   1.839392 S    
C7    H5    1.070221 S    
C6    C12   1.382040 A    
N11   N14   1.390163 A    
C35   C36   1.403010 A    
N2    N7    1.390163 A    
C31   C32   1.372709 A    
C8    N8    1.345196 A    
C19   C21   1.396239 A    
C1    C9    1.389403 A    
C39   C40   1.336171 D    
C6    N6    1.333184 A    
C18   H12   1.079789 S    
C13   H7    1.077244 S    
N8    Ni3   1.838076 S    
N14   Ni1   1.878775 S    
C31   C36   1.400613 A    
C37   H22   1.078443 S    
C38   H23   1.077883 S    
C5    H3    1.077027 S    
C3    N3    1.344227 A    
C2    O2    1.373061 S    
C14   C22   1.382886 A    
N9    N15   1.371083 A    
C16   N12   1.346304 A    
C19   O1    1.374273 S    
N4    N6    1.371070 A    
C14   N10   1.330487 A    
C5    N5    1.325869 A    
C15   N11   1.335084 A    
N17   O3    1.300046 A    
N12   Ni4   1.838074 S    
N15   Ni4   1.866207 S    
C7    N7    1.328701 A    
N10   N16   1.371067 A    
C28   H16   1.080647 S    
C25   C30   1.398484 A    
N3    N5    1.371082 A    
C8    H6    1.077117 S    
C4    N4    1.326449 A    
C29   H17   1.080452 S    
N11   Ni3   1.866951 S    
C6    H4    1.074785 S    
N2    Ni2   1.878775 S    
N1    N8    1.390180 A    
C32   C33   1.399395 A    
N13   Ni2   1.813848 S    
C21   C37   1.452585 S    
