data_mof_unit_30483.cif
_audit_creation_date              2012-10-26T19:27:15-0400
_audit_creation_method            fapswitch 2.2
_symmetry_space_group_name_H-M    P1
_symmetry_Int_Tables_number       1
_space_group_crystal_system       triclinic
_cell_length_a                    13.879381
_cell_length_b                    14.964283
_cell_length_c                    16.28129
_cell_angle_alpha                 90.621694
_cell_angle_beta                  84.587546
_cell_angle_gamma                 89.016383
_cell_volume                      3365.70543499

loop_
_atom_site_label
_atom_site_type_symbol
_atom_type_description
_atom_site_fract_x
_atom_site_fract_y
_atom_site_fract_z
_atom_type_partial_charge
C1    C     C_R   0.499662 0.670517 0.496173 0.597721
C2    C     C_R   0.448819 0.907105 0.558600 -0.017947
C3    C     C_R   0.482318 0.046594 0.487861 -0.068039
C4    C     C_R   0.482760 0.952416 0.486249 -0.067033
C5    C     C_R   0.441068 0.094275 0.558957 -0.007195
C6    C     C_R   0.516544 0.904015 0.412873 0.005668
C7    C     C_R   0.554220 0.045205 0.346096 -0.077805
C8    C     C_R   0.398659 0.954279 0.624476 -0.068799
C9    C     C_R   0.541196 0.953257 0.339612 0.269369
C10   C     C_R   0.388101 0.046803 0.622639 0.248686
C11   C     C_R   0.198982 0.576641 0.516952 0.419103
C12   C     C_R   0.500670 0.328976 0.498420 0.605262
C13   C     C_R   0.799771 0.422414 0.485030 0.412937
C14   C     C_R   0.209820 0.426044 0.470700 0.406816
C15   C     C_R   0.789863 0.573560 0.530192 0.373652
C16   C     C_R   0.485426 0.502824 0.653843 0.586189
C17   C     C_R   0.514843 0.499632 0.346237 0.555056
C18   C     C_R   0.107014 0.425963 0.467444 -0.043451
C19   C     C_R   0.892175 0.570395 0.537581 -0.062436
C20   C     C_R   0.050873 0.497964 0.501753 -0.073627
C21   C     C_R   0.948453 0.499670 0.500331 -0.078390
C22   C     C_R   0.097527 0.569171 0.536431 0.038883
C23   C     C_R   0.456251 0.186940 0.564189 0.249800
C24   C     C_R   0.901540 0.428080 0.466292 0.015207
C25   C     C_R   0.059385 0.355204 0.431165 -0.102537
C26   C     C_R   0.938995 0.634311 0.583251 -0.121972
C27   C     C_R   0.957406 0.355922 0.428963 0.314703
C28   C     C_R   0.040974 0.635134 0.582612 0.324513
C29   C     C_R   0.473551 0.517934 0.746739 -0.079421
C30   C     C_R   0.529923 0.507845 0.253277 -0.071181
C31   C     C_R   0.554171 0.505542 0.793019 0.204502
C32   C     C_R   0.450116 0.514273 0.205331 0.222489
C33   C     C_R   0.548455 0.531231 0.877684 0.199450
C34   C     C_R   0.524937 0.809554 0.417110 0.200470
C35   C     C_R   0.465884 0.536960 0.120414 0.200095
C36   C     C_R   0.474639 0.591051 0.909473 0.016608
C37   C     C_R   0.552704 0.578120 0.091091 0.019602
C38   C     C_R   0.390170 0.597697 0.867013 0.243643
C39   C     C_R   0.634652 0.563242 0.135463 0.264180
C40   C     C_R   0.386339 0.554250 0.789547 0.166740
C41   C     C_R   0.624481 0.518470 0.211657 0.199789
C42   C     C_2   0.494771 0.664654 0.969230 0.309949
C43   C     C_2   0.551834 0.656455 0.033866 0.324590
C44   C     C_3   0.711850 0.529985 0.747123 -0.061298
C45   C     C_R   0.499860 0.231997 0.495751 0.050101
C46   C     C_3   0.289276 0.559662 0.228091 -0.042866
C47   C     C_3   0.277995 0.344834 0.358883 -0.095402
C48   C     C_3   0.760199 0.726353 0.525115 -0.128055
C49   C     C_3   0.950622 0.204955 0.391253 -0.033482
C50   C     C_3   0.047372 0.713516 0.705293 -0.058366
C51   C     C_3   0.659420 0.772206 0.006040 -0.028181
C52   C     C_3   0.415459 0.800105 0.002917 -0.035812
C53   C     C_3   0.261702 0.627737 0.963518 -0.041773
C54   C     C_3   0.768609 0.567185 0.040776 -0.043659
C55   C     C_3   0.382854 0.433420 0.053940 -0.123928
C56   C     C_R   0.497435 0.766863 0.492163 0.018759
C57   C     C_3   0.629178 0.412659 0.930206 -0.104658
C58   C     C_3   0.515400 0.218546 0.686398 -0.057321
C59   C     C_3   0.655119 0.744720 0.340890 -0.033392
C60   C     C_3   0.521217 0.250463 0.296663 -0.093788
C61   C     C_3   0.509754 0.764131 0.683671 -0.139584
C62   C     C_R   0.533530 0.186050 0.422920 0.237426
C63   C     C_R   0.461469 0.814738 0.562839 0.251951
C64   C     C_R   0.525117 0.092664 0.419048 -0.027855
Cu1   Cu    Cu3+1 0.402580 0.500010 0.500000 1.196789
Cu2   Cu    Cu3+1 0.597420 0.499990 0.500000 1.153846
H1    H     H_    0.101403 0.299559 0.403683 0.127867
H2    H     H_    0.232455 0.559399 0.280780 0.164613
H3    H     H_    0.327739 0.725747 0.366747 0.373957
H4    H     H_    0.716126 0.325119 0.671713 0.356931
H5    H     H_    0.353573 0.361758 0.339841 0.175202
H6    H     H_    0.228949 0.388174 0.325374 0.116372
H7    H     H_    0.268255 0.274795 0.338695 0.111547
H8    H     H_    0.794046 0.771714 0.567794 0.118794
H9    H     H_    0.808226 0.718476 0.466460 0.118971
H10   H     H_    0.693553 0.762231 0.511161 0.118306
H11   H     H_    0.972533 0.190229 0.453843 0.158433
H12   H     H_    0.896941 0.683778 0.619975 0.119504
H13   H     H_    0.012600 0.195588 0.343408 0.099873
H14   H     H_    0.895363 0.155474 0.377979 0.179551
H15   H     H_    0.028436 0.648867 0.735564 0.136984
H16   H     H_    0.983404 0.759439 0.708627 0.095877
H17   H     H_    0.101982 0.745495 0.740955 0.182897
H18   H     H_    0.840677 0.531112 0.322389 0.353349
H19   H     H_    0.275494 0.689227 0.703621 0.385795
H20   H     H_    0.672098 0.735276 0.946016 0.081252
H21   H     H_    0.729858 0.776742 0.032713 0.165021
H22   H     H_    0.634887 0.841257 0.993573 0.142460
H23   H     H_    0.582435 0.080370 0.291652 0.195491
H24   H     H_    0.394209 0.763714 0.061072 0.132519
H25   H     H_    0.348149 0.822178 0.976770 0.158764
H26   H     H_    0.454669 0.860896 0.018823 0.151155
H27   H     H_    0.294589 0.647164 0.020190 0.139555
H28   H     H_    0.249794 0.554363 0.961452 0.155000
H29   H     H_    0.189331 0.660923 0.967121 0.142978
H30   H     H_    0.761254 0.493400 0.037099 0.156240
H31   H     H_    0.847053 0.580662 0.039554 0.146943
H32   H     H_    0.742966 0.599251 0.985795 0.133592
H33   H     H_    0.338773 0.402914 0.106446 0.162299
H34   H     H_    0.363440 0.918623 0.676207 0.211346
H35   H     H_    0.453293 0.396616 0.042099 0.111187
H36   H     H_    0.343645 0.424696 0.998226 0.137569
H37   H     H_    0.691706 0.388776 0.887651 0.172270
H38   H     H_    0.562872 0.376447 0.916277 0.117383
H39   H     H_    0.643688 0.394064 0.993675 0.116509
H40   H     H_    0.587062 0.220022 0.649805 0.142080
H41   H     H_    0.509026 0.152908 0.717263 0.141877
H42   H     H_    0.513683 0.271510 0.734768 0.165710
H43   H     H_    0.675671 0.689612 0.380522 0.161930
H44   H     H_    0.694760 0.806534 0.354379 0.102763
H45   H     H_    0.741913 0.543454 0.806748 0.132900
H46   H     H_    0.678993 0.723339 0.276645 0.235588
H47   H     H_    0.449777 0.216861 0.303890 0.086728
H48   H     H_    0.558560 0.229380 0.236134 0.160115
H49   H     H_    0.509122 0.323476 0.294201 0.124384
H50   H     H_    0.484695 0.731287 0.742387 0.168404
H51   H     H_    0.535940 0.831522 0.699422 0.114844
H52   H     H_    0.570193 0.722576 0.653034 0.141779
H53   H     H_    0.530469 0.967808 0.117373 0.359325
H54   H     H_    0.160382 0.052037 0.754277 0.373613
H55   H     H_    0.686273 0.593651 0.720931 0.133154
H56   H     H_    0.771932 0.502798 0.703766 0.160804
H57   H     H_    0.252727 0.544489 0.171998 0.140787
H58   H     H_    0.319804 0.628103 0.224404 0.162103
N1    N     N_R   0.256180 0.500070 0.500030 -0.225857
N2    N     N_R   0.743820 0.499930 0.499970 -0.222746
O1    O     O_R   0.417720 0.629750 0.499980 -0.401527
O2    O     O_3   0.358852 0.492328 0.240873 -0.590199
O3    O     O_2   0.140534 0.721591 0.436776 -0.295972
O4    O     O_2   0.266738 0.743716 0.528711 -0.196843
O5    O     O_3   0.311565 0.664759 0.385991 -0.534035
O6    O     O_2   0.728066 0.255365 0.487755 -0.218764
O7    O     O_2   0.857087 0.284189 0.575306 -0.331975
O8    O     O_3   0.688525 0.350401 0.622875 -0.509213
O9    O     O_3   0.261923 0.349484 0.445866 -0.526315
O10   O     O_3   0.734730 0.644936 0.564969 -0.570373
O11   O     O_3   0.909377 0.291433 0.386512 -0.499196
O12   O     O_R   0.582280 0.370250 0.500020 -0.407895
O13   O     O_3   0.087450 0.702044 0.622763 -0.485505
O14   O     O_2   0.808571 0.454647 0.181500 -0.282291
O15   O     O_2   0.711138 0.391254 0.297863 -0.218169
O16   O     O_3   0.774762 0.552737 0.313202 -0.543953
O17   O     O_2   0.256086 0.463387 0.709447 -0.211981
O18   O     O_2   0.189060 0.574035 0.809793 -0.303073
O19   O     O_3   0.274590 0.631587 0.673285 -0.451717
O20   O     O_3   0.591511 0.733304 0.064963 -0.504681
O21   O     O_3   0.473502 0.750066 0.941863 -0.576444
O22   O     O_3   0.317154 0.659014 0.892854 -0.516445
O23   O     O_R   0.582260 0.629730 0.499990 -0.510233
O24   O     O_3   0.721596 0.605308 0.113774 -0.504080
O25   O     O_3   0.394356 0.525775 0.068150 -0.622767
O26   O     O_3   0.620573 0.506930 0.926490 -0.621459
O27   O     O_3   0.437470 0.233657 0.637976 -0.487285
O28   O     O_3   0.553746 0.757567 0.347973 -0.519094
O29   O     O_3   0.582880 0.231827 0.358886 -0.510453
O30   O     O_3   0.431572 0.769752 0.634467 -0.550232
O31   O     O_2   0.643595 0.875033 0.208764 -0.280203
O32   O     O_2   0.471167 0.837325 0.231330 -0.224355
O33   O     O_3   0.516033 0.992892 0.173825 -0.556924
O34   O     O_R   0.417740 0.370270 0.500010 -0.455992
O35   O     O_2   0.336563 0.122879 0.771380 -0.283911
O36   O     O_2   0.251729 0.176578 0.655038 -0.182727
O37   O     O_3   0.208695 0.020909 0.714800 -0.520051
O38   O     O_R   0.408190 0.500030 0.613590 -0.418405
O39   O     O_R   0.591810 0.499970 0.386410 -0.441474
O40   O     O_R   0.572730 0.500000 0.613600 -0.430945
O41   O     O_R   0.427270 0.500000 0.386400 -0.460294
O42   O     O_3   0.638212 0.465758 0.756014 -0.542117
S1    S     S_3+6 0.229438 0.679977 0.467803 0.072219
S2    S     S_3+6 0.768594 0.324255 0.542090 0.049955
S3    S     S_3+6 0.732003 0.475715 0.250795 0.045430
S4    S     S_3+6 0.272674 0.553608 0.746569 0.048712
S5    S     S_3+6 0.543753 0.910026 0.237065 0.030072
S6    S     S_3+6 0.295794 0.096094 0.692658 0.053251

loop_
_geom_bond_atom_site_label_1
_geom_bond_atom_site_label_2
_ccdc_geom_bond_type
C10   S6    S    
C57   H39   S    
C34   C56   A    
C23   C45   A    
C49   O11   S    
C53   H29   S    
C48   H10   S    
C60   H48   S    
C5    C23   A    
C25   H1    S    
C24   C27   A    
C59   H44   S    
C6    C9    A    
C39   C41   A    
C3    C64   A    
C16   O38   A    
C15   C19   A    
C18   C25   A    
C55   H36   S    
C26   H12   S    
C14   N1    A    
O6    S2    D    
Cu1   O1    S    
O3    S1    D    
C35   C37   A    
C1    C56   S    
H19   O19   S    
O17   S4    D    
C11   N1    A    
C14   O9    S    
O4    S1    D    
C7    H23   S    
C57   O26   S    
C45   C62   A    
O15   S3    D    
C33   C36   A    
C62   O29   S    
Cu1   O38   S    
C58   H41   S    
C44   O42   S    
C19   C26   A    
C14   C18   A    
C62   C64   A    
H54   O37   S    
C36   C42   S    
C16   O40   A    
C15   N2    A    
Cu2   O12   S    
C52   H25   S    
C31   C33   A    
C30   C41   A    
C1    O23   A    
Cu2   N2    S    
C30   C32   A    
C54   H30   S    
C61   H52   S    
O19   S4    S    
C22   C28   A    
C17   C30   S    
C48   H9    S    
C46   H58   S    
C60   H47   S    
C28   O13   S    
C35   O25   S    
Cu1   O34   S    
C42   O21   S    
C51   H20   S    
C47   H6    S    
C59   O28   S    
C50   H17   S    
C34   O28   S    
C55   H35   S    
C57   H37   S    
C58   H42   S    
Cu2   O40   S    
C53   H27   S    
C32   C35   A    
C48   H8    S    
C47   H7    S    
Cu2   O23   S    
C54   O24   S    
C52   H24   S    
C17   O41   A    
C51   H21   S    
C50   O13   S    
C15   O10   S    
C51   O20   S    
C16   C29   S    
C61   H51   S    
C53   O22   S    
C6    C34   A    
C13   C24   A    
C31   O42   S    
C58   H40   S    
Cu1   N1    S    
C37   C43   S    
C2    C4    A    
O7    S2    D    
C46   H2    S    
C58   O27   S    
C41   S3    S    
O32   S5    D    
C39   O24   S    
H18   O16   S    
H3    O5    S    
C47   H5    S    
C61   H50   S    
C59   H46   S    
C56   C63   A    
C54   H31   S    
C27   O11   S    
C12   O34   A    
C9    S5    S    
C38   O22   S    
C13   N2    A    
C4    C6    A    
C13   S2    S    
C20   C22   A    
C11   S1    S    
C52   O21   S    
C23   O27   S    
O8    S2    S    
C12   O12   A    
C46   H57   S    
C52   H26   S    
C25   C27   A    
C42   C43   D    
C3    C4    A    
C61   O30   S    
C44   H55   S    
C40   S4    S    
C2    C63   A    
C50   H16   S    
C46   O2    S    
C7    C9    A    
C57   H38   S    
Cu1   O41   S    
O5    S1    S    
Cu2   O39   S    
C47   O9    S    
C53   H28   S    
C48   O10   S    
H53   O33   S    
C2    C8    A    
C1    O1    A    
C12   C45   S    
C3    C5    A    
C33   O26   S    
C51   H22   S    
C63   O30   S    
C55   O25   S    
O36   S6    D    
O14   S3    D    
O18   S4    D    
C11   C22   A    
C26   C28   A    
C49   H14   S    
C32   O2    S    
C36   C38   A    
C8    H34   S    
C60   O29   S    
C5    C10   A    
C29   C31   A    
C43   O20   S    
C17   O39   A    
C38   C40   A    
O35   S6    D    
C29   C40   A    
C44   H56   S    
C59   H43   S    
C49   H11   S    
C18   C20   A    
C7    C64   A    
C44   H45   S    
C49   H13   S    
C37   C39   A    
C20   C21   A    
C8    C10   A    
Cu1   Cu2   S    
O33   S5    S    
C21   C24   A    
C55   H33   S    
H4    O8    S    
C54   H32   S    
C60   H49   S    
O37   S6    S    
C50   H15   S    
O31   S5    D    
O16   S3    S    
C19   C21   A    
