data_mof_unit_45136.cif
_audit_creation_date              2012-12-11T15:20:43-0500
_audit_creation_method            fapswitch 2.2
_symmetry_space_group_name_H-M    P1
_symmetry_Int_Tables_number       1
_space_group_crystal_system       triclinic
_cell_length_a                    12.902478
_cell_length_b                    13.080763
_cell_length_c                    15.375216
_cell_angle_alpha                 116.468615
_cell_angle_beta                  63.49407
_cell_angle_gamma                 97.02309
_cell_volume                      2069.23091082

loop_
_atom_site_label
_atom_site_type_symbol
_atom_type_description
_atom_site_fract_x
_atom_site_fract_y
_atom_site_fract_z
_atom_type_partial_charge
C1    C     C_R   0.026042 0.833698 0.027612 -0.082133
C2    C     C_R   0.322410 0.534837 0.777130 0.176218
C3    C     C_R   0.243049 0.481584 0.108792 -0.173141
C4    C     C_R   0.702240 0.401991 0.206449 -0.132279
C5    C     C_R   0.990616 0.295788 0.694672 -0.141325
C6    C     C_R   0.333830 0.546142 0.081202 0.172516
C7    C     C_R   0.939329 0.197818 0.694889 0.070917
C8    C     C_R   0.330249 0.454953 0.675699 -0.010980
C9    C     C_R   0.088888 0.146765 0.967109 0.059825
C10   C     C_R   0.885364 0.028416 0.454995 0.204866
C11   C     C_R   0.883290 0.121106 0.546925 -0.227214
C12   C     C_R   0.705987 0.425772 0.301505 0.051430
C13   C     C_R   0.930697 0.104497 0.605866 0.107589
C14   C     C_R   0.978045 0.997683 0.576661 -0.156960
C15   C     C_R   0.983729 0.906959 0.484331 -0.196098
C16   C     C_R   0.738009 0.583133 0.954338 -0.045900
C17   C     C_R   0.939285 0.922494 0.422770 0.058689
C18   C     C_R   0.514661 0.364181 0.383184 -0.151843
C19   C     C_R   0.420391 0.374204 0.476950 -0.149973
C20   C     C_R   0.433439 0.410342 0.571748 0.147672
C21   C     C_R   0.545335 0.413582 0.565708 -0.110836
C22   C     C_R   0.640326 0.407243 0.471890 -0.129464
C23   C     C_R   0.635421 0.567970 0.030774 -0.042219
C24   C     C_R   0.622572 0.392428 0.383648 0.135504
C25   C     C_2   0.426975 0.568829 0.113916 -0.402995
C26   C     C_2   0.520190 0.617856 0.068736 0.743326
C27   C     C_2   0.896494 0.965114 0.023784 -0.220095
C28   C     C_R   0.941944 0.717745 0.314515 -0.131388
C29   C     C_2   0.889958 0.059912 0.110798 -0.058397
C30   C     C_R   0.660758 0.485868 0.052978 -0.182789
C31   C     C_R   0.030802 0.820334 0.221892 -0.093751
C32   C     C_R   0.801270 0.486577 0.303060 -0.117645
C33   C     C_R   0.928672 0.748712 0.929267 -0.133660
C34   C     C_R   0.957369 0.826724 0.323167 0.096320
C35   C     C_R   0.952237 0.854396 0.992250 0.144464
C36   C     C_R   0.319981 0.583343 0.016380 -0.055104
C37   C     C_R   0.911200 0.196492 0.791034 -0.152994
C38   C     C_R   0.218255 0.437806 0.686246 -0.156122
C39   C     C_R   0.100125 0.251966 0.042358 -0.120885
C40   C     C_R   0.001341 0.168080 0.945997 -0.102276
F1    F     F_    0.512960 0.696760 0.036323 -0.706563
H1    H     H_    0.071100 0.896823 0.068359 0.094053
H2    H     H_    0.651299 0.341180 0.171000 0.092129
H3    H     H_    0.026343 0.825359 0.459079 0.132466
H4    H     H_    0.498161 0.348047 0.315403 0.109155
H5    H     H_    0.336683 0.364873 0.475820 0.109876
H6    H     H_    0.558468 0.429751 0.635265 0.145522
H7    H     H_    0.724780 0.422184 0.471567 0.116826
H8    H     H_    0.431578 0.516738 0.150774 0.106046
H9    H     H_    0.851095 0.968143 0.980063 0.143113
H10   H     H_    0.930938 0.062083 0.159534 0.148086
H11   H     H_    0.745030 0.634305 0.913681 0.136208
H12   H     H_    0.858679 0.137737 0.820919 0.104348
H13   H     H_    0.896919 0.692085 0.378992 0.109151
H14   H     H_    0.602621 0.450500 0.106607 0.106823
H15   H     H_    0.071558 0.890275 0.204459 0.108412
H16   H     H_    0.837964 0.506648 0.359110 0.087762
H17   H     H_    0.885378 0.734113 0.879448 0.099017
H18   H     H_    0.358750 0.653507 0.999653 0.209203
H19   H     H_    0.191119 0.383857 0.624692 0.109999
H20   H     H_    0.161865 0.267565 0.075483 0.106650
H21   H     H_    0.971191 0.104942 0.889956 0.095970
H22   H     H_    0.219403 0.451796 0.169940 0.104096
H23   H     H_    0.011787 0.327878 0.635474 0.096705
H24   H     H_    0.844827 0.204848 0.572650 0.147417
H25   H     H_    0.015729 0.985858 0.622436 0.126073
I1    I     I_    0.444399 0.656304 0.800713 -0.427806
I2    I     I_    0.800659 0.051322 0.373732 -0.469359
N1    N     N_R   0.037310 0.720000 0.995790 -0.043921
N2    N     N_R   0.824890 0.517960 0.936420 -0.051528
N3    N     N_R   0.003210 0.648190 0.211380 -0.045758
N4    N     N_R   0.774330 0.457010 0.995840 -0.030650
N5    N     N_R   0.053760 0.709140 0.151960 -0.045944
N6    N     N_R   0.853860 0.498840 0.211410 -0.037827
N7    N     N_R   0.974240 0.667310 0.936390 -0.047349
N8    N     N_R   0.225670 0.542990 0.004160 -0.065590
N9    N     N_R   0.946240 0.290860 0.848040 -0.039089
N10   N     N_R   0.146140 0.501160 0.788590 -0.051278
N11   N     N_R   0.025760 0.332690 0.063610 -0.043795
N12   N     N_R   0.962690 0.280000 0.004210 -0.044024
N13   N     N_R   0.209210 0.553840 0.847990 -0.060492
N14   N     N_R   0.175110 0.482040 0.063580 -0.047396
N15   N     N_R   0.996790 0.351810 0.788620 -0.039068
N16   N     N_R   0.790790 0.446160 0.152010 -0.035584
Ni1   Ni    Ni4+2 0.130310 0.630310 0.999970 0.245314
Ni2   Ni    Ni4+2 0.869690 0.369690 0.000030 0.221943
Ni3   Ni    Ni4+2 0.985640 0.509470 0.863740 0.217102
Ni4   Ni    Ni4+2 0.014360 0.490530 0.136260 0.212686

loop_
_geom_bond_atom_site_label_1
_geom_bond_atom_site_label_2
_ccdc_geom_bond_type
N10   Ni3   S    
N15   Ni3   S    
C33   H17   S    
C27   C29   D    
C22   H7    S    
C19   C20   A    
C36   H18   S    
C19   H5    S    
C8    C20   S    
C18   C24   A    
N16   Ni2   S    
C15   H3    S    
C32   N6    A    
C5    N15   A    
C31   N5    A    
C6    C25   S    
N9    N15   A    
C10   C17   A    
C9    C39   A    
C40   H21   S    
C18   C19   A    
C23   C26   S    
N12   Ni2   S    
C36   N8    A    
C33   N7    A    
C40   N12   A    
C31   H15   S    
C4    C12   A    
C27   H9    S    
C37   H12   S    
C3    C6    A    
C28   C34   A    
C13   C14   A    
C12   C32   A    
C8    C38   A    
C32   H16   S    
N2    Ni3   S    
N11   Ni4   S    
C7    C37   A    
C39   H20   S    
C23   C30   A    
C16   N2    A    
C2    I1    S    
N8    N14   A    
N3    N5    A    
C28   H13   S    
C38   N10   A    
C27   C35   S    
C25   C26   D    
C37   N9    A    
C9    C40   A    
C1    N1    A    
N3    Ni4   S    
C5    H23   S    
C39   N11   A    
C30   N4    A    
C4    N16   A    
C3    N14   A    
C14   H25   S    
C31   C34   A    
N5    Ni1   S    
C38   H19   S    
N7    Ni3   S    
N9    Ni2   S    
C16   C23   A    
C3    H22   S    
C22   C24   A    
C28   N3    A    
C17   C34   S    
C18   H4    S    
N1    Ni1   S    
C1    C35   A    
C5    C7    A    
C29   H10   S    
C15   C17   A    
C2    C8    A    
C16   H11   S    
N6    N16   A    
N4    Ni2   S    
C4    H2    S    
C10   I2    S    
C30   H14   S    
C12   C24   S    
C11   C13   A    
N10   N13   A    
N14   Ni4   S    
C33   C35   A    
C6    C36   A    
N1    N7    A    
C25   H8    S    
C10   C11   A    
N11   N12   A    
C1    H1    S    
C7    C13   S    
C20   C21   A    
C14   C15   A    
C2    N13   A    
N2    N4    A    
N6    Ni4   S    
C21   C22   A    
N8    Ni1   S    
N13   Ni1   S    
C11   H24   S    
C26   F1    S    
C21   H6    S    
