data_mof_unit_21646.cif
_audit_creation_date              2012-12-10T17:53:17-0500
_audit_creation_method            fapswitch 2.2
_symmetry_space_group_name_H-M    P1
_symmetry_Int_Tables_number       1
_space_group_crystal_system       triclinic
_cell_length_a                    23.411033
_cell_length_b                    10.615015
_cell_length_c                    9.914578
_cell_angle_alpha                 89.896148
_cell_angle_beta                  89.907886
_cell_angle_gamma                 91.672954
_cell_volume                      2462.79891732

loop_
_atom_site_label
_atom_site_type_symbol
_atom_type_description
_atom_site_fract_x
_atom_site_fract_y
_atom_site_fract_z
_atom_type_partial_charge
C1    C     C_R   0.501333 0.260726 0.500138 0.855488
C2    C     C_R   0.965422 0.258848 0.496325 -0.256916
C3    C     C_R   0.025127 0.255487 0.492768 0.540759
C4    C     C_R   0.057877 0.369715 0.497075 -0.137616
C5    C     C_R   0.029862 0.486011 0.499645 -0.087288
C6    C     C_R   0.061708 0.600895 0.502604 0.012632
C7    C     C_R   0.033606 0.715864 0.504878 -0.160993
C8    C     C_R   0.974280 0.717478 0.504015 -0.159984
C9    C     C_R   0.117927 0.372422 0.497942 0.530691
C10   C     C_R   0.121168 0.597873 0.503185 0.503391
C11   C     C_R   0.237708 0.491316 0.623133 -0.099084
C12   C     C_R   0.389372 0.498823 0.500133 0.855878
C13   C     C_R   0.297018 0.495624 0.623129 -0.215983
C14   C     C_R   0.327052 0.494380 0.500398 -0.040914
C15   C     C_R   0.297030 0.487475 0.377961 -0.219596
C16   C     C_R   0.237724 0.482991 0.378440 -0.109056
C17   C     C_R   0.208262 0.485359 0.500887 0.320200
C18   C     C_R   0.761240 0.467939 0.619273 -0.089659
C19   C     C_R   0.702016 0.470318 0.619366 -0.246633
C20   C     C_R   0.672752 0.498310 0.500018 -0.030946
C21   C     C_R   0.703345 0.523748 0.380732 -0.196452
C22   C     C_R   0.762593 0.521655 0.381104 -0.099470
C23   C     C_R   0.501415 0.739430 0.499804 0.878884
C24   C     C_R   0.791380 0.493659 0.500250 0.323923
C25   C     C_R   0.598927 0.137200 0.615069 -0.275021
C26   C     C_R   0.644923 0.074512 0.670185 -0.182479
C27   C     C_R   0.645136 0.943136 0.672994 0.609299
C28   C     C_R   0.599176 0.874675 0.614094 -0.317003
C29   C     C_R   0.551949 0.937240 0.559237 0.030073
C30   C     C_R   0.551801 0.069088 0.559815 0.102225
C31   C     C_R   0.505038 0.128646 0.500070 -0.062321
C32   C     C_R   0.460737 0.061935 0.436755 -0.216135
C33   C     C_R   0.460845 0.933267 0.436300 -0.192811
C34   C     C_R   0.610577 0.500097 0.499920 0.840253
C35   C     C_R   0.505262 0.871985 0.499102 -0.067750
C36   C     C_R   0.424945 0.335044 0.140594 -0.162612
C37   C     C_R   0.387903 0.253968 0.070679 -0.195928
C38   C     C_R   0.387898 0.253978 0.931069 -0.184347
C39   C     C_R   0.424957 0.335023 0.860542 -0.158254
C40   C     C_R   0.463027 0.418691 0.927981 0.167977
C41   C     C_R   0.463026 0.418733 0.072573 0.173123
C42   C     C_R   0.535403 0.577718 0.071177 -0.113378
C43   C     C_R   0.535361 0.577713 0.928073 -0.115757
C44   C     C_R   0.882404 0.603506 0.501734 0.500622
C45   C     C_R   0.878034 0.378168 0.499077 0.533971
C46   C     C_R   0.937639 0.373927 0.498326 -0.088312
C47   C     C_R   0.969838 0.487918 0.499577 -0.021285
C48   C     C_R   0.942046 0.604069 0.501603 0.001152
H1    H     H_    0.941000 0.170575 0.497600 0.208412
H2    H     H_    0.679222 0.449586 0.712314 0.155700
H3    H     H_    0.681601 0.545880 0.287674 0.154887
H4    H     H_    0.786226 0.541541 0.289147 0.134564
H5    H     H_    0.425532 0.109761 0.389962 0.141047
H6    H     H_    0.601266 0.239013 0.614087 0.175546
H7    H     H_    0.680836 0.128658 0.710791 0.174455
H8    H     H_    0.601438 0.773404 0.607773 0.151526
H9    H     H_    0.425674 0.881078 0.389365 0.156129
H10   H     H_    0.564343 0.641255 0.124618 0.144075
H11   H     H_    0.422418 0.329244 0.247537 0.199127
H12   H     H_    0.359050 0.190683 0.125366 0.157070
H13   H     H_    0.359029 0.190714 0.876875 0.161767
H14   H     H_    0.422481 0.329246 0.753599 0.204393
H15   H     H_    0.564168 0.641297 0.873989 0.133856
H16   H     H_    0.057346 0.804905 0.507551 0.199833
H17   H     H_    0.953833 0.807713 0.505697 0.196036
H18   H     H_    0.214540 0.493311 0.717698 0.136493
H19   H     H_    0.319213 0.500357 0.718840 0.167049
H20   H     H_    0.319227 0.485703 0.282076 0.166331
H21   H     H_    0.214567 0.478579 0.284017 0.133732
H22   H     H_    0.783806 0.446345 0.711340 0.136343
N1    N     N_R   0.852038 0.491704 0.500422 -0.363086
N2    N     N_R   0.147592 0.485085 0.500900 -0.367928
N3    N     N_R   0.499460 0.498800 0.142780 -0.120119
N4    N     N_R   0.499440 0.498720 0.857170 -0.119127
O1    O     O_R   0.500000 0.316780 0.614690 -0.637751
O2    O     O_2   0.846160 0.270125 0.497585 -0.542902
O3    O     O_2   0.146813 0.264297 0.495941 -0.492548
O4    O     O_2   0.152595 0.706544 0.505776 -0.546593
O5    O     O_R   0.500000 0.316750 0.385360 -0.627237
O6    O     O_R   0.416160 0.499970 0.614690 -0.635551
O7    O     O_R   0.416150 0.499950 0.385360 -0.639899
O8    O     O_R   0.500000 0.683250 0.614640 -0.611522
O9    O     O_R   0.500000 0.683220 0.385310 -0.611111
O10   O     O_R   0.583850 0.500050 0.614640 -0.636835
O11   O     O_R   0.583840 0.500030 0.385310 -0.612075
O12   O     O_2   0.854801 0.713390 0.503878 -0.533378
Zn1   Zn    Zn3+2 0.500000 0.500020 0.653130 0.932985
Zn2   Zn    Zn3+2 0.500000 0.499980 0.346870 0.944247
O13   O     O_3   0.693314 0.885706 0.722589 -0.579111
C49   C     C_3   0.677982 0.788494 0.814253 -0.290901
H23   H     H_    0.664925 0.701063 0.759841 0.165501
H24   H     H_    0.643939 0.816906 0.885796 0.137619
H25   H     H_    0.716105 0.766406 0.875219 0.204073
O14   O     O_3   0.051157 0.140104 0.494389 -0.557381
C50   C     C_3   0.046054 0.084974 0.365434 -0.229712
H26   H     H_    0.072551 0.000109 0.362586 0.202655
H27   H     H_    0.062204 0.150019 0.284716 0.161444
H28   H     H_    0.001162 0.053976 0.344584 0.141313

loop_
_geom_bond_atom_site_label_1
_geom_bond_atom_site_label_2
_ccdc_geom_bond_type
C18   H22   S    
C23   O8    A    
C45   N1    A    
C50   H26   S    
O10   Zn1   S    
C36   H11   S    
C26   H7    S    
C42   H10   S    
C10   O4    S    
C50   H28   S    
C43   H15   S    
C7    C8    A    
C45   C46   A    
C2    C46   A    
C5    C47   A    
C26   C27   A    
C29   C30   A    
C23   O9    A    
C45   O2    S    
C18   C24   A    
C5    C6    A    
C36   C37   A    
O6    Zn1   S    
C30   C31   A    
O8    Zn1   S    
C1    C31   S    
C44   N1    A    
C18   C19   A    
C11   C17   A    
C31   C32   A    
C16   C17   A    
C9    N2    A    
N4    Zn1   S    
C11   H18   S    
C38   H13   S    
C20   C34   S    
C43   N4    A    
O9    Zn2   S    
C8    H17   S    
C21   C22   A    
C36   C41   A    
C34   O10   A    
C44   O12   S    
O5    Zn2   S    
C28   H8    S    
C15   C16   A    
C1    O1    A    
C25   H6    S    
C39   C40   A    
C25   C26   A    
C34   O11   A    
C8    C48   A    
N3    Zn2   S    
C37   C38   A    
C2    H1    S    
C49   H24   S    
C47   C48   A    
C9    O3    S    
C37   H12   S    
O1    Zn1   S    
C40   C41   A    
C12   C14   S    
C23   C35   S    
C1    O5    A    
C22   C24   A    
C42   C43   A    
C3    C4    A    
C32   H5    S    
C21   H3    S    
C49   H25   S    
C22   H4    S    
C13   H19   S    
O11   Zn2   S    
C25   C30   A    
C39   H14   S    
C46   C47   A    
C28   C29   A    
C42   N3    A    
C33   H9    S    
C16   H21   S    
C4    C5    A    
C6    C10   A    
C50   H27   S    
C6    C7    A    
C29   C35   A    
C32   C33   A    
C19   C20   A    
C2    C3    A    
C4    C9    A    
C11   C13   A    
C19   H2    S    
C49   H23   S    
C38   C39   A    
C15   H20   S    
C12   O6    A    
C33   C35   A    
C40   N4    A    
C12   O7    A    
C27   O13   S    
C3    O14   S    
O14   C50   S    
C7    H16   S    
O7    Zn2   S    
C41   N3    A    
C20   C21   A    
C17   N2    S    
C27   C28   A    
C14   C15   A    
O13   C49   S    
C13   C14   A    
C44   C48   A    
C24   N1    S    
C10   N2    A    
