data_mof_unit_28704.cif
_audit_creation_date              2012-12-10T20:42:42-0500
_audit_creation_method            fapswitch 2.2
_symmetry_space_group_name_H-M    P1
_symmetry_Int_Tables_number       1
_space_group_crystal_system       triclinic
_cell_length_a                    8.906081
_cell_length_b                    10.734669
_cell_length_c                    9.880531
_cell_angle_alpha                 90.067689
_cell_angle_beta                  89.929526
_cell_angle_gamma                 90.143565
_cell_volume                      944.61228638

loop_
_atom_site_label
_atom_site_type_symbol
_atom_type_description
_atom_site_fract_x
_atom_site_fract_y
_atom_site_fract_z
_atom_type_partial_charge
C1    C     C_R   0.497513 0.260570 0.499871 0.866861
C2    C     C_R   0.437722 0.403070 0.928850 0.067254
C3    C     C_3   0.277934 0.360642 0.925132 0.467999
C4    C     C_R   0.218752 0.499752 0.500041 0.929216
C5    C     C_3   0.280009 0.358723 0.078819 -0.535876
C6    C     C_R   0.498498 0.739524 0.499940 0.873887
C7    C     C_R   0.781246 0.499789 0.499977 0.923518
C8    C     C_1   0.065414 0.499534 0.500102 -0.160366
C9    C     C_1   0.934589 0.499546 0.499975 -0.180791
C10   C     C_R   0.510973 0.062567 0.616586 0.099269
C11   C     C_R   0.488614 0.129465 0.498974 -0.115068
C12   C     C_R   0.459692 0.935095 0.378093 -0.222189
C13   C     C_R   0.458954 0.064578 0.378048 -0.216067
C14   C     C_3   0.822625 0.111144 0.686471 -0.706875
C15   C     C_R   0.489977 0.870740 0.499094 -0.087355
C16   C     C_R   0.511342 0.938138 0.616807 0.075732
C17   C     C_3   0.557453 0.927672 0.761627 -0.486567
C18   C     C_3   0.556496 0.071402 0.762159 0.028258
C19   C     C_R   0.438603 0.402647 0.071229 0.118768
C20   C     C_R   0.573151 0.589963 0.071938 -0.096132
C21   C     C_R   0.573419 0.589812 0.928074 -0.077413
F1    F     F_    0.182620 0.451341 0.875327 -0.626357
H1    H     H_    0.437894 0.112952 0.283819 0.168467
H2    H     H_    0.630693 0.663436 0.873995 0.136017
H3    H     H_    0.697190 0.217940 0.820790 0.239609
H4    H     H_    0.930635 0.143416 0.730394 0.232949
H5    H     H_    0.799314 0.167458 0.594704 0.223328
H6    H     H_    0.835160 0.011778 0.657878 0.235856
H7    H     H_    0.262804 0.267627 0.877571 0.044869
H8    H     H_    0.204001 0.428333 0.126182 0.248664
H9    H     H_    0.271534 0.263216 0.121509 0.146339
H10   H     H_    0.439011 0.886310 0.283860 0.172256
H11   H     H_    0.467480 0.885868 0.825190 0.185192
H12   H     H_    0.669857 0.884588 0.773944 0.205377
H13   H     H_    0.467520 0.111508 0.828055 0.100198
H14   H     H_    0.629858 0.663971 0.126073 0.141710
N1    N     N_R   0.499010 0.499140 0.142800 -0.087012
N2    N     N_R   0.499010 0.499180 0.857150 -0.081845
N3    N     N_2   0.703750 0.127662 0.785497 -0.277844
O1    O     O_R   0.500020 0.316790 0.614690 -0.637409
O2    O     O_R   0.500000 0.316760 0.385350 -0.620463
O3    O     O_R   0.285350 0.500020 0.614650 -0.546247
O4    O     O_R   0.285340 0.499980 0.385310 -0.628451
O5    O     O_R   0.500000 0.683240 0.614650 -0.620279
O6    O     O_R   0.499980 0.683210 0.385310 -0.633356
O7    O     O_R   0.714660 0.500020 0.614690 -0.610123
O8    O     O_R   0.714650 0.499980 0.385350 -0.615030
Zn1   Zn    Zn3+2 0.500010 0.500020 0.653130 0.986517
Zn2   Zn    Zn3+2 0.499990 0.499980 0.346870 0.951003

loop_
_geom_bond_atom_site_label_1
_geom_bond_atom_site_label_2
_ccdc_geom_bond_type
C18   N3    S    
C5    C19   S    
C6    O6    A    
C14   H5    S    
N1    Zn2   S    
C18   H13   S    
C2    N2    A    
N2    Zn1   S    
C1    C11   S    
C12   C15   A    
O6    Zn2   S    
C4    C8    S    
C20   C21   A    
C2    C3    S    
C14   N3    S    
O8    Zn2   S    
O3    Zn1   S    
C14   H4    S    
C17   H11   S    
C20   N1    A    
C11   C13   A    
H3    N3    S    
C16   C17   S    
C4    O3    A    
C10   C18   S    
C1    O2    A    
C4    O4    A    
C17   C18   S    
O7    Zn1   S    
C6    O5    A    
C17   H12   S    
C15   C16   A    
C20   H14   S    
C7    O7    A    
C3    C5    S    
C12   C13   A    
C13   H1    S    
C7    C9    S    
C5    H8    S    
C10   C11   A    
C21   H2    S    
O2    Zn2   S    
C3    H7    S    
O1    Zn1   S    
O4    Zn2   S    
C3    F1    S    
C10   C16   A    
C19   N1    A    
C1    O1    A    
C14   H6    S    
C6    C15   S    
C2    C19   A    
C12   H10   S    
C21   N2    A    
O5    Zn1   S    
C8    C9    T    
C5    H9    S    
C7    O8    A    
