data_mof_unit_39701.cif
_audit_creation_date              2012-10-26T21:11:06-0400
_audit_creation_method            fapswitch 2.2
_symmetry_space_group_name_H-M    P1
_symmetry_Int_Tables_number       1
_space_group_crystal_system       triclinic
_cell_length_a                    10.96396
_cell_length_b                    10.934589
_cell_length_c                    13.100503
_cell_angle_alpha                 90.584713
_cell_angle_beta                  90.517933
_cell_angle_gamma                 89.800128
_cell_volume                      1570.4170884

loop_
_atom_site_label
_atom_site_type_symbol
_atom_type_description
_atom_site_fract_x
_atom_site_fract_y
_atom_site_fract_z
_atom_type_partial_charge
C1    C     C_R   0.494642 0.259497 0.499062 0.556381
C2    C     C_R   0.646632 0.827763 0.719178 -0.005178
C3    C     C_R   0.464782 0.114236 0.303630 0.074112
C4    C     C_R   0.535249 0.885769 0.696360 0.074155
C5    C     C_R   0.552632 0.100677 0.226857 -0.070397
C6    C     C_R   0.447428 0.899312 0.773159 -0.070293
C7    C     C_R   0.529591 0.145095 0.128805 -0.091548
C8    C     C_R   0.470512 0.854885 0.871200 -0.091506
C9    C     C_R   0.418378 0.202048 0.106497 -0.082054
C10   C     C_R   0.581735 0.797934 0.893470 -0.082055
C11   C     C_R   0.493593 0.932579 0.409282 -0.116919
C12   C     C_R   0.505348 0.740503 0.500937 0.556387
C13   C     C_R   0.506358 0.067419 0.590716 -0.116916
C14   C     C_R   0.506339 0.873013 0.502692 -0.012847
C15   C     C_R   0.493633 0.126987 0.497305 -0.012847
C16   C     C_R   0.259548 0.495555 0.499330 0.586251
C17   C     C_R   0.740455 0.504443 0.500670 0.586230
C18   C     C_R   0.514403 0.941055 0.594831 -0.029515
C19   C     C_R   0.485576 0.058945 0.405166 -0.029496
C20   C     C_1   0.500248 0.500101 0.173532 0.156346
C21   C     C_1   0.499756 0.499896 0.826468 0.156401
C22   C     C_1   0.500167 0.500082 0.050686 -0.068046
C23   C     C_R   0.872954 0.504835 0.501870 -0.040420
C24   C     C_1   0.499840 0.499915 0.949314 -0.068005
C25   C     C_R   0.219253 0.734099 0.214594 0.259232
C26   C     C_R   0.780595 0.266056 0.785439 0.259207
C27   C     C_R   0.167945 0.698467 0.307161 -0.006767
C28   C     C_R   0.831876 0.301649 0.692849 -0.006734
C29   C     C_R   0.123451 0.579122 0.317992 0.065867
C30   C     C_R   0.876557 0.420933 0.682032 0.065875
C31   C     C_R   0.131285 0.496055 0.235906 -0.065704
C32   C     C_R   0.868928 0.503988 0.764154 -0.065744
C33   C     C_R   0.183298 0.531779 0.143956 -0.149831
C34   C     C_R   0.127048 0.495158 0.498129 -0.040412
C35   C     C_R   0.816932 0.468315 0.856125 -0.149829
C36   C     C_R   0.226997 0.650732 0.133203 -0.061788
C37   C     C_R   0.773053 0.349415 0.866865 -0.061801
C38   C     C_R   0.935277 0.549170 0.416267 0.197038
C39   C     C_R   0.064722 0.450818 0.583734 0.197047
C40   C     C_R   0.937997 0.458335 0.586922 -0.058889
C41   C     C_R   0.062004 0.541665 0.413083 -0.058901
C42   C     C_R   0.330525 0.215775 0.182422 -0.067280
C43   C     C_R   0.669559 0.784223 0.817519 -0.067303
C44   C     C_R   0.353417 0.172256 0.280778 -0.005134
Cl1   Cl    Cl    0.270908 0.884025 0.199124 -0.660477
Cl2   Cl    Cl    0.728734 0.116179 0.800901 -0.660549
Cl3   Cl    Cl    0.857237 0.622703 0.313921 -0.583329
Cl4   Cl    Cl    0.142760 0.377306 0.686077 -0.583324
Cu1   Cu    Cu3+1 0.499990 0.499990 0.592680 1.040799
Cu2   Cu    Cu3+1 0.500010 0.500010 0.407320 1.040777
H1    H     H_    0.266472 0.678134 0.061543 0.142922
H2    H     H_    0.838555 0.236550 0.630239 0.135767
H3    H     H_    0.095940 0.404224 0.243103 0.120526
H4    H     H_    0.904422 0.595770 0.756970 0.120594
H5    H     H_    0.189074 0.467542 0.080764 0.127683
H6    H     H_    0.811314 0.532545 0.919343 0.127741
H7    H     H_    0.400164 0.235341 0.030324 0.132943
H8    H     H_    0.599975 0.764625 0.969631 0.132891
H9    H     H_    0.244078 0.258661 0.164618 0.106309
H10   H     H_    0.756004 0.741324 0.835287 0.106282
H11   H     H_    0.283841 0.181711 0.338537 0.116456
H12   H     H_    0.733598 0.322045 0.938542 0.142939
H13   H     H_    0.716184 0.818319 0.661399 0.116410
H14   H     H_    0.638382 0.054954 0.242857 0.126916
H15   H     H_    0.361666 0.945027 0.757187 0.126899
H16   H     H_    0.597461 0.134353 0.069852 0.146940
H17   H     H_    0.402665 0.865616 0.930174 0.146855
H18   H     H_    0.486997 0.880187 0.338728 0.187648
H19   H     H_    0.512930 0.119811 0.661270 0.187761
H20   H     H_    0.161102 0.763576 0.369743 0.135836
N1    N     N_1   0.500030 0.500030 0.268070 -0.158439
N2    N     N_1   0.499970 0.499970 0.731930 -0.158432
O1    O     O_R   0.499980 0.319630 0.578260 -0.487460
O2    O     O_R   0.500020 0.680370 0.421740 -0.487483
O3    O     O_R   0.500000 0.319650 0.421740 -0.508075
O4    O     O_R   0.500000 0.680350 0.578260 -0.508072
O5    O     O_R   0.319630 0.500000 0.578260 -0.431036
O6    O     O_R   0.680370 0.500000 0.421740 -0.431017
O7    O     O_R   0.319650 0.500020 0.421740 -0.524284
O8    O     O_R   0.680350 0.499980 0.578260 -0.524289

loop_
_geom_bond_atom_site_label_1
_geom_bond_atom_site_label_2
_ccdc_geom_bond_type
C33   H5    S    
C12   O2    A    
C27   C29   A    
C14   C18   A    
Cu2   O7    S    
C37   H12   S    
C11   H18   S    
C15   C19   A    
C11   C19   A    
C9    C42   A    
C17   C23   S    
C13   C18   A    
C35   C37   A    
Cu2   O2    S    
C11   C14   A    
C23   C40   A    
C33   C36   A    
C16   O5    A    
C16   C34   S    
C6    H15   S    
C10   H8    S    
Cu1   N2    S    
C31   C33   A    
C20   N1    T    
C3    C19   S    
C1    C15   S    
C9    H7    S    
C4    C18   S    
C10   C43   A    
C34   C41   A    
C42   C44   A    
Cu2   O6    S    
C32   H4    S    
C3    C44   A    
C21   N2    T    
C34   C39   A    
C1    O3    A    
C32   C35   A    
C38   C41   A    
C4    C6    A    
C39   C40   A    
C5    C7    A    
C6    C8    A    
C17   O8    A    
C5    H14   S    
C2    C4    A    
Cu2   N1    S    
C2    C43   A    
Cu1   O4    S    
C30   C40   S    
C31   H3    S    
C27   H20   S    
C38   Cl3   S    
C36   H1    S    
C43   H10   S    
C12   C14   S    
C13   C15   A    
C12   O4    A    
C22   C24   T    
C25   Cl1   S    
C2    H13   S    
C7    C9    A    
C29   C41   S    
C35   H6    S    
C20   C22   S    
C3    C5    A    
C42   H9    S    
C26   C37   A    
C44   H11   S    
C25   C27   A    
C23   C38   A    
C26   C28   A    
Cu1   O8    S    
C16   O7    A    
C1    O1    A    
C28   C30   A    
C29   C31   A    
Cu2   O3    S    
C7    H16   S    
C30   C32   A    
C28   H2    S    
C13   H19   S    
C17   O6    A    
Cu1   O5    S    
Cu1   O1    S    
C26   Cl2   S    
C25   C36   A    
C8    H17   S    
C8    C10   A    
Cu1   Cu2   S    
C21   C24   S    
C39   Cl4   S    
