data_mof_unit_11783.cif
_audit_creation_date              2012-12-10T20:38:23-0500
_audit_creation_method            fapswitch 2.2
_symmetry_space_group_name_H-M    P1
_symmetry_Int_Tables_number       1
_space_group_crystal_system       triclinic
_cell_length_a                    9.899431
_cell_length_b                    10.685829
_cell_length_c                    16.725923
_cell_angle_alpha                 90.265162
_cell_angle_beta                  83.171642
_cell_angle_gamma                 89.340857
_cell_volume                      1756.63028269

loop_
_atom_site_label
_atom_site_type_symbol
_atom_type_description
_atom_site_fract_x
_atom_site_fract_y
_atom_site_fract_z
_atom_type_partial_charge
C1    C     C_R   0.500639 0.739345 0.493528 0.977320
C2    C     C_R   0.539498 0.464802 0.262221 -0.079761
C3    C     C_R   0.380052 0.938816 0.497542 0.070422
C4    C     C_R   0.478572 0.499307 0.653232 0.937107
C5    C     C_R   0.500891 0.870781 0.478355 -0.129088
C6    C     C_R   0.619693 0.934791 0.445000 -0.085014
C7    C     C_R   0.620231 0.065292 0.452221 -0.213112
C8    C     C_R   0.502254 0.128864 0.485518 -0.095609
C9    C     C_R   0.380746 0.065509 0.498346 0.045774
C10   C     C_3   0.263118 0.077686 0.562442 -0.447396
C11   C     C_3   0.259164 0.934551 0.562079 -0.150229
C12   C     C_R   0.361480 0.418604 0.782896 0.364493
C13   C     C_R   0.915178 0.503249 0.570543 0.205710
C14   C     C_R   0.944057 0.474001 0.431357 -0.018622
C15   C     C_R   0.087220 0.479764 0.431184 -0.108220
C16   C     C_R   0.500997 0.260166 0.497875 0.912127
C17   C     C_R   0.056883 0.501064 0.570670 0.235217
C18   C     C_3   0.049525 0.594816 0.637161 -0.406000
C19   C     C_3   0.895928 0.598542 0.636187 -0.464422
C20   C     C_R   0.521149 0.496079 0.346945 0.918258
C21   C     C_R   0.460532 0.495312 0.740438 -0.126102
C22   C     C_R   0.549343 0.564510 0.781985 -0.258073
C23   C     C_R   0.477097 0.337267 0.153729 -0.190701
C24   C     C_R   0.546285 0.551574 0.864427 -0.064057
C25   C     C_R   0.453974 0.469611 0.905493 0.135343
C26   C     C_R   0.358537 0.406952 0.865823 -0.119271
C27   C     C_2   0.741619 0.870954 0.401837 0.950072
C28   C     C_2   0.284446 0.880981 0.642912 0.898343
C29   C     C_2   0.131209 0.886630 0.531774 0.914899
C30   C     C_2   0.895710 0.423670 0.358186 0.939140
C31   C     C_2   0.678815 0.315263 0.962575 1.009680
C32   C     C_R   0.456707 0.373474 0.233848 -0.170274
C33   C     C_R   0.646016 0.516586 0.211092 -0.228651
C34   C     C_R   0.665461 0.482390 0.130190 0.435649
C35   C     C_R   0.578815 0.393786 0.101228 0.047406
C36   C     C_2   0.463043 0.444451 0.989506 -0.300428
C37   C     C_2   0.569899 0.383994 0.015228 -0.060576
Cl1   Cl    Cl    0.790773 0.560016 0.065736 -0.569819
Cl2   Cl    Cl    0.247694 0.327094 0.734809 -0.621215
H1    H     H_    0.622558 0.626814 0.750359 0.171402
H2    H     H_    0.856070 0.689172 0.616025 0.222355
H3    H     H_    0.710926 0.586179 0.233459 0.211487
H4    H     H_    0.286796 0.344383 0.898674 0.182953
H5    H     H_    0.408518 0.270764 0.131391 0.174883
H6    H     H_    0.384897 0.487567 0.032492 0.193426
H7    H     H_    0.618694 0.601789 0.895883 0.183444
H8    H     H_    0.817725 0.727971 0.330556 0.363696
H9    H     H_    0.414369 0.799336 0.711632 0.346986
H10   H     H_    0.926093 0.881857 0.548131 0.355795
H11   H     H_    0.912454 0.424532 0.236860 0.364608
H12   H     H_    0.711670 0.116750 0.432333 0.231030
H13   H     H_    0.860159 0.224960 0.954665 0.366119
H14   H     H_    0.293359 0.120043 0.618414 0.247610
H15   H     H_    0.174645 0.124874 0.539600 0.226853
H16   H     H_    0.153484 0.461976 0.376036 0.178649
H17   H     H_    0.080519 0.554122 0.693309 0.243728
H18   H     H_    0.376299 0.330344 0.273658 0.162827
H19   H     H_    0.100627 0.682980 0.618472 0.214292
H20   H     H_    0.840332 0.560130 0.692084 0.220869
N1    N     N_R   0.857140 0.500860 0.500530 -0.145268
N2    N     N_R   0.142780 0.500820 0.500530 -0.114026
O1    O     O_R   0.385310 0.683210 0.499990 -0.602385
O2    O     O_R   0.727328 0.762017 0.357203 -0.800517
O3    O     O_2   0.193288 0.885173 0.699083 -0.556476
O4    O     O_R   0.411594 0.831057 0.654818 -0.825189
O5    O     O_2   0.137677 0.820399 0.471540 -0.581235
O6    O     O_R   0.004677 0.918918 0.573495 -0.752699
O7    O     O_2   0.822038 0.332388 0.362519 -0.607082
O8    O     O_R   0.945557 0.472283 0.283139 -0.808161
O9    O     O_2   0.667749 0.294344 0.891725 -0.600817
O10   O     O_R   0.793340 0.270786 0.995603 -0.755763
O11   O     O_R   0.614650 0.683240 0.500000 -0.608322
O12   O     O_R   0.371780 0.500000 0.615800 -0.581978
O13   O     O_R   0.601120 0.500040 0.615800 -0.617724
O14   O     O_R   0.385350 0.316760 0.500000 -0.615749
O15   O     O_R   0.614690 0.316790 0.500010 -0.589331
O16   O     O_R   0.398880 0.499960 0.384200 -0.633470
O17   O     O_R   0.628220 0.500000 0.384200 -0.583654
O18   O     O_2   0.854169 0.916902 0.402067 -0.596066
Zn1   Zn    Zn3+2 0.346870 0.499980 0.499990 1.006275
Zn2   Zn    Zn3+2 0.653130 0.500020 0.500010 1.016301

loop_
_geom_bond_atom_site_label_1
_geom_bond_atom_site_label_2
_ccdc_geom_bond_type
C16   O14   A    
C1    O1    A    
C7    C8    A    
C13   N1    A    
C20   O16   A    
C1    C5    S    
C33   H3    S    
O1    Zn1   S    
C36   C37   D    
C35   C37   S    
H11   O8    S    
C18   C19   S    
C27   O18   D    
H8    O2    S    
C5    C6    A    
N2    Zn1   S    
C2    C32   A    
C34   C35   A    
C10   H14   S    
C17   N2    A    
C29   O6    S    
C18   H19   S    
C31   O9    D    
C8    C9    A    
H9    O4    S    
O14   Zn1   S    
C4    O13   A    
O11   Zn2   S    
C18   H17   S    
C31   O10   S    
C8    C16   S    
C34   Cl1   S    
C21   C22   A    
C32   H18   S    
C14   C30   S    
C26   H4    S    
C33   C34   A    
C1    O11   A    
C13   C19   S    
C2    C20   S    
C24   C25   A    
C19   H20   S    
C25   C26   A    
C12   C21   A    
C23   H5    S    
C31   C37   S    
C12   C26   A    
C15   H16   S    
C3    C9    A    
N1    Zn2   S    
C6    C27   S    
C22   H1    S    
C17   C18   S    
C15   N2    A    
C36   H6    S    
C4    O12   A    
C27   O2    S    
C28   O3    D    
C2    C33   A    
C23   C35   A    
C22   C24   A    
O13   Zn2   S    
C30   O8    S    
C9    C10   S    
O16   Zn1   S    
H10   O6    S    
C16   O15   A    
C3    C5    A    
O15   Zn2   S    
C6    C7    A    
C13   C17   A    
C14   N1    A    
C20   O17   A    
C24   H7    S    
C23   C32   A    
C12   Cl2   S    
C28   O4    S    
C7    H12   S    
H13   O10   S    
C4    C21   S    
O17   Zn2   S    
C11   C28   S    
O12   Zn1   S    
C10   H15   S    
C3    C11   S    
C10   C11   S    
C25   C36   S    
C29   O5    D    
C11   C29   S    
C14   C15   A    
C30   O7    D    
C19   H2    S    
