data_mof_unit_16892.cif
_audit_creation_date              2013-03-05T16:02:39-0500
_audit_creation_method            fapswitch 2.2
_symmetry_space_group_name_H-M    P1
_symmetry_Int_Tables_number       1
_space_group_crystal_system       triclinic
_cell_length_a                    6.951885
_cell_length_b                    17.097926
_cell_length_c                    19.030879
_cell_angle_alpha                 105.995868
_cell_angle_beta                  89.208005
_cell_angle_gamma                 90.085951
_cell_volume                      2174.2662858

loop_
_atom_site_label
_atom_site_type_symbol
_atom_site_description
_atom_site_fract_x
_atom_site_fract_y
_atom_site_fract_z
_atom_type_partial_charge
O1    O     O_R   0.494360 0.415680 0.413760 -0.573481
O2    O     O_R   0.818810 0.432910 0.557230 -0.544417
O3    O     O_R   0.994290 0.584320 0.586240 -0.604945
C1    C     C_R   0.650177 0.418971 0.583068 1.039358
O4    O     O_R   0.823740 0.406440 0.412520 -0.578633
O5    O     O_R   0.999250 0.557660 0.440500 -0.579955
C2    C     C_R   0.656049 0.381290 0.385943 1.009501
O6    O     O_R   0.489400 0.442340 0.559500 -0.565828
O7    O     O_3   0.662500 0.549650 0.509350 -0.284854
V1    V     V_3+5 0.935340 0.490790 0.498270 1.225666
O8    O     O_R   0.329270 0.567090 0.442770 -0.572891
C3    C     C_R   0.161558 0.583823 0.419193 0.937640
O9    O     O_R   0.324340 0.593560 0.587480 -0.593774
C4    C     C_R   0.152925 0.621152 0.610927 0.913535
V2    V     V_3+5 0.435970 0.509210 0.501730 1.208692
O10   O     O_3   0.158940 0.450350 0.490650 -0.229100
C5    C     C_R   0.181148 0.586493 0.746734 -0.249451
C6    C     C_R   0.195452 0.563044 0.810488 -0.006694
C7    C     C_R   0.182628 0.621592 0.877647 -0.091239
C8    C     C_R   0.156964 0.704376 0.880680 0.305084
C9    C     C_R   0.144417 0.730685 0.815408 -0.069103
C10   C     C_R   0.155240 0.668970 0.747395 0.095302
C11   C     C_R   0.125133 0.814945 0.815419 -0.239742
C12   C     C_R   0.119743 0.835436 0.746703 0.055761
C13   C     C_R   0.107465 0.771057 0.680073 0.036179
C14   C     C_R   0.136339 0.688539 0.680409 -0.207054
C15   C     C_R   0.125549 0.917906 0.740709 -0.241603
C16   C     C_R   0.131797 0.933407 0.671656 0.236030
C17   C     C_R   0.098925 0.870517 0.608550 0.238247
C18   C     C_R   0.067237 0.791654 0.614197 -0.235266
H1    H     H_    0.189325 0.538191 0.696176 0.137636
C19   C     C_1   0.110332 0.867091 0.135353 -0.073515
C20   C     C_1   0.118100 0.824159 0.178606 0.176244
C21   C     C_1   0.128085 0.773242 0.229879 0.097769
C22   C     C_1   0.136598 0.730314 0.273128 0.077636
C23   C     C_1   0.146520 0.679328 0.324347 0.133696
C24   C     C_1   0.154208 0.636225 0.367461 -0.269499
C25   C     C_1   0.641742 0.367621 0.635705 -0.199121
C26   C     C_1   0.637666 0.324806 0.679092 0.125511
C27   C     C_1   0.634280 0.273912 0.730414 0.068443
C28   C     C_1   0.631650 0.230944 0.773683 0.078016
C29   C     C_1   0.628147 0.179954 0.824921 0.117275
C30   C     C_1   0.623907 0.136804 0.868022 -0.295782
C31   C     C_R   0.577054 0.412693 0.241639 -0.084092
C32   C     C_R   0.511936 0.425650 0.175611 0.004919
C33   C     C_R   0.482634 0.359578 0.114593 0.051904
C34   C     C_R   0.519280 0.281257 0.118584 -0.268958
C35   C     C_R   0.576740 0.265118 0.184189 0.104804
C36   C     C_R   0.600155 0.331178 0.248678 0.059774
C37   C     C_R   0.611592 0.183585 0.184701 -0.200461
C38   C     C_R   0.657906 0.165505 0.250891 -0.072611
C39   C     C_R   0.689224 0.230106 0.315757 -0.069636
C40   C     C_R   0.650182 0.313403 0.316029 -0.230366
C41   C     C_R   0.669633 0.082999 0.254173 0.142875
C42   C     C_R   0.760282 0.064306 0.312740 0.135817
C43   C     C_R   0.809864 0.126920 0.373621 0.158084
C44   C     C_R   0.757222 0.207595 0.378239 0.173934
H2    H     H_    0.499821 0.232657 0.068972 0.114532
O11   O     O_R   0.775690 0.057750 0.940570 -0.582514
O12   O     O_R   0.441200 0.093570 0.087490 -0.573055
O13   O     O_R   0.265840 0.942320 0.059480 -0.516535
C45   C     C_R   0.608450 0.117070 0.114609 0.974923
O14   O     O_R   0.446270 0.067110 0.942790 -0.591113
O15   O     O_R   0.270950 0.915660 0.913750 -0.585498
C46   C     C_R   0.615295 0.084346 0.919619 0.923505
O16   O     O_R   0.770580 0.084400 0.086300 -0.599366
O17   O     O_3   0.602640 0.950400 0.990690 -0.213543
V3    V     V_3+5 0.329740 0.009200 0.001730 1.249203
O18   O     O_R   0.940900 0.906360 0.912450 -0.578010
C47   C     C_R   0.111508 0.881405 0.885996 0.987448
O19   O     O_R   0.935830 0.932820 0.057160 -0.535249
C48   C     C_R   0.103087 0.918739 0.082867 1.097848
V4    V     V_3+5 0.829130 0.990680 0.998180 1.260313
O20   O     O_3   0.106100 0.049590 0.009310 -0.299795
N1    N     N_R   0.082205 0.887773 0.538915 0.270498
O21   O     O_R   0.983169 0.950122 0.533064 -0.226257
O22   O     O_R   0.158080 0.838685 0.480372 -0.354479
C49   C     C_1   0.633013 0.485168 0.297627 0.040872
N2    N     N_1   0.677183 0.543990 0.341162 -0.035980
C50   C     C_1   0.478426 0.507553 0.169725 0.068953
N3    N     N_1   0.451747 0.572716 0.165039 -0.067241
C51   C     C_1   0.419760 0.370756 0.045799 0.061424
N4    N     N_1   0.369598 0.379606 0.990756 -0.078184
N5    N     N_R   0.563420 0.019792 0.204773 0.249253
O23   O     O_R   0.376484 0.023111 0.206987 -0.400166
O24   O     O_R   0.648810 0.953445 0.167334 -0.369437
N6    N     N_R   0.786250 0.981220 0.313704 0.277570
O25   O     O_R   0.953264 0.956635 0.329309 -0.312093
O26   O     O_R   0.638566 0.933235 0.308663 -0.280352
N7    N     N_R   0.743642 0.261305 0.449835 0.218190
O27   O     O_R   0.577519 0.266615 0.483075 -0.392213
O28   O     O_R   0.898858 0.278764 0.488412 -0.342047
C52   C     C_1   0.221076 0.477685 0.805496 0.063772
N8    N     N_1   0.241423 0.409420 0.801495 -0.075066
C53   C     C_1   0.194541 0.596994 0.944626 0.220986
N9    N     N_1   0.204032 0.577429 0.998057 -0.067241
N10   N     N_R   0.142006 0.759776 0.951448 0.181759
O29   O     O_R   0.298103 0.776742 0.989543 -0.430310
O30   O     O_R   0.976423 0.765768 0.985198 -0.439523
C54   C     C_1   0.129296 0.989751 0.802308 0.174514
N11   N     N_1   0.130295 0.048683 0.850118 -0.028053
N12   N     N_R   0.165911 0.014309 0.665499 0.260580
O31   O     O_R   0.308037 0.027729 0.625178 -0.283473
O32   O     O_R   0.045154 0.072794 0.694393 -0.356716
C55   C     C_1   0.944293 0.741572 0.559262 0.177725
N13   N     N_1   0.840730 0.704539 0.515537 -0.021969
N14   N     N_R   0.882619 0.107137 0.436729 0.305476
O33   O     O_R   0.772093 0.071624 0.474278 -0.219736
O34   O     O_R   0.061913 0.121059 0.454578 -0.237389

loop_
_geom_bond_atom_site_label_1
_geom_bond_atom_site_label_2
_geom_bond_distance
_ccdc_geom_bond_type
C31   C36   1.445826 A    
N6    O25   1.301058 A    
O14   C46   1.310832 A    
C52   N8    1.157306 T    
C28   C29   1.476252 S    
C53   N9    1.157423 T    
C12   C15   1.446136 A    
C1    O6    1.313032 A    
C41   N5    1.433113 S    
N10   O29   1.300858 A    
C19   C48   1.505899 S    
C32   C33   1.396058 A    
C31   C32   1.415070 A    
O15   V3    2.017282 S    
C16   C17   1.394951 A    
N5    O24   1.300682 A    
C6    C7    1.391235 A    
O5    C3    1.312818 A    
C25   C26   1.245349 T    
V3    O20   1.690262 S    
V2    O10   2.157486 S    
C43   C44   1.406459 A    
O12   C45   1.296370 A    
C21   C22   1.246632 T    
V4    O20   2.157470 S    
C3    C24   1.504101 S    
C41   C42   1.399250 A    
O8    V2    1.850894 S    
N5    O23   1.300481 A    
C8    N10   1.419574 S    
C7    C8    1.412108 A    
N14   O33   1.300864 A    
O18   V4    2.004007 S    
O17   V4    1.709572 S    
O15   C47   1.301673 A    
O7    V1    2.129003 S    
O11   V4    1.833185 S    
C35   C37   1.417992 A    
C33   C51   1.447613 S    
O9    C4    1.308700 A    
N14   O34   1.300726 A    
C11   C47   1.503278 S    
O18   C47   1.307231 A    
N10   O30   1.300673 A    
C5    H1    1.082469 S    
C20   C21   1.478207 S    
C9    C11   1.447043 A    
C15   C54   1.446026 S    
C44   N7    1.419807 S    
C45   O16   1.300729 A    
C38   C39   1.430575 A    
C12   C13   1.435360 A    
C26   C27   1.476291 S    
O19   V4    1.850943 S    
C49   N2    1.157179 T    
C37   C38   1.418482 A    
C13   C14   1.427159 A    
O16   V4    2.011913 S    
O17   V3    2.128950 S    
C22   C23   1.478236 S    
O2    C1    1.311762 A    
N1    O21   1.301003 A    
C43   N14   1.433123 S    
C17   C18   1.398775 A    
N7    O28   1.300993 A    
C34   C35   1.413687 A    
C30   C46   1.501946 S    
C42   C43   1.390567 A    
C5    C6    1.383579 A    
C4    C14   1.498602 S    
N12   O32   1.301445 A    
N1    O22   1.301398 A    
O3    C4    1.297188 A    
O1    V2    2.008113 S    
O13   C48   1.313172 A    
C35   C36   1.431593 A    
C1    C25   1.503555 S    
O6    V2    1.832824 S    
O9    V2    2.004126 S    
C18   C55   1.444242 S    
C37   C45   1.495935 S    
C29   C30   1.245314 T    
C2    C40   1.506463 S    
O2    V1    1.865238 S    
C7    C53   1.451542 S    
C39   C40   1.448831 A    
O4    C2    1.301796 A    
C13   C18   1.423813 A    
C33   C34   1.386203 A    
C27   C28   1.245424 T    
O1    C2    1.305161 A    
C50   N3    1.157391 T    
O5    V1    1.841489 S    
O8    C3    1.314817 A    
C17   N1    1.441041 S    
C55   N13   1.156078 T    
O14   V3    1.865312 S    
C5    C10   1.418497 A    
C38   C41   1.431653 A    
C19   C20   1.246461 T    
N6    O26   1.301240 A    
O7    V2    1.710828 S    
O19   C48   1.315589 A    
O3    V1    2.017310 S    
V1    O10   1.690306 S    
O11   C46   1.312566 A    
C34   H2    1.082139 S    
O13   V3    1.841315 S    
N7    O27   1.300221 A    
C36   C40   1.443439 A    
C31   C49   1.450698 S    
C54   N11   1.156744 T    
C32   C50   1.454645 S    
C42   N6    1.437443 S    
N12   O31   1.301184 A    
C39   C44   1.433126 A    
C11   C12   1.445059 A    
C16   N12   1.439096 S    
O4    V1    2.019775 S    
C8    C9    1.436698 A    
O12   V3    2.019680 S    
C23   C24   1.246509 T    
C51   N4    1.157321 T    
C10   C14   1.412156 A    
C15   C16   1.410455 A    
C6    C52   1.447310 S    
C9    C10   1.428011 A    
