data_mof_unit_48101.cif
_audit_creation_date              2012-12-10T16:53:58-0500
_audit_creation_method            fapswitch 2.2
_symmetry_space_group_name_H-M    P1
_symmetry_Int_Tables_number       1
_space_group_crystal_system       triclinic
_cell_length_a                    7.772558
_cell_length_b                    8.567401
_cell_length_c                    10.616693
_cell_angle_alpha                 91.295599
_cell_angle_beta                  85.149008
_cell_angle_gamma                 93.832172
_cell_volume                      702.762480359

loop_
_atom_site_label
_atom_site_type_symbol
_atom_type_description
_atom_site_fract_x
_atom_site_fract_y
_atom_site_fract_z
_atom_type_partial_charge
C1    C     C_R   0.545906 0.794779 0.496748 0.973300
C2    C     C_3   0.431562 0.657096 0.933169 -0.434913
C3    C     C_3   0.427023 0.657710 0.078682 -0.133560
C4    C     C_3   0.388121 0.360826 0.932143 -0.400822
C5    C     C_3   0.690178 0.492031 0.916227 -0.404061
C6    C     C_3   0.503109 0.502636 0.878233 0.169116
C7    C     C_1   0.521123 0.800135 0.125737 0.133264
C8    C     C_3   0.501044 0.504179 0.121122 0.132847
C9    C     C_3   0.387106 0.361591 0.076594 -0.442392
C10   C     C_3   0.689101 0.491133 0.059126 -0.382968
C11   C     C_2   0.570024 0.958357 0.494843 -0.366046
C12   C     C_2   0.429968 0.041627 0.505020 -0.386984
C13   C     C_R   0.501396 0.501000 0.742099 0.834071
C14   C     C_R   0.454091 0.205215 0.503200 0.967876
C15   C     C_R   0.499627 0.500760 0.257799 0.845184
H1    H     H_    0.297893 0.668349 0.905630 0.169251
H2    H     H_    0.289898 0.661267 0.118053 0.139425
H3    H     H_    0.253051 0.365688 0.905596 0.181693
H4    H     H_    0.251606 0.366411 0.119244 0.175508
H5    H     H_    0.745807 0.383192 0.876254 0.183050
H6    H     H_    0.774866 0.593457 0.878779 0.172709
H7    H     H_    0.776627 0.589910 0.090706 0.184710
H8    H     H_    0.741921 0.380575 0.087459 0.182915
H9    H     H_    0.438070 0.249631 0.892383 0.163846
H10   H     H_    0.436839 0.250780 0.107216 0.182057
H11   H     H_    0.702195 0.009698 0.484997 0.179038
H12   H     H_    0.297797 0.990275 0.514754 0.178120
H13   H     H_    0.014023 0.382442 0.404341 0.188074
H14   H     H_    0.985971 0.617544 0.595667 0.185413
H15   H     H_    0.512740 0.758651 0.891979 0.158007
N1    N     N_2   0.950330 0.457950 0.465890 -0.176231
N2    N     N_2   0.049670 0.542050 0.534110 -0.177038
N3    N     N_1   0.594650 0.911620 0.162533 -0.228605
O1    O     O_R   0.389250 0.738570 0.508370 -0.612924
O2    O     O_R   0.678390 0.711620 0.486510 -0.627667
O3    O     O_R   0.355430 0.513500 0.696140 -0.629364
O4    O     O_R   0.644580 0.486550 0.674270 -0.637139
O5    O     O_R   0.321610 0.288380 0.513490 -0.629418
O6    O     O_R   0.610750 0.261430 0.491630 -0.609826
O7    O     O_R   0.355420 0.513450 0.325730 -0.635958
O8    O     O_R   0.644570 0.486500 0.303860 -0.625338
Zn1   Zn    Zn3+2 0.306940 0.517990 0.514600 0.928936
Zn2   Zn    Zn3+2 0.693060 0.482010 0.485400 0.932844

loop_
_geom_bond_atom_site_label_1
_geom_bond_atom_site_label_2
_ccdc_geom_bond_type
O4    Zn2   S    
C11   C12   D    
O5    Zn1   S    
C10   H8    S    
C8    C15   S    
C2    H1    S    
O3    Zn1   S    
N1    N2    D    
O1    Zn1   S    
C2    H15   S    
C4    H3    S    
O7    Zn1   S    
C2    C3    S    
C4    C9    S    
C9    H10   S    
C5    C10   S    
C5    H5    S    
C10   H7    S    
C6    C13   S    
O8    Zn2   S    
C15   O8    A    
C2    C6    S    
N1    Zn2   S    
C4    C6    S    
C12   C14   S    
C1    O1    A    
C3    H2    S    
H14   N2    S    
C3    C7    S    
C5    C6    S    
C4    H9    S    
C15   O7    A    
C14   O5    A    
C7    N3    T    
C12   H12   S    
O2    Zn2   S    
C1    O2    A    
C13   O3    A    
C8    C10   S    
C3    C8    S    
N2    Zn1   S    
O6    Zn2   S    
C11   H11   S    
C14   O6    A    
C13   O4    A    
C9    H4    S    
H13   N1    S    
C8    C9    S    
C5    H6    S    
C1    C11   S    
