data_mof_unit_25948.cif
_audit_creation_date              2012-12-10T17:50:42-0500
_audit_creation_method            fapswitch 2.2
_symmetry_space_group_name_H-M    P1
_symmetry_Int_Tables_number       1
_space_group_crystal_system       triclinic
_cell_length_a                    14.782957
_cell_length_b                    14.56763
_cell_length_c                    15.926192
_cell_angle_alpha                 75.77129
_cell_angle_beta                  103.103512
_cell_angle_gamma                 114.892305
_cell_volume                      2985.90860809

loop_
_atom_site_label
_atom_site_type_symbol
_atom_type_description
_atom_site_fract_x
_atom_site_fract_y
_atom_site_fract_z
_atom_type_partial_charge
C1    C     C_R   0.880370 0.310858 0.511356 0.891751
C2    C     C_R   0.119630 0.689142 0.488644 0.891751
C3    C     C_R   0.778752 0.015475 0.546014 0.426892
C4    C     C_R   0.221247 0.984526 0.453985 0.426892
C5    C     C_R   0.847153 0.118723 0.547082 0.217391
C6    C     C_R   0.152847 0.881277 0.452917 0.217391
C7    C     C_R   0.709885 0.174644 0.480040 0.279396
C8    C     C_R   0.290115 0.825356 0.519959 0.279397
C9    C     C_R   0.639389 0.073768 0.501544 -0.108409
C10   C     C_R   0.360611 0.926232 0.498454 -0.108409
C11   C     C_R   0.674046 0.992533 0.524661 -0.043825
C12   C     C_R   0.325954 0.007467 0.475338 -0.043825
C13   C     C_R   0.535100 0.051361 0.497473 0.082391
C14   C     C_R   0.464899 0.948639 0.502525 0.082391
C15   C     C_R   0.499963 0.871549 0.505985 -0.238974
C16   C     C_R   0.500037 0.128452 0.494013 -0.238974
C17   C     C_R   0.603020 0.890804 0.521886 0.491528
C18   C     C_R   0.396980 0.109196 0.478112 0.491528
C19   C     C_R   0.697617 0.645021 0.335455 0.347635
C20   C     C_R   0.302383 0.354979 0.664545 0.347635
C21   C     C_R   0.784671 0.623126 0.364270 0.539823
C22   C     C_R   0.215329 0.376874 0.635730 0.539822
C23   C     C_R   0.999933 0.499856 0.659976 0.813902
C24   C     C_R   0.000067 0.500144 0.340024 0.813902
C25   C     C_R   0.719446 0.516987 0.493776 -0.012625
C26   C     C_R   0.280554 0.483013 0.506224 -0.012625
C27   C     C_R   0.628094 0.534740 0.466942 -0.078993
C28   C     C_R   0.371906 0.465259 0.533058 -0.078992
C29   C     C_R   0.619881 0.601262 0.386943 0.034121
C30   C     C_R   0.380118 0.398738 0.613056 0.034121
C31   C     C_R   0.544487 0.488601 0.515747 0.118838
C32   C     C_R   0.455513 0.511398 0.484253 0.118838
C33   C     C_R   0.453354 0.580055 0.405321 -0.246959
C34   C     C_R   0.546646 0.419944 0.594679 -0.246958
C35   C     C_R   0.533358 0.623467 0.357944 -0.061704
C36   C     C_R   0.466642 0.376532 0.642055 -0.061704
C37   C     C_3   0.975669 0.404851 0.044325 0.258414
C38   C     C_3   0.024332 0.595149 0.955675 0.258414
C39   C     C_3   0.909017 0.441125 0.966098 0.249049
C40   C     C_3   0.090983 0.558875 0.033902 0.249049
C41   C     C_1   0.000028 0.499805 0.749414 -0.081251
C42   C     C_1   0.999972 0.500195 0.250586 -0.081251
C43   C     C_3   0.068117 0.462869 0.995105 0.249310
C44   C     C_3   0.931883 0.537132 0.004895 0.249309
C45   C     C_3   0.000705 0.499555 0.916288 -0.136524
C46   C     C_3   0.999296 0.500445 0.083712 -0.136523
C47   C     C_1   0.000254 0.499725 0.824765 0.210284
C48   C     C_1   0.999746 0.500275 0.175235 0.210283
C49   C     C_R   0.812718 0.200005 0.513360 -0.245048
C50   C     C_R   0.187281 0.799995 0.486639 -0.245048
Cu1   Cu    Cu3+1 0.081740 0.475690 0.522610 1.035733
Cu2   Cu    Cu3+1 0.918260 0.524310 0.477390 1.035733
H1    H     H_    0.268668 0.532864 0.446497 0.154074
H2    H     H_    0.731332 0.467136 0.553503 0.154074
H3    H     H_    0.390515 0.602227 0.377729 0.150217
H4    H     H_    0.609485 0.397773 0.622270 0.150217
H5    H     H_    0.447349 0.795179 0.496266 0.173474
H6    H     H_    0.552651 0.204822 0.503731 0.173474
H7    H     H_    0.526421 0.675182 0.297280 0.215774
H8    H     H_    0.473579 0.324817 0.702720 0.215774
N1    N     N_R   0.795440 0.560790 0.443380 -0.236124
N2    N     N_R   0.204560 0.439210 0.556620 -0.236123
O1    O     O_R   0.977900 0.338120 0.529810 -0.567228
O2    O     O_R   0.022100 0.661880 0.470190 -0.567227
O3    O     O_R   0.839850 0.379180 0.491620 -0.546213
O4    O     O_R   0.160150 0.620820 0.508380 -0.546212
O5    O     O_R   0.069010 0.479460 0.640020 -0.543166
O6    O     O_R   0.930990 0.520540 0.359980 -0.543166
O7    O     O_R   0.930960 0.520530 0.601820 -0.585597
O8    O     O_R   0.069040 0.479470 0.398180 -0.585597
O9    O     O_3   0.814056 0.378259 0.929779 -0.652519
H9    H     H_    0.772015 0.351075 0.977602 0.374305
O10   O     O_3   0.185944 0.621741 0.070221 -0.652520
H10   H     H_    0.227986 0.648925 0.022398 0.374305
O11   O     O_3   0.144829 0.338177 0.691985 -0.691274
H11   H     H_    0.078113 0.320040 0.657158 0.391688
O12   O     O_3   0.855171 0.661823 0.308015 -0.691274
H12   H     H_    0.921887 0.679960 0.342842 0.391688
O13   O     O_3   0.686021 0.708545 0.256709 -0.688000
H13   H     H_    0.748585 0.740054 0.229633 0.399904
O14   O     O_3   0.313979 0.291455 0.743291 -0.688000
H14   H     H_    0.251415 0.259945 0.770366 0.399904
O15   O     O_3   0.948761 0.304944 0.091650 -0.632053
H15   H     H_    0.937454 0.260925 0.048632 0.372546
O16   O     O_3   0.051239 0.695056 0.908350 -0.632053
H16   H     H_    0.062546 0.739075 0.951368 0.372546
Cl1   Cl    Cl    0.841901 0.586151 0.010433 -0.442600
Cl2   Cl    Cl    0.158099 0.413849 0.989567 -0.442600
O17   O     O_3   0.634860 0.811600 0.531452 -0.634876
H17   H     H_    0.575658 0.745810 0.528623 0.326911
O18   O     O_3   0.365140 0.188400 0.468546 -0.634876
H18   H     H_    0.424342 0.254190 0.471375 0.326911
Cl3   Cl    Cl    0.325722 0.741586 0.610306 -0.547911
Cl4   Cl    Cl    0.674279 0.258414 0.389693 -0.547911
Cl5   Cl    Cl    0.025343 0.857926 0.409447 -0.566844
Cl6   Cl    Cl    0.974657 0.142074 0.590554 -0.566844
O19   O     O_3   0.811783 0.935607 0.570846 -0.598995
H19   H     H_    0.881707 0.960286 0.558799 0.382360
O20   O     O_3   0.188217 0.064393 0.429153 -0.598995
H20   H     H_    0.118293 0.039714 0.441201 0.382360

loop_
_geom_bond_atom_site_label_1
_geom_bond_atom_site_label_2
_ccdc_geom_bond_type
C33   H3    S    
C34   H4    S    
C27   C29   A    
C24   C42   S    
O10   H10   S    
C23   O7    A    
O14   H14   S    
C24   O8    A    
C20   C30   A    
O12   H12   S    
C40   C46   S    
C43   Cl2   S    
C19   C21   A    
Cu2   N1    S    
C40   O10   S    
C35   H7    S    
C23   O5    A    
C9    C13   A    
C38   C45   S    
Cu2   O7    S    
C2    C50   S    
C40   C43   S    
C31   C32   A    
C44   C46   S    
C1    O3    A    
Cu1   O8    S    
C4    C12   A    
C44   Cl1   S    
C21   N1    A    
Cu2   O6    S    
C39   C45   S    
C20   O14   S    
C15   H5    S    
C5    C49   A    
Cu1   N2    S    
C22   O11   S    
C1    O1    A    
C25   N1    A    
C2    O2    A    
O19   H19   S    
C45   C47   S    
C46   C48   S    
C38   O16   S    
C27   C31   A    
Cu1   Cu2   S    
C28   C32   A    
Cu1   O1    S    
C25   H2    S    
C7    C49   A    
C4    C6    A    
Cu2   O2    S    
O18   H18   S    
C42   C48   T    
C3    C5    A    
O16   H16   S    
Cu1   O4    S    
C37   C43   S    
O11   H11   S    
C38   C44   S    
C22   N2    A    
C43   C45   S    
C3    O19   S    
O15   H15   S    
C41   C47   T    
C31   C34   A    
C17   O17   S    
C16   H6    S    
C6    C50   A    
C19   O13   S    
C9    C11   A    
C10   C12   A    
C16   C18   A    
C20   C22   A    
C10   C14   A    
C4    O20   S    
C18   O18   S    
C21   O12   S    
C19   C29   A    
C26   H1    S    
C8    C50   A    
C5    Cl6   S    
C15   C17   A    
C7    Cl4   S    
C37   C46   S    
C11   C17   A    
C8    Cl3   S    
C36   H8    S    
C2    O4    A    
C39   C44   S    
C25   C27   A    
C29   C35   A    
C26   C28   A    
C23   C41   S    
O20   H20   S    
C30   C36   A    
C32   C33   A    
C28   C30   A    
C26   N2    A    
O9    H9    S    
C37   C39   S    
C38   C40   S    
Cu1   O5    S    
C33   C35   A    
C34   C36   A    
C3    C11   A    
C24   O6    A    
O13   H13   S    
C7    C9    A    
C8    C10   A    
C6    Cl5   S    
C13   C16   A    
C12   C18   A    
C39   O9    S    
C14   C15   A    
C37   O15   S    
O17   H17   S    
C13   C14   A    
C1    C49   S    
Cu2   O3    S    
