data_mof_unit_32410.cif
_audit_creation_date              2012-10-26T18:26:36-0400
_audit_creation_method            fapswitch 2.2
_symmetry_space_group_name_H-M    P1
_symmetry_Int_Tables_number       1
_space_group_crystal_system       triclinic
_cell_length_a                    15.833272
_cell_length_b                    8.741105
_cell_length_c                    7.442156
_cell_angle_alpha                 102.664689
_cell_angle_beta                  94.199981
_cell_angle_gamma                 92.316113
_cell_volume                      1000.54868698

loop_
_atom_site_label
_atom_site_type_symbol
_atom_type_description
_atom_site_fract_x
_atom_site_fract_y
_atom_site_fract_z
_atom_type_partial_charge
C1    C     C_R   0.495669 0.200330 0.454450 0.549873
C2    C     C_3   0.977149 0.644012 0.582520 -0.112286
C3    C     C_1   0.250481 0.500578 0.506645 0.031951
C4    C     C_1   0.749519 0.499422 0.493355 0.031932
C5    C     C_3   0.032908 0.536684 0.674200 0.089251
C6    C     C_3   0.967092 0.463317 0.325801 0.089260
C7    C     C_3   0.083152 0.500330 0.503470 -0.010429
C8    C     C_3   0.916848 0.499671 0.496532 -0.010415
C9    C     C_1   0.174911 0.500658 0.506536 -0.004713
C10   C     C_1   0.825089 0.499343 0.493464 -0.004720
C11   C     C_2   0.928415 0.423560 0.130429 0.604870
C12   C     C_R   0.504318 0.799669 0.545552 0.549924
C13   C     C_2   0.071580 0.576446 0.869577 0.604880
C14   C     C_2   0.412275 0.956323 0.293113 0.579239
C15   C     C_2   0.587649 0.043706 0.706970 0.579262
C16   C     C_R   0.339962 0.499985 0.502266 0.561910
C17   C     C_R   0.660038 0.500014 0.497733 0.561867
C18   C     C_2   0.481041 0.034684 0.435852 -0.009890
C19   C     C_2   0.518920 0.965317 0.564161 -0.009845
C20   C     C_3   0.971525 0.392884 0.590601 -0.126187
C21   C     C_3   0.028475 0.607116 0.409401 -0.126181
C22   C     C_3   0.022851 0.355988 0.417481 -0.112288
Cu1   Cu    Cu3+1 0.509330 0.517380 0.684380 1.062615
Cu2   Cu    Cu3+1 0.490670 0.482620 0.315620 1.062651
H1    H     H_    0.042729 0.238516 0.349135 0.169241
H2    H     H_    0.565183 0.622708 0.051410 0.253871
H3    H     H_    0.957271 0.761485 0.650865 0.169255
H4    H     H_    0.947070 0.305564 0.664922 0.180438
H5    H     H_    0.052932 0.694438 0.335084 0.180462
H6    H     H_    0.857636 0.493143 0.929821 0.338660
H7    H     H_    0.142401 0.506922 0.070161 0.338666
H8    H     H_    0.363704 0.916486 0.027539 0.349392
H9    H     H_    0.636043 0.083855 0.972700 0.349387
H10   H     H_    0.434818 0.377291 0.948590 0.253917
N1    N     N_2   0.476600 0.456420 0.038510 -0.239771
N2    N     N_2   0.523400 0.543580 0.961490 -0.239813
O1    O     O_R   0.506070 0.286130 0.619780 -0.503611
O2    O     O_R   0.880320 0.532881 0.063684 -0.670490
O3    O     O_2   0.060938 0.703941 0.969395 -0.504473
O4    O     O_R   0.119733 0.467191 0.936287 -0.670548
O5    O     O_2   0.353768 0.879489 0.335919 -0.507105
O6    O     O_R   0.413626 0.974613 0.111298 -0.634892
O7    O     O_2   0.646240 0.120339 0.664160 -0.507113
O8    O     O_R   0.586140 0.025711 0.888880 -0.634873
O9    O     O_R   0.493930 0.713870 0.380220 -0.503574
O10   O     O_R   0.490300 0.256770 0.308360 -0.456975
O11   O     O_R   0.509700 0.743230 0.691640 -0.457074
O12   O     O_R   0.386960 0.514660 0.655680 -0.509428
O13   O     O_R   0.613040 0.485340 0.344320 -0.509461
O14   O     O_R   0.371190 0.485310 0.344260 -0.481044
O15   O     O_R   0.628810 0.514690 0.655740 -0.481093
O16   O     O_2   0.938995 0.296009 0.030648 -0.504479

loop_
_geom_bond_atom_site_label_1
_geom_bond_atom_site_label_2
_ccdc_geom_bond_type
C11   O2    S    
Cu1   Cu2   S    
C2    H3    S    
C3    C9    T    
C7    C22   S    
C11   O16   D    
C14   C18   S    
C5    C13   S    
N1    N2    D    
C1    O1    A    
C14   O6    S    
Cu2   O10   S    
C16   O12   A    
C2    C21   S    
C15   O7    D    
C5    C20   S    
C7    C21   S    
C15   C19   S    
H9    O8    S    
C17   O15   A    
C1    C18   S    
C8    C20   S    
C14   O5    D    
C4    C17   S    
C12   C19   S    
H2    N2    S    
C20   C22   S    
C15   O8    S    
H10   N1    S    
C12   O11   A    
Cu2   O14   S    
C1    O10   A    
C13   O3    D    
Cu2   N1    S    
Cu1   O11   S    
Cu2   O9    S    
C4    C10   T    
C2    C5    S    
C7    C9    S    
C6    C11   S    
H7    O4    S    
H6    O2    S    
C8    C10   S    
Cu1   N2    S    
C17   O13   A    
Cu2   O13   S    
C5    C7    S    
H8    O6    S    
C18   C19   D    
C13   O4    S    
C6    C8    S    
Cu1   O12   S    
C20   H4    S    
Cu1   O1    S    
C6    C21   S    
C21   H5    S    
C3    C16   S    
C2    C8    S    
Cu1   O15   S    
C16   O14   A    
C12   O9    A    
C22   H1    S    
C6    C22   S    
