data_mof_unit_42697.cif
_audit_creation_date              2012-12-10T17:19:26-0500
_audit_creation_method            fapswitch 2.2
_symmetry_space_group_name_H-M    P1
_symmetry_Int_Tables_number       1
_space_group_crystal_system       triclinic
_cell_length_a                    15.024859
_cell_length_b                    10.828668
_cell_length_c                    9.695378
_cell_angle_alpha                 88.958566
_cell_angle_beta                  89.60896
_cell_angle_gamma                 93.114671
_cell_volume                      1574.79173969

loop_
_atom_site_label
_atom_site_type_symbol
_atom_type_description
_atom_site_fract_x
_atom_site_fract_y
_atom_site_fract_z
_atom_type_partial_charge
C1    C     C_R   0.495807 0.262782 0.501683 0.825648
C2    C     C_R   0.914196 0.623340 0.466667 0.088734
C3    C     C_R   0.938810 0.285378 0.431143 0.596689
C4    C     C_R   0.031075 0.281160 0.411415 0.059575
C5    C     C_R   0.087992 0.385678 0.448070 0.026046
C6    C     C_R   0.047759 0.500955 0.468068 -0.056525
C7    C     C_R   0.100533 0.610282 0.493175 0.101072
C8    C     C_R   0.061457 0.726057 0.493861 0.173010
C9    C     C_R   0.971323 0.732509 0.457516 0.145941
C10   C     C_R   0.182306 0.381427 0.466132 0.161234
C11   C     C_R   0.232323 0.491659 0.497432 -0.029980
C12   C     C_R   0.329298 0.497538 0.500035 0.776579
C13   C     C_R   0.192151 0.602969 0.509454 -0.234918
C14   C     C_R   0.372621 0.113481 0.687303 -0.237125
C15   C     C_R   0.314084 0.042091 0.772013 -0.188288
C16   C     C_R   0.311235 0.914043 0.765417 0.626921
C17   C     C_R   0.366903 0.856713 0.673913 -0.259196
C18   C     C_R   0.429285 0.926941 0.590110 0.025487
C19   C     C_R   0.431270 0.057870 0.595034 0.009401
C20   C     C_R   0.490784 0.128355 0.505618 -0.214307
C21   C     C_R   0.548141 0.069539 0.417458 0.620542
C22   C     C_R   0.547891 0.942556 0.416750 -0.283408
C23   C     C_R   0.496363 0.736798 0.499491 0.773073
C24   C     C_R   0.489185 0.870301 0.500425 -0.148766
C25   C     C_R   0.649956 0.602952 0.133782 0.243094
C26   C     C_R   0.730349 0.592275 0.063037 -0.214875
C27   C     C_R   0.728395 0.602747 0.919308 0.119032
C28   C     C_R   0.644579 0.618332 0.857745 0.278764
C29   C     C_R   0.571553 0.553670 0.923987 0.001210
C30   C     C_R   0.572513 0.550835 0.071681 0.127885
C31   C     C_R   0.431206 0.448263 0.075713 -0.108709
C32   C     C_R   0.431449 0.447216 0.928572 0.690000
C33   C     C_R   0.670993 0.504096 0.498615 0.808382
C34   C     C_R   0.819525 0.625001 0.480651 0.121903
C35   C     C_R   0.768380 0.510874 0.491141 -0.100913
C36   C     C_R   0.808632 0.399508 0.475592 -0.188370
C37   C     C_R   0.900559 0.396807 0.459609 -0.034794
C38   C     C_R   0.954132 0.507210 0.465262 -0.095757
Cu1   Cu    Cu3+1 0.499990 0.499990 0.640660 0.999138
Cu2   Cu    Cu3+1 0.500010 0.500010 0.359340 0.986363
H1    H     H_    0.369992 0.212117 0.695371 0.230966
H2    H     H_    0.270077 0.086644 0.842120 0.185014
H3    H     H_    0.359474 0.757237 0.669408 0.180281
H4    H     H_    0.596873 0.901761 0.353847 0.175807
H5    H     H_    0.374829 0.405080 0.131453 0.166707
H6    H     H_    0.792751 0.610577 0.116398 0.167392
H7    H     H_    0.767117 0.314322 0.474226 0.222020
H8    H     H_    0.234732 0.685081 0.525861 0.142962
N1    N     N_R   0.500860 0.501210 0.147910 -0.214811
N2    N     N_R   0.500890 0.501290 0.852040 -0.236645
O1    O     O_R   0.499990 0.319640 0.618810 -0.573598
O2    O     O_R   0.500000 0.319660 0.381240 -0.524639
O3    O     O_R   0.370250 0.499960 0.618800 -0.519996
O4    O     O_R   0.370260 0.499980 0.381230 -0.587094
O5    O     O_R   0.500000 0.680340 0.618760 -0.590974
O6    O     O_R   0.500010 0.680360 0.381190 -0.578715
O7    O     O_R   0.629740 0.500020 0.618770 -0.575507
O8    O     O_R   0.629750 0.500040 0.381200 -0.557798
C39   C     C_3   0.774070 0.745116 0.498773 -0.873793
H9    H     H_    0.703097 0.729850 0.523650 0.199834
H10   H     H_    0.805438 0.799762 0.582629 0.249861
H11   H     H_    0.775343 0.800884 0.402459 0.245298
F1    F     F_    0.253744 0.844848 0.847474 -0.668432
C40   C     C_3   0.643283 0.726012 0.199205 -0.808561
H12   H     H_    0.697077 0.794258 0.163803 0.214017
H13   H     H_    0.579332 0.767025 0.172000 0.241293
H14   H     H_    0.649493 0.715003 0.310651 0.243495
C41   C     C_3   0.813948 0.627651 0.840736 -0.803011
H15   H     H_    0.872788 0.614630 0.907149 0.232491
H16   H     H_    0.817088 0.561633 0.755454 0.248605
H17   H     H_    0.818461 0.724076 0.800488 0.235127
C42   C     C_3   0.628692 0.751092 0.817380 -0.780185
H18   H     H_    0.639662 0.768508 0.707165 0.233535
H19   H     H_    0.559882 0.775996 0.843956 0.236753
H20   H     H_    0.674322 0.817080 0.872948 0.216863
F2    F     F_    0.360937 0.391290 0.864220 -0.672557
F3    F     F_    0.885249 0.181291 0.414302 -0.672483
C43   C     C_3   0.062700 0.171721 0.333624 -0.778456
H21   H     H_    0.093481 0.104762 0.403476 0.226744
H22   H     H_    0.007095 0.120251 0.281288 0.271532
H23   H     H_    0.108519 0.204188 0.248769 0.228324
C44   C     C_3   0.229778 0.261254 0.465532 -0.830217
H24   H     H_    0.299357 0.271966 0.500328 0.199754
H25   H     H_    0.196351 0.193096 0.538276 0.242065
H26   H     H_    0.234716 0.225116 0.359977 0.234443
C45   C     C_3   0.115356 0.843229 0.530632 -0.866674
H27   H     H_    0.149317 0.829055 0.630312 0.274304
H28   H     H_    0.165366 0.868236 0.448542 0.230553
H29   H     H_    0.072760 0.922353 0.546306 0.246526
C46   C     C_3   0.944899 0.847225 0.379575 -0.800596
H30   H     H_    0.900938 0.821541 0.292014 0.230355
H31   H     H_    0.913999 0.912917 0.449494 0.274682
H32   H     H_    0.003722 0.895999 0.329320 0.239233
F4    F     F_    0.608094 0.135559 0.335871 -0.641878

loop_
_geom_bond_atom_site_label_1
_geom_bond_atom_site_label_2
_ccdc_geom_bond_type
Cu1   O1    S    
C33   O8    A    
C35   C36   A    
C7    C8    A    
Cu1   O3    S    
C26   C27   A    
C37   C38   A    
C18   C24   A    
C36   C37   A    
C18   C19   A    
C5    C6    A    
C43   H22   S    
C21   F4    S    
Cu2   N1    S    
Cu1   O7    S    
C36   H7    S    
C34   C35   A    
C27   C41   S    
C22   H4    S    
C19   C20   A    
C8    C9    A    
C39   H11   S    
C23   C24   S    
C6    C38   A    
C16   F1    S    
C12   O3    A    
C2    C34   A    
C39   H9    S    
C21   C22   A    
C28   C42   S    
C31   N1    A    
C42   H20   S    
C29   N2    A    
Cu1   O5    S    
C39   H10   S    
Cu2   O8    S    
C45   H28   S    
C40   H14   S    
C23   O6    A    
C42   H19   S    
Cu1   Cu2   S    
C43   H21   S    
C41   H15   S    
Cu2   O6    S    
C25   C26   A    
Cu2   O2    S    
C10   C44   S    
C25   C40   S    
C40   H13   S    
C17   H3    S    
C4    C43   S    
C29   C30   A    
C2    C38   A    
C46   H31   S    
C31   C32   A    
C7    C13   A    
C17   C18   A    
C1    O1    A    
C32   N2    A    
C14   H1    S    
C30   N1    A    
Cu2   O4    S    
C34   C39   S    
C22   C24   A    
C3    C4    A    
C3    F3    S    
C46   H32   S    
C25   C30   A    
C28   C29   A    
C1    C20   S    
C33   O7    A    
C45   H27   S    
C14   C19   A    
C15   H2    S    
C42   H18   S    
C45   H29   S    
C9    C46   S    
C32   F2    S    
C13   H8    S    
C11   C12   S    
C23   O5    A    
C6    C7    A    
C44   H26   S    
C44   H25   S    
C40   H12   S    
C5    C10   A    
C11   C13   A    
C43   H23   S    
C46   H30   S    
C16   C17   A    
C41   H17   S    
C33   C35   S    
C8    C45   S    
C1    O2    A    
C10   C11   A    
C26   H6    S    
C4    C5    A    
Cu1   N2    S    
C20   C21   A    
C3    C37   A    
C41   H16   S    
C44   H24   S    
C31   H5    S    
C27   C28   A    
C14   C15   A    
C2    C9    A    
C12   O4    A    
C15   C16   A    
