data_mof_unit_22202.cif
_audit_creation_date              2012-10-26T19:52:58-0400
_audit_creation_method            fapswitch 2.2
_symmetry_space_group_name_H-M    P1
_symmetry_Int_Tables_number       1
_space_group_crystal_system       triclinic
_cell_length_a                    10.966879
_cell_length_b                    9.095325
_cell_length_c                    7.782471
_cell_angle_alpha                 89.999971
_cell_angle_beta                  89.999985
_cell_angle_gamma                 89.924876
_cell_volume                      776.280025983

loop_
_atom_site_label
_atom_site_type_symbol
_atom_type_description
_atom_site_fract_x
_atom_site_fract_y
_atom_site_fract_z
_atom_type_partial_charge
C1    C     C_R   0.499920 0.220006 0.499976 0.543430
C2    C     C_1   0.500032 0.934635 0.499978 -0.057564
C3    C     C_3   0.901107 0.689534 0.152951 0.009688
C4    C     C_3   0.833489 0.724667 0.987241 -0.342975
C5    C     C_3   0.098899 0.310475 0.152950 0.009695
C6    C     C_3   0.166500 0.275356 0.987222 -0.342964
C7    C     C_R   0.500080 0.779994 0.499976 0.543431
C8    C     C_R   0.264584 0.500930 0.499536 0.562302
C9    C     C_R   0.735415 0.499070 0.499536 0.562304
C10   C     C_2   0.933568 0.512587 0.355239 0.218714
C11   C     C_2   0.066432 0.487419 0.355238 0.218709
C12   C     C_2   0.867314 0.489030 0.498573 -0.138405
C13   C     C_2   0.132686 0.510972 0.498573 -0.138406
C14   C     C_1   0.499968 0.065365 0.499978 -0.057564
Cu1   Cu    Cu3+1 0.500000 0.500000 0.669080 1.001394
Cu2   Cu    Cu3+1 0.500000 0.500000 0.330920 1.049391
H1    H     H_    0.909458 0.456372 0.618664 0.046387
H2    H     H_    0.266154 0.290138 0.005966 0.182778
H3    H     H_    0.148632 0.159729 0.949065 0.083841
H4    H     H_    0.135007 0.349498 0.882788 0.161272
H5    H     H_    0.090542 0.543627 0.618665 0.046388
H6    H     H_    0.000286 0.706786 0.130112 0.160619
H7    H     H_    0.868892 0.766962 0.254367 0.111951
H8    H     H_    0.733837 0.709900 0.006012 0.182776
H9    H     H_    0.851364 0.840291 0.949081 0.083842
H10   H     H_    0.864960 0.650522 0.882799 0.161280
H11   H     H_    0.999718 0.293209 0.130137 0.160605
H12   H     H_    0.131136 0.233049 0.254359 0.111957
N1    N     N_1   0.500000 0.500000 0.076820 -0.080126
N2    N     N_1   0.500000 0.500000 0.923180 -0.085568
O1    O     O_R   0.500000 0.288390 0.642760 -0.501493
O2    O     O_3   0.123292 0.457379 0.199821 -0.518417
O3    O     O_R   0.500000 0.711610 0.642760 -0.501492
O4    O     O_R   0.500000 0.288370 0.357190 -0.503878
O5    O     O_R   0.500000 0.711630 0.357190 -0.503878
O6    O     O_R   0.321940 0.500000 0.642750 -0.516104
O7    O     O_R   0.678060 0.500000 0.642750 -0.516102
O8    O     O_R   0.321930 0.500000 0.357180 -0.444704
O9    O     O_R   0.678070 0.500000 0.357180 -0.444702
O10   O     O_3   0.876707 0.542632 0.199823 -0.518414

loop_
_geom_bond_atom_site_label_1
_geom_bond_atom_site_label_2
_ccdc_geom_bond_type
C12   H1    S    
C11   O2    S    
C4    H10   S    
Cu1   O1    S    
N1    N2    T    
C5    H12   S    
C6    H4    S    
C3    H7    S    
C2    C7    S    
C9    O9    A    
C5    O2    S    
C9    O7    A    
C4    H9    S    
Cu2   N1    S    
C13   H5    S    
C6    H3    S    
C11   C13   D    
C8    C13   S    
C8    O8    A    
C2    C14   T    
C10   C12   D    
C1    O4    A    
Cu2   O5    S    
C5    C6    S    
C4    H8    S    
C9    C12   S    
C6    H2    S    
C10   C11   S    
C7    O3    A    
Cu2   O9    S    
C3    C4    S    
Cu1   O6    S    
C1    O1    A    
Cu1   N2    S    
C10   O10   S    
C8    O6    A    
Cu1   O7    S    
C3    H6    S    
C1    C14   S    
Cu2   O4    S    
C3    O10   S    
C5    H11   S    
C7    O5    A    
Cu1   O3    S    
Cu1   Cu2   S    
Cu2   O8    S    
