data_mof_unit_14198.cif
_audit_creation_date              2012-10-26T21:02:13-0400
_audit_creation_method            fapswitch 2.2
_symmetry_space_group_name_H-M    P1
_symmetry_Int_Tables_number       1
_space_group_crystal_system       triclinic
_cell_length_a                    9.687829
_cell_length_b                    10.899471
_cell_length_c                    13.874963
_cell_angle_alpha                 89.896186
_cell_angle_beta                  84.655969
_cell_angle_gamma                 88.396375
_cell_volume                      1458.1481224

loop_
_atom_site_label
_atom_site_type_symbol
_atom_type_description
_atom_site_fract_x
_atom_site_fract_y
_atom_site_fract_z
_atom_type_partial_charge
C1    C     C_R   0.499010 0.733977 0.491200 0.548626
C2    C     C_R   0.502204 0.265589 0.501095 0.547506
C3    C     C_R   0.522639 0.500232 0.317019 0.531888
C4    C     C_1   0.536346 0.500780 0.213885 -0.045330
C5    C     C_2   0.549523 0.500777 0.023272 -0.122541
C6    C     C_2   0.433229 0.500726 0.977419 0.007348
C7    C     C_1   0.448978 0.500083 0.873142 -0.052116
C8    C     C_1   0.544854 0.500987 0.127041 -0.078821
C9    C     C_3   0.290104 0.500743 0.033195 -0.231552
C10   C     C_3   0.169349 0.503591 0.968696 -0.298247
C11   C     C_3   0.029604 0.505181 0.029530 -0.456581
C12   C     C_1   0.462585 0.499806 0.786227 -0.044580
C13   C     C_3   0.614081 0.123331 0.333012 -0.240580
C14   C     C_3   0.525058 0.073385 0.256849 -0.305492
C15   C     C_3   0.563180 0.130181 0.157655 -0.453604
C16   C     C_3   0.475163 0.083831 0.610668 -0.262808
C17   C     C_3   0.604656 0.045371 0.660474 -0.296356
C18   C     C_3   0.567597 0.015822 0.767161 -0.452670
C19   C     C_R   0.740731 0.882274 0.408363 0.061141
C20   C     C_R   0.758553 0.794258 0.333851 -0.052998
C21   C     C_R   0.891138 0.748500 0.301822 -0.119201
C22   C     C_R   0.007115 0.791559 0.342657 -0.132421
C23   C     C_2   0.573363 0.066850 0.432217 -0.022226
C24   C     C_R   0.990733 0.881136 0.415071 -0.122713
C25   C     C_R   0.858255 0.927156 0.447330 -0.099833
C26   C     C_2   0.511628 0.133438 0.508686 -0.004586
C27   C     C_2   0.600094 0.933608 0.441080 -0.036133
C28   C     C_2   0.491473 0.864270 0.469872 -0.144389
C29   C     C_2   0.074618 0.418665 0.542502 -0.017348
C30   C     C_2   0.919977 0.415036 0.537619 -0.023584
C31   C     C_R   0.477321 0.499771 0.683010 0.548859
Cu1   Cu    Cu3+1 0.361370 0.499980 0.499980 0.919299
Cu2   Cu    Cu3+1 0.638630 0.500020 0.500020 0.929842
H1    H     H_    0.894522 0.580029 0.477028 0.220907
H2    H     H_    0.174664 0.587031 0.922418 0.169791
H3    H     H_    0.176586 0.421163 0.921198 0.165339
H4    H     H_    0.282795 0.417057 0.079194 0.148395
H5    H     H_    0.279195 0.582360 0.081616 0.148598
H6    H     H_    0.544459 0.231091 0.160585 0.162217
H7    H     H_    0.673997 0.109908 0.133458 0.152950
H8    H     H_    0.498207 0.091202 0.104063 0.142308
H9    H     H_    0.539988 0.972137 0.250680 0.161632
H10   H     H_    0.413710 0.094461 0.279190 0.165579
H11   H     H_    0.603170 0.224784 0.332752 0.162469
H12   H     H_    0.650850 0.500522 0.982350 0.116382
H13   H     H_    0.725330 0.101396 0.311323 0.149156
H14   H     H_    0.521011 0.098102 0.806157 0.150371
H15   H     H_    0.493099 0.939964 0.774591 0.157264
H16   H     H_    0.662843 0.986811 0.800827 0.142694
H17   H     H_    0.655145 0.962444 0.625143 0.174598
H18   H     H_    0.679968 0.120785 0.654986 0.160569
H19   H     H_    0.418532 0.157151 0.655519 0.137959
H20   H     H_    0.401777 0.007853 0.611715 0.131899
H21   H     H_    0.669770 0.761173 0.300706 0.100495
H22   H     H_    0.903937 0.679807 0.245230 0.106455
H23   H     H_    0.387882 0.906357 0.476216 0.088214
H24   H     H_    0.109713 0.755987 0.317857 0.111906
H25   H     H_    0.080798 0.915232 0.445991 0.108372
H26   H     H_    0.847477 0.997548 0.502663 0.096693
H27   H     H_    0.122591 0.345707 0.582131 0.134809
H28   H     H_    0.109430 0.567432 0.459697 0.206876
H29   H     H_    0.867365 0.335382 0.568150 0.132035
H30   H     H_    0.020387 0.421856 0.075649 0.154026
H31   H     H_    0.018237 0.588117 0.076319 0.147818
H32   H     H_    0.944490 0.506848 0.981145 0.142427
N1    N     N_2   0.152970 0.501340 0.501040 -0.343555
N2    N     N_2   0.846830 0.501370 0.501060 -0.343850
O1    O     O_R   0.382960 0.678040 0.499980 -0.499735
O2    O     O_R   0.617100 0.678080 0.500020 -0.479379
O3    O     O_R   0.366380 0.499950 0.637830 -0.487201
O4    O     O_R   0.600520 0.499990 0.637860 -0.482669
O5    O     O_R   0.382900 0.321920 0.499980 -0.501036
O6    O     O_R   0.617040 0.321960 0.500020 -0.504942
O7    O     O_R   0.399480 0.500010 0.362140 -0.491442
O8    O     O_R   0.633620 0.500050 0.362170 -0.495193

loop_
_geom_bond_atom_site_label_1
_geom_bond_atom_site_label_2
_ccdc_geom_bond_type
H1    N2    S    
C17   H17   S    
C1    C28   S    
Cu1   O3    S    
C10   H2    S    
C23   C27   S    
C5    C8    S    
C3    O8    A    
C9    C10   S    
Cu1   N1    S    
C19   C20   A    
C29   H27   S    
C4    C8    T    
Cu1   O1    S    
Cu1   Cu2   S    
C17   H18   S    
C22   H24   S    
C31   O4    A    
C17   C18   S    
C28   H23   S    
C2    C26   S    
C21   C22   A    
C18   H14   S    
C16   C26   S    
C15   H6    S    
C29   C30   S    
C2    O6    A    
C6    C9    S    
C2    O5    A    
C5    C6    D    
C20   H21   S    
C9    H5    S    
C13   C23   S    
C6    C7    S    
C11   H30   S    
C13   H11   S    
C30   H29   S    
C12   C31   S    
Cu1   O7    S    
C7    C12   T    
C19   C25   A    
C22   C24   A    
C15   H7    S    
C10   C11   S    
Cu2   O4    S    
C15   H8    S    
C3    C4    S    
Cu2   O2    S    
C24   H25   S    
C11   H32   S    
C1    O1    A    
C19   C27   S    
C24   C25   A    
Cu2   N2    S    
C29   N1    D    
Cu1   O5    S    
C11   H31   S    
C30   N2    D    
C23   C26   D    
Cu2   O6    S    
C27   C28   D    
C21   H22   S    
C3    O7    A    
C13   H13   S    
C16   C17   S    
C10   H3    S    
C25   H26   S    
C13   C14   S    
C20   C21   A    
C14   C15   S    
C14   H9    S    
C5    H12   S    
H28   N1    S    
Cu2   O8    S    
C31   O3    A    
C1    O2    A    
C16   H19   S    
C18   H16   S    
C14   H10   S    
C16   H20   S    
C9    H4    S    
C18   H15   S    
