data_mof_unit_33338.cif
_audit_creation_date              2012-12-11T15:36:44-0500
_audit_creation_method            fapswitch 2.2
_symmetry_space_group_name_H-M    P1
_symmetry_Int_Tables_number       1
_space_group_crystal_system       triclinic
_cell_length_a                    15.064161
_cell_length_b                    15.075047
_cell_length_c                    34.849433
_cell_angle_alpha                 91.21213
_cell_angle_beta                  91.686531
_cell_angle_gamma                 60.109459
_cell_volume                      6858.1596644

loop_
_atom_site_label
_atom_site_type_symbol
_atom_type_description
_atom_site_fract_x
_atom_site_fract_y
_atom_site_fract_z
_atom_type_partial_charge
C1    C     C_R   0.610831 0.302586 0.444073 0.543413
C2    C     C_R   0.740610 0.689687 0.182790 0.031920
C3    C     C_R   0.610429 0.152377 0.830992 0.031153
C4    C     C_R   0.680599 0.171966 0.851495 -0.118925
C5    C     C_R   0.711409 0.136062 0.888722 -0.124740
C6    C     C_R   0.588678 0.262792 0.774904 -0.120680
C7    C     C_R   0.592150 0.274322 0.735518 -0.119649
C8    C     C_R   0.599144 0.198179 0.709877 0.026270
C9    C     C_R   0.596962 0.112923 0.723998 -0.116950
C10   C     C_R   0.594639 0.100737 0.763515 -0.113701
C11   C     C_R   0.593377 0.174266 0.789391 0.029291
C12   C     C_R   0.546531 0.198379 0.641220 -0.121294
C13   C     C_R   0.829663 0.628893 0.162124 -0.123778
C14   C     C_R   0.549867 0.220979 0.602809 -0.125544
C15   C     C_R   0.690013 0.252054 0.618354 -0.125136
C16   C     C_R   0.685637 0.230892 0.656755 -0.122297
C17   C     C_R   0.611689 0.207254 0.668641 0.028790
C18   C     C_R   0.619343 0.251452 0.591292 0.023003
C19   C     C_R   0.045036 0.739358 0.048697 0.542616
C20   C     C_R   0.747421 0.746631 0.064070 0.544679
C21   C     C_R   0.751371 0.040127 0.050739 0.541981
C22   C     C_R   0.017893 0.722216 0.939985 0.546889
C23   C     C_R   0.717170 0.730102 0.954924 0.541231
C24   C     C_R   0.830129 0.642322 0.122661 -0.126197
C25   C     C_R   0.721391 0.024517 0.942088 0.542054
C26   C     C_R   0.767714 0.587215 0.240953 -0.132605
C27   C     C_R   0.759026 0.579413 0.280233 -0.119409
C28   C     C_R   0.724636 0.665995 0.304150 0.014298
C29   C     C_R   0.704091 0.759463 0.288441 -0.122383
C30   C     C_R   0.712429 0.767909 0.249008 -0.001108
C31   C     C_R   0.741596 0.681708 0.224849 0.009477
C32   C     C_R   0.606947 0.736553 0.359393 -0.118812
C33   C     C_R   0.593381 0.610219 0.449423 0.544858
C34   C     C_R   0.574678 0.723132 0.394786 -0.126687
C35   C     C_R   0.731679 0.560655 0.402027 -0.127169
C36   C     C_R   0.763951 0.574187 0.366657 -0.120905
C37   C     C_R   0.700266 0.660527 0.344441 0.034015
C38   C     C_R   0.635104 0.633299 0.415765 0.021094
C39   C     C_R   0.099467 0.730584 0.085527 0.007125
C40   C     C_R   0.146032 0.637317 0.105217 -0.132075
C41   C     C_R   0.167987 0.634702 0.144376 -0.139499
C42   C     C_R   0.144542 0.724950 0.164540 0.013263
C43   C     C_R   0.106801 0.817394 0.144311 0.001210
C44   C     C_R   0.303681 0.591650 0.442451 0.542603
C45   C     C_R   0.085136 0.819487 0.104877 -0.130515
C46   C     C_R   0.215212 0.747450 0.227474 -0.097353
C47   C     C_R   0.223104 0.738910 0.267386 -0.111111
C48   C     C_R   0.165619 0.704810 0.287134 0.027121
C49   C     C_R   0.098009 0.682222 0.266329 -0.117084
C50   C     C_R   0.090422 0.690497 0.226469 -0.113268
C51   C     C_R   0.149885 0.721907 0.206809 0.029851
C52   C     C_R   0.193889 0.593947 0.343706 -0.120479
C53   C     C_R   0.226269 0.566787 0.381709 -0.126790
C54   C     C_R   0.230246 0.724424 0.391324 -0.127454
C55   C     C_R   0.605360 0.300941 0.553846 0.541819
C56   C     C_R   0.197815 0.751554 0.353332 -0.121846
C57   C     C_R   0.182869 0.684882 0.328809 0.031700
C58   C     C_R   0.248481 0.629981 0.405457 0.021007
C59   C     C_R   0.724872 0.097323 0.087264 0.020470
C60   C     C_R   0.799556 0.108561 0.108413 -0.121862
C61   C     C_R   0.784639 0.137059 0.147031 -0.121117
C62   C     C_R   0.694695 0.155383 0.164903 0.030713
C63   C     C_R   0.616370 0.153150 0.142889 -0.104261
C64   C     C_R   0.631341 0.124321 0.104357 -0.122684
C65   C     C_R   0.594702 0.239291 0.223634 -0.109142
C66   C     C_R   0.587182 0.606151 0.559219 0.541766
C67   C     C_R   0.585485 0.245038 0.263392 -0.107719
C68   C     C_R   0.667720 0.177387 0.287143 0.031353
C69   C     C_R   0.759414 0.103974 0.270381 -0.101414
C70   C     C_R   0.768845 0.098708 0.230628 -0.081794
C71   C     C_R   0.686526 0.166312 0.206951 0.040060
C72   C     C_R   0.741080 0.184988 0.351359 -0.120835
C73   C     C_R   0.727754 0.213917 0.389892 -0.124074
C74   C     C_R   0.554238 0.243408 0.385783 -0.129664
C75   C     C_R   0.567735 0.214147 0.347206 -0.121053
C76   C     C_R   0.659771 0.188978 0.329277 0.030939
C77   C     C_R   0.298536 0.588785 0.551886 0.543943
C78   C     C_R   0.632677 0.247913 0.406974 0.021118
C79   C     C_R   0.691055 0.689410 0.920127 0.020845
C80   C     C_R   0.764476 0.596218 0.903791 -0.128446
C81   C     C_R   0.751031 0.570367 0.866224 -0.125686
C82   C     C_R   0.664142 0.637360 0.844269 0.031883
C83   C     C_R   0.586509 0.725812 0.861861 -0.120648
C84   C     C_R   0.599664 0.751396 0.899474 -0.127503
C85   C     C_R   0.566879 0.649897 0.782933 -0.120663
C86   C     C_R   0.561532 0.648951 0.742880 -0.119095
C87   C     C_R   0.649374 0.620312 0.721358 0.027936
C88   C     C_R   0.741351 0.716751 0.103435 0.020686
C89   C     C_R   0.743281 0.589132 0.740540 -0.118145
C90   C     C_R   0.748508 0.590528 0.780535 -0.114486
C91   C     C_R   0.660136 0.622571 0.802195 0.030223
C92   C     C_R   0.714953 0.541294 0.657081 -0.123567
C93   C     C_R   0.701891 0.539535 0.617304 -0.128907
C94   C     C_R   0.548226 0.705746 0.620517 -0.125754
C95   C     C_R   0.561073 0.707171 0.660264 -0.122623
C96   C     C_R   0.642565 0.623482 0.678997 0.031302
C97   C     C_R   0.616242 0.620091 0.598783 0.021728
C98   C     C_R   0.071805 0.697035 0.903508 -0.002869
C99   C     C_R   0.650639 0.772815 0.123936 -0.119508
C100  C     C_R   0.095599 0.766734 0.887235 -0.140054
C101  C     C_R   0.129196 0.752958 0.849765 -0.159584
C102  C     C_R   0.139047 0.669713 0.827808 0.053810
C103  C     C_R   0.121892 0.595392 0.844800 0.146055
C104  C     C_R   0.089690 0.609103 0.882802 -0.117129
C105  C     C_R   0.233077 0.578143 0.768912 -0.088489
C106  C     C_R   0.242902 0.574295 0.729260 -0.122616
C107  C     C_R   0.178092 0.660028 0.706908 0.024402
C108  C     C_R   0.105045 0.750419 0.724571 -0.122692
C109  C     C_R   0.094284 0.753844 0.764176 -0.131800
C110  C     C_R   0.650288 0.759124 0.163304 -0.101191
C111  C     C_R   0.157312 0.667296 0.786505 0.041432
C112  C     C_R   0.205364 0.725132 0.646068 -0.122416
C113  C     C_R   0.233085 0.708826 0.607671 -0.128365
C114  C     C_R   0.216290 0.556807 0.606465 -0.124687
C115  C     C_R   0.189718 0.572597 0.644848 -0.122510
C116  C     C_R   0.188220 0.654372 0.665179 0.030608
C117  C     C_R   0.243290 0.621831 0.588111 0.022556
C118  C     C_R   0.672711 0.079851 0.906304 0.021284
C119  C     C_R   0.597055 0.066386 0.886959 -0.129883
C120  C     C_R   0.566409 0.102092 0.849479 -0.122721
Cr1   Cr    Cr6+3 0.426010 0.422500 0.497000 1.009826
Cr2   Cr    Cr6+3 0.651300 0.426310 0.501970 1.009129
Cr3   Cr    Cr6+3 0.422670 0.651170 0.501050 1.009057
Cr4   Cr    Cr6+3 0.905130 0.911420 0.992650 1.011278
Cr5   Cr    Cr6+3 0.911860 0.682710 0.002320 1.010554
Cr6   Cr    Cr6+3 0.682710 0.906840 0.004710 1.013302
H1    H     H_    0.580999 0.830304 0.109885 0.129854
H2    H     H_    0.500014 0.780557 0.404673 0.127049
H3    H     H_    0.899708 0.574165 0.176788 0.104292
H4    H     H_    0.780455 0.491085 0.417759 0.124562
H5    H     H_    0.158417 0.567570 0.091011 0.128561
H6    H     H_    0.048911 0.892259 0.090135 0.128691
H7    H     H_    0.187980 0.822992 0.342723 0.104405
H8    H     H_    0.277117 0.755165 0.282644 0.106324
H9    H     H_    0.261966 0.771242 0.212632 0.116679
H10   H     H_    0.198077 0.562916 0.159468 0.110684
H11   H     H_    0.052057 0.656906 0.280850 0.108354
H12   H     H_    0.901341 0.598283 0.107669 0.130420
H13   H     H_    0.038776 0.671503 0.210838 0.114171
H14   H     H_    0.183576 0.540720 0.325379 0.101925
H15   H     H_    0.239648 0.493519 0.391732 0.125222
H16   H     H_    0.245915 0.775189 0.409014 0.123779
H17   H     H_    0.872427 0.088249 0.096006 0.132051
H18   H     H_    0.572306 0.116708 0.088670 0.122302
H19   H     H_    0.504651 0.215564 0.330953 0.105235
H20   H     H_    0.514748 0.304012 0.275578 0.105109
H21   H     H_    0.530443 0.292442 0.205912 0.100524
H22   H     H_    0.836959 0.515293 0.355982 0.102796
H23   H     H_    0.845210 0.140270 0.163401 0.133449
H24   H     H_    0.823593 0.050309 0.288001 0.108005
H25   H     H_    0.839642 0.040081 0.218331 0.132224
H26   H     H_    0.812765 0.166225 0.338293 0.103352
H27   H     H_    0.789914 0.215898 0.405564 0.127694
H28   H     H_    0.546405 0.166755 0.156073 0.114598
H29   H     H_    0.480337 0.268488 0.398249 0.124748
H30   H     H_    0.835324 0.546292 0.919099 0.122651
H31   H     H_    0.541505 0.823645 0.911232 0.124878
H32   H     H_    0.505539 0.772447 0.676529 0.101749
H33   H     H_    0.774181 0.506712 0.291562 0.111363
H34   H     H_    0.488591 0.671032 0.728681 0.107581
H35   H     H_    0.497796 0.673471 0.798813 0.102664
H36   H     H_    0.811074 0.500470 0.853699 0.097984
H37   H     H_    0.811972 0.567083 0.724595 0.100472
H38   H     H_    0.821017 0.570723 0.794419 0.092957
H39   H     H_    0.778545 0.475898 0.670895 0.099409
H40   H     H_    0.755461 0.472235 0.601432 0.121829
H41   H     H_    0.518895 0.779388 0.845710 0.100359
H42   H     H_    0.481524 0.769110 0.607177 0.125476
H43   H     H_    0.084008 0.834441 0.902860 0.131639
H44   H     H_    0.790499 0.520353 0.222821 0.114409
H45   H     H_    0.071785 0.554539 0.895049 0.124687
H46   H     H_    0.174870 0.518377 0.659193 0.106982
H47   H     H_    0.301205 0.504552 0.715974 0.112106
H48   H     H_    0.283564 0.511355 0.785780 0.134439
H49   H     H_    0.143462 0.809799 0.837291 0.107965
H50   H     H_    0.054825 0.817159 0.707625 0.108723
H51   H     H_    0.034869 0.823140 0.777300 0.109173
H52   H     H_    0.204033 0.788923 0.661490 0.102888
H53   H     H_    0.253107 0.760369 0.594184 0.123671
H54   H     H_    0.580217 0.804773 0.178812 0.116281
H55   H     H_    0.222481 0.489666 0.592040 0.129209
H56   H     H_    0.566096 0.023106 0.899861 0.123973
H57   H     H_    0.769462 0.147986 0.903047 0.125849
H58   H     H_    0.737679 0.236516 0.677481 0.105456
H59   H     H_    0.591254 0.341942 0.725051 0.111677
H60   H     H_    0.585684 0.321584 0.794123 0.105080
H61   H     H_    0.511267 0.087054 0.834453 0.101656
H62   H     H_    0.601935 0.053595 0.704597 0.105645
H63   H     H_    0.599539 0.031155 0.773836 0.105549
H64   H     H_    0.489242 0.179825 0.649865 0.103390
H65   H     H_    0.679549 0.826244 0.306817 0.109899
H66   H     H_    0.494428 0.220026 0.582547 0.119043
H67   H     H_    0.716848 0.209397 0.837963 0.104332
H68   H     H_    0.743991 0.275833 0.610458 0.124702
H69   H     H_    0.555909 0.803464 0.342693 0.105277
O1    O     O_R   0.324990 0.503440 0.453910 -0.520658
O2    O     O_R   0.639980 0.519500 0.542640 -0.503438
O3    O     O_R   0.500750 0.673190 0.545480 -0.520272
O4    O     O_R   0.336260 0.640450 0.538210 -0.503220
O5    O     O_3   0.499990 0.499990 0.500010 -0.234505
O6    O     O_R   0.834210 0.019400 0.034570 -0.522556
O7    O     O_R   0.002210 0.824620 0.031030 -0.503357
O8    O     O_R   0.024400 0.669340 0.039790 -0.518906
O9    O     O_R   0.830490 0.694950 0.045870 -0.502834
O10   O     O_R   0.675430 0.831160 0.051290 -0.515930
O11   O     O_R   0.698870 0.998880 0.039560 -0.499437
O12   O     O_R   0.522030 0.339050 0.458320 -0.502861
O13   O     O_R   0.811290 0.006780 0.950620 -0.517292
O14   O     O_R   0.980960 0.812920 0.953200 -0.499400
O15   O     O_R   0.001480 0.656720 0.955830 -0.521120
O16   O     O_R   0.809240 0.683250 0.968050 -0.501390
O17   O     O_R   0.652500 0.818540 0.967340 -0.521021
O18   O     O_R   0.677620 0.987170 0.961730 -0.502611
O19   O     O_3   0.833240 0.833660 0.999890 -0.235828
O20   O     O_R   0.676180 0.324490 0.458320 -0.519400
O21   O     O_R   0.643570 0.521510 0.464260 -0.501702
O22   O     O_R   0.504630 0.675350 0.460920 -0.519639
O23   O     O_R   0.339850 0.642450 0.459830 -0.502089
O24   O     O_R   0.321120 0.501280 0.538470 -0.519822
O25   O     O_R   0.518440 0.337050 0.536710 -0.500288
O26   O     O_R   0.672300 0.322330 0.542880 -0.521019
C121  C     C_1   0.080689 0.912397 0.163912 0.174198
N1    N     N_1   0.059772 0.988489 0.179647 -0.337070
N2    N     N_2   0.129576 0.510849 0.823167 -0.527759
H70   H     H_    0.158544 0.444647 0.838965 0.242752
C122  C     C_3   0.036388 0.532531 0.802482 -0.311212
H71   H     H_    0.049621 0.464486 0.785179 0.134953
H72   H     H_    0.012145 0.597835 0.782685 0.169792
H73   H     H_    0.974458 0.550866 0.823053 0.131306
C123  C     C_1   0.690327 0.865590 0.233992 0.179995
N3    N     N_1   0.672473 0.943821 0.221903 -0.304386

loop_
_geom_bond_atom_site_label_1
_geom_bond_atom_site_label_2
_ccdc_geom_bond_type
C8    C9    A    
C15   C18   A    
Cr5   O9    S    
C101  C102  A    
C22   C98   S    
C49   H11   S    
C95   H32   S    
C85   H35   S    
C41   C42   A    
C14   C18   A    
Cr3   O3    S    
C95   C96   A    
C72   C76   A    
C9    H62   S    
N2    H70   S    
C56   H7    S    
Cr5   O16   S    
C7    C8    A    
Cr4   O19   S    
C85   C86   A    
C75   H19   S    
C59   C64   A    
C62   C63   A    
C90   H38   S    
C69   H24   S    
C66   C97   S    
Cr3   O4    S    
C36   C37   A    
C21   C59   S    
C77   C117  S    
C109  C111  A    
C60   H17   S    
C79   C84   A    
C98   C104  A    
C23   O17   A    
Cr6   O10   S    
C27   H33   S    
C15   C16   A    
C22   O14   A    
C22   O15   A    
C92   C96   A    
C108  C109  A    
C81   H36   S    
C49   C50   A    
C2    C13   A    
C118  C119  A    
C100  C101  A    
Cr6   O19   S    
Cr4   O14   S    
C46   H9    S    
C15   H68   S    
C92   H39   S    
C36   H22   S    
Cr5   O8    S    
C35   C36   A    
C44   C58   S    
C16   C17   A    
C72   H26   S    
Cr2   O26   S    
C12   C17   A    
C1    O20   A    
C107  C108  A    
C29   H65   S    
C70   C71   A    
C65   H21   S    
C25   O13   A    
C9    C10   A    
Cr1   O1    S    
Cr2   O5    S    
C42   C51   S    
C55   O26   A    
C14   H66   S    
C105  C111  A    
C40   H5    S    
C59   C60   A    
C34   C38   A    
C66   O2    A    
C25   C118  S    
C24   C88   A    
C1    C78   S    
Cr1   O24   S    
C102  C111  S    
C69   C70   A    
C55   O25   A    
C20   O10   A    
C32   H69   S    
C112  C113  A    
C33   O21   A    
C80   H30   S    
C121  N1    T    
C85   C91   A    
C4    H67   S    
C54   C56   A    
C44   O1    A    
C10   H63   S    
C74   C75   A    
C63   C64   A    
C102  C103  A    
C114  C117  A    
C47   C48   A    
C21   O6    A    
Cr3   O5    S    
C48   C57   S    
C43   C121  S    
C44   O23   A    
C20   O9    A    
C72   C73   A    
C10   C11   A    
C94   H42   S    
C6    C11   A    
C20   C88   S    
C50   H13   S    
C68   C69   A    
C99   H1    S    
C64   H18   S    
C94   C97   A    
C65   C67   A    
C65   C71   A    
C99   C110  A    
C83   H41   S    
C46   C51   A    
C19   O7    A    
C81   C82   A    
C82   C91   S    
C67   C68   A    
C13   C24   A    
Cr4   O7    S    
C60   C61   A    
C119  H56   S    
C32   C34   A    
C21   O11   A    
C75   C76   A    
Cr1   O5    S    
C29   C30   A    
Cr6   O18   S    
C103  N2    S    
C43   C45   A    
Cr5   O19   S    
C83   C84   A    
C110  H54   S    
C73   C78   A    
C87   C96   S    
C35   C38   A    
C67   H20   S    
C19   O8    A    
C50   C51   A    
C26   C27   A    
C94   C95   A    
C32   C37   A    
C119  C120  A    
C86   H34   S    
C77   O4    A    
C35   H4    S    
C66   O3    A    
C19   C39   S    
C18   C55   S    
C104  H45   S    
C113  C117  A    
Cr5   O15   S    
C40   C41   A    
C113  H53   S    
Cr3   O23   S    
C12   C14   A    
C93   H40   S    
C82   C83   A    
C122  H72   S    
C105  H48   S    
C87   C89   A    
C47   H8    S    
C74   C78   A    
Cr1   O25   S    
C101  H49   S    
C42   C43   A    
Cr1   O12   S    
C3    C4    A    
C122  H73   S    
C120  H61   S    
C93   C97   A    
C112  C116  A    
C52   C53   A    
C84   H31   S    
C112  H52   S    
C54   C58   A    
C3    C120  A    
C56   C57   A    
C46   C47   A    
C28   C29   A    
C54   H16   S    
C100  H43   S    
C86   C87   A    
C5    C118  A    
C26   C31   A    
C7    H59   S    
C77   O24   A    
C70   H25   S    
C33   C38   S    
C63   H28   S    
C80   C81   A    
N2    C122  S    
C52   C57   A    
C53   C58   A    
C16   H58   S    
C114  C115  A    
C6    C7    A    
C33   O22   A    
C68   C76   S    
C114  H55   S    
C12   H64   S    
C105  C106  A    
C6    H60   S    
C98   C100  A    
C8    C17   S    
C39   C45   A    
Cr4   O6    S    
C24   H12   S    
C30   C123  S    
C25   O18   A    
C123  N3    T    
Cr6   O17   S    
C89   H37   S    
C90   C91   A    
C30   C31   A    
C23   O16   A    
C28   C37   S    
Cr6   O11   S    
C48   C49   A    
C4    C5    A    
C108  H50   S    
C92   C93   A    
C52   H14   S    
C106  H47   S    
Cr2   O21   S    
C62   C71   S    
C53   H15   S    
Cr2   O2    S    
Cr3   O22   S    
C61   C62   A    
C1    O12   A    
C107  C116  S    
C88   C99   A    
C3    C11   S    
Cr2   O20   S    
C79   C80   A    
C39   C40   A    
C109  H51   S    
C115  H46   S    
C26   H44   S    
C45   H6    S    
C34   H2    S    
C122  H71   S    
C106  C107  A    
C73   H27   S    
C103  C104  A    
C13   H3    S    
C2    C31   S    
C23   C79   S    
C89   C90   A    
C61   H23   S    
C74   H29   S    
C5    H57   S    
C41   H10   S    
Cr4   O13   S    
C115  C116  A    
C27   C28   A    
C2    C110  A    
