data_mof_unit_20242.cif
_audit_creation_date              2012-12-11T20:24:10-0500
_audit_creation_method            fapswitch 2.2
_symmetry_space_group_name_H-M    P1
_symmetry_Int_Tables_number       1
_space_group_crystal_system       triclinic
_cell_length_a                    8.30173
_cell_length_b                    17.424028
_cell_length_c                    19.103106
_cell_angle_alpha                 103.752863
_cell_angle_beta                  92.50082
_cell_angle_gamma                 97.852231
_cell_volume                      2650.53662508

loop_
_atom_site_label
_atom_site_type_symbol
_atom_type_description
_atom_site_fract_x
_atom_site_fract_y
_atom_site_fract_z
_atom_type_partial_charge
Ba1   Ba    Ba6+2 0.854170 0.535040 0.467640 1.683546
Ba2   Ba    Ba6+2 0.335670 0.465030 0.532370 1.651315
C1    C     C_3   0.692340 0.828503 0.309917 -0.352910
C2    C     C_R   0.017825 0.540042 0.732017 0.079584
C3    C     C_R   0.859342 0.436628 0.803854 -0.178548
C4    C     C_3   0.165241 0.759482 0.294677 0.337790
C5    C     C_R   0.777173 0.452865 0.744156 0.012434
C6    C     C_R   0.328806 0.568985 0.195771 -0.216852
C7    C     C_R   0.401720 0.562806 0.261192 0.012265
C8    C     C_R   0.130424 0.454479 0.196851 -0.209939
C9    C     C_R   0.170833 0.467767 0.271988 0.003005
C10   C     C_R   0.992534 0.492740 0.843807 0.005531
C11   C     C_R   0.857673 0.506405 0.708504 -0.193055
C12   C     C_3   0.635234 0.746447 0.322355 0.408018
C13   C     C_R   0.202213 0.508653 0.156900 0.027175
C14   C     C_R   0.315282 0.518025 0.302149 0.194717
C15   C     C_R   0.763269 0.451191 0.952192 -0.078675
C16   C     C_3   0.090140 0.771046 0.223843 -0.172233
C17   C     C_R   0.656533 0.418769 0.995067 -0.080023
C18   C     C_R   0.703737 0.427959 0.066876 -0.070702
C19   C     C_R   0.859482 0.465435 0.093727 -0.093206
C20   C     C_R   0.982778 0.479778 0.047829 0.016862
C21   C     C_R   0.932596 0.474324 0.973287 0.039451
C22   C     C_R   0.149383 0.502704 0.076229 -0.003689
C23   C     C_3   0.471170 0.316564 0.303548 0.293031
C24   C     C_R   0.264432 0.522087 0.026847 0.034135
C25   C     C_R   0.215095 0.518106 0.952625 0.001103
C26   C     C_R   0.047670 0.494463 0.923661 -0.013368
C27   C     C_R   0.432781 0.544795 0.049042 -0.105806
C28   C     C_3   0.198360 0.715639 0.629226 0.368472
C29   C     C_R   0.539336 0.581898 0.009136 -0.063225
C30   C     C_R   0.493325 0.577998 0.937818 0.078614
C31   C     C_R   0.339917 0.536690 0.908610 -0.092514
C32   C     C_2   0.438290 0.722488 0.486491 -0.230931
C33   C     C_3   0.360421 0.768454 0.439965 -0.071905
C34   C     C_3   0.474448 0.281308 0.222118 0.252419
C35   C     C_2   0.409433 0.857235 0.467019 -0.113582
C36   C     C_2   0.549311 0.887081 0.509702 0.015259
C37   C     C_2   0.637790 0.831276 0.539753 -0.134796
C38   C     C_1   0.575776 0.754628 0.527342 0.037023
C39   C     C_R   0.801589 0.140129 0.538105 -0.122937
C40   C     C_3   0.165772 0.801835 0.649798 -0.347723
C41   C     C_R   0.859581 0.221734 0.549518 -0.002195
C42   C     C_R   0.617018 0.239097 0.483297 0.031871
C43   C     C_R   0.558075 0.157820 0.472231 -0.072351
C44   C     C_R   0.647775 0.108079 0.501007 0.051456
C45   C     C_3   0.041182 0.264227 0.718715 0.386948
C46   C     C_2   0.617130 0.973628 0.527488 -0.065498
C47   C     C_2   0.583623 0.021861 0.484850 -0.069608
C48   C     C_R   0.764314 0.271356 0.524247 -0.260314
C49   C     C_3   0.947026 0.289370 0.368653 0.304887
C50   C     C_3   0.908025 0.198637 0.346372 -0.390844
C51   C     C_3   0.596764 0.715314 0.702841 0.229746
C52   C     C_3   0.567027 0.801411 0.728695 -0.395784
C53   C     C_3   0.341663 0.208442 0.194110 -0.380891
C54   C     C_3   0.958400 0.184505 0.729792 -0.380114
C55   C     C_3   0.770448 0.534321 0.650630 -0.239879
C56   C     C_3   0.136398 0.312706 0.789281 -0.278520
C57   C     C_3   0.609672 0.613896 0.892056 -0.394151
C58   C     C_3   0.012930 0.692036 0.172304 -0.373371
C59   C     C_3   0.549691 0.259991 0.702423 0.856417
C60   C     C_3   0.545928 0.202782 0.751594 -0.220401
C61   C     C_R   0.067844 0.547434 0.805161 -0.138240
H1    H     H_    0.669900 0.748126 0.379613 0.043816
H2    H     H_    0.625339 0.693349 0.751242 0.036796
H3    H     H_    0.488990 0.675215 0.674159 0.081199
H4    H     H_    0.620749 0.872604 0.340891 0.058310
H5    H     H_    0.679000 0.839080 0.758829 0.120476
H6    H     H_    0.466806 0.804158 0.765376 0.100735
H7    H     H_    0.533972 0.825371 0.682086 0.086023
H8    H     H_    0.500824 0.734084 0.311476 -0.123812
H9    H     H_    0.674551 0.826844 0.251588 0.104485
H10   H     H_    0.347307 0.330931 0.315463 -0.031008
H11   H     H_    0.562388 0.371892 0.319171 0.056032
H12   H     H_    0.238198 0.835406 0.700617 0.096983
H13   H     H_    0.595076 0.261561 0.212146 0.108496
H14   H     H_    0.822901 0.848181 0.328914 0.134855
H15   H     H_    0.186963 0.800140 0.196142 0.055217
H16   H     H_    0.947912 0.299862 0.705975 -0.026200
H17   H     H_    0.194631 0.371331 0.782263 0.140310
H18   H     H_    0.053885 0.323564 0.833601 0.046991
H19   H     H_    0.231748 0.280230 0.805750 0.127755
H20   H     H_    0.679025 0.278316 0.693675 -0.254660
H21   H     H_    0.599732 0.149126 0.725709 0.062264
H22   H     H_    0.418134 0.182900 0.761837 0.098995
H23   H     H_    0.200669 0.832188 0.606635 0.092526
H24   H     H_    0.222563 0.704244 0.283119 -0.015562
H25   H     H_    0.615829 0.233055 0.804062 0.023865
H26   H     H_    0.163443 0.596003 0.830066 0.056920
H27   H     H_    0.808585 0.385140 0.822359 0.058281
H28   H     H_    0.381048 0.617448 0.173570 0.071427
H29   H     H_    0.040373 0.403464 0.171204 0.079591
H30   H     H_    0.704583 0.461785 0.905263 0.077526
H31   H     H_    0.530501 0.396532 0.975211 0.083321
H32   H     H_    0.615159 0.412962 0.103070 0.156723
H33   H     H_    0.260333 0.812128 0.317480 -0.046179
H34   H     H_    0.034675 0.803415 0.658048 0.141041
H35   H     H_    0.879764 0.484369 0.150976 0.134588
H36   H     H_    0.488253 0.532763 0.096233 0.086964
H37   H     H_    0.663210 0.605912 0.031548 0.074118
H38   H     H_    0.321188 0.519084 0.851478 0.129583
H39   H     H_    0.503420 0.998166 0.435896 0.056735
H40   H     H_    0.751647 0.854250 0.573001 0.077297
H41   H     H_    0.879700 0.101590 0.554496 0.061622
H42   H     H_    0.699676 0.997255 0.575815 0.068735
H43   H     H_    0.336557 0.895512 0.446719 0.063570
H44   H     H_    0.444344 0.133027 0.439673 0.070372
H45   H     H_    0.835124 0.314314 0.385283 0.010068
H46   H     H_    0.389752 0.659803 0.478837 0.118891
H47   H     H_    0.811345 0.333874 0.530632 0.051336
H48   H     H_    0.997517 0.811676 0.235524 0.120967
H49   H     H_    0.320935 0.715422 0.610083 -0.112299
H50   H     H_    0.113101 0.681873 0.583264 0.110704
H51   H     H_    0.361758 0.159929 0.220625 0.111516
H52   H     H_    0.218812 0.224788 0.205125 0.115677
H53   H     H_    0.345719 0.185527 0.134874 0.125009
H54   H     H_    0.347394 0.353641 0.189317 0.285957
H55   H     H_    0.051150 0.146355 0.737688 0.126327
H56   H     H_    0.040702 0.306583 0.415062 0.076987
H57   H     H_    0.886964 0.194369 0.778038 0.076748
H58   H     H_    0.874596 0.152310 0.682127 0.085369
H59   H     H_    0.465506 0.257872 0.606213 0.316828
H60   H     H_    0.649566 0.549114 0.666533 0.130759
H61   H     H_    0.835221 0.590775 0.643592 0.115002
H62   H     H_    0.761345 0.489205 0.598243 0.143493
H63   H     H_    0.390158 0.468042 0.373440 0.290884
H64   H     H_    0.721264 0.648810 0.924805 0.102021
H65   H     H_    0.647886 0.566555 0.849419 0.131552
H66   H     H_    0.549368 0.654633 0.866550 0.108632
H67   H     H_    0.808596 0.179735 0.302237 0.122637
H68   H     H_    0.109452 0.661545 0.144444 0.105240
H69   H     H_    0.944686 0.651874 0.201564 0.190376
H70   H     H_    0.928314 0.703575 0.130658 0.114469
H71   H     H_    0.868711 0.175147 0.392914 0.059862
H72   H     H_    0.018175 0.172908 0.327231 0.122722
O1    O     O_2   0.873520 0.443690 0.322540 -0.458175
O2    O     O_2   0.183201 0.223520 0.526392 -0.464186
O3    O     O_3   0.151085 0.249267 0.664659 -0.528523
O4    O     O_3   0.122020 0.450920 0.411670 -0.460516
O5    O     O_3   0.580730 0.598500 0.542710 -0.480981
O6    O     O_2   0.336360 0.303040 0.452600 -0.455748
O7    O     O_3   0.511563 0.260210 0.340176 -0.675480
O8    O     O_2   0.456100 0.475565 0.751069 -0.500739
O9    O     O_3   0.471896 0.324653 0.735740 -0.609174
O10   O     O_3   0.663590 0.591680 0.375790 -0.411106
O11   O     O_2   0.720463 0.533694 0.243318 -0.496341
O12   O     O_3   0.731825 0.711918 0.661864 -0.633710
O13   O     O_3   0.004658 0.316368 0.309558 -0.646349
O14   O     O_3   0.708037 0.688259 0.275814 -0.589205
O15   O     O_2   0.853350 0.696990 0.547450 -0.458592
O16   O     O_3   0.086060 0.635230 0.414460 -0.449711
O17   O     O_2   0.040316 0.779984 0.484166 -0.492174
O18   O     O_3   0.458734 0.339793 0.184017 -0.764131
O19   O     O_3   0.464786 0.218913 0.636347 -0.702226
O20   O     O_3   0.376331 0.522941 0.371236 -0.704636
O21   O     O_3   0.044883 0.755061 0.343797 -0.568879
O22   O     O_2   0.316180 0.556340 0.677510 -0.468858
O23   O     O_3   0.067690 0.549150 0.588340 -0.507568
O24   O     O_3   0.526120 0.408390 0.624220 -0.483704
O25   O     O_3   0.188537 0.684247 0.690590 -0.648058
O26   O     O_3   0.608980 0.401570 0.457310 -0.495080
O27   O     O_3   0.103650 0.364840 0.585560 -0.479023
P1    P     P_3+3 0.040700 0.421000 0.332140 0.994680
P2    P     P_3+3 0.677490 0.686860 0.568200 0.964136
P3    P     P_3+3 0.134339 0.737281 0.422124 0.964818
P4    P     P_3+3 0.149010 0.579070 0.667870 0.970167
P5    P     P_3+3 0.072008 0.263001 0.582541 0.991036
P6    P     P_3+3 0.621836 0.594959 0.286888 1.000068
P7    P     P_3+3 0.518814 0.300307 0.433501 0.931142
P8    P     P_3+3 0.560763 0.412978 0.715497 0.927678

loop_
_geom_bond_atom_site_label_1
_geom_bond_atom_site_label_2
_ccdc_geom_bond_type
O24   P8    S    
C50   H71   S    
C12   H8    S    
Ba1   O10   S    
C17   C18   A    
C48   H47   S    
C59   O19   S    
Ba2   O27   S    
O17   P3    D    
C43   C44   A    
C25   C31   A    
C28   O25   S    
C2    C61   A    
C40   H12   S    
C15   C21   A    
C10   C26   S    
C32   C38   D    
Ba2   O4    S    
C49   O13   S    
C20   C22   A    
Ba1   O23   S    
C33   C35   S    
C7    C14   A    
C22   C24   A    
C32   C33   S    
C8    C13   A    
C56   H19   S    
C55   H62   S    
C36   C37   S    
C11   C55   S    
C53   H53   S    
C57   H64   S    
O9    P8    S    
C51   O12   S    
C58   H68   S    
O2    P5    D    
Ba1   Ba2   S    
C2    C11   A    
C42   P7    S    
C60   H21   S    
C34   H13   S    
C15   C17   A    
C57   H66   S    
C29   C30   A    
Ba1   P2    S    
C6    C7    A    
C52   H7    S    
C49   H56   S    
C39   C44   A    
C40   H23   S    
O25   P4    S    
Ba1   O1    S    
C51   H2    S    
Ba2   P4    S    
C36   C46   S    
C3    H27   S    
Ba1   O4    S    
C56   H17   S    
O26   P7    S    
H63   O20   S    
Ba1   O26   S    
C19   C20   A    
H59   O19   S    
C58   H69   S    
O14   P6    S    
Ba2   O26   S    
C9    P1    S    
C34   O18   S    
C54   H57   S    
C4    C16   S    
C60   H22   S    
C27   H36   S    
C49   C50   S    
O10   P6    S    
C16   H48   S    
C3    C10   A    
C59   H20   S    
C40   H34   S    
C47   H39   S    
C3    C5    A    
C10   C61   A    
C49   H45   S    
C45   O3    S    
C57   H65   S    
O16   P3    S    
C60   H25   S    
C4    H24   S    
C28   H49   S    
O3    P5    S    
C35   C36   D    
C55   H60   S    
C9    C14   A    
C59   O9    S    
C46   H42   S    
C44   C47   S    
Ba2   O23   S    
C52   H5    S    
C12   H1    S    
C61   H26   S    
C14   O20   S    
O6    P7    D    
C24   C25   A    
Ba1   O15   S    
C6    H28   S    
C29   H37   S    
C51   H3    S    
C17   H31   S    
C1    C12   S    
O7    P7    S    
C16   C58   S    
C13   C22   S    
C18   H32   S    
C6    C13   A    
C4    H33   S    
H54   O18   S    
C31   H38   S    
C56   H18   S    
C21   C26   A    
Ba2   O24   S    
C51   C52   S    
C1    H14   S    
C37   C38   D    
C42   C43   A    
O23   P4    S    
C16   H15   S    
C42   C48   A    
C50   H72   S    
O11   P6    D    
C46   C47   D    
O13   P1    S    
C54   H55   S    
C7    P6    S    
C1    H4    S    
C39   C41   A    
O8    P8    D    
O22   P4    D    
C41   C48   A    
C37   H40   S    
C53   H51   S    
C41   P5    S    
O5    P2    S    
O15   P2    D    
C39   H41   S    
O12   P2    S    
C23   H11   S    
C50   H67   S    
C30   C31   A    
O4    P1    S    
C1    H9    S    
Ba2   O5    S    
C35   H43   S    
C27   C29   A    
C34   C53   S    
C45   H16   S    
C54   H58   S    
C45   C56   S    
C19   H35   S    
C38   P2    S    
C23   O7    S    
C52   H6    S    
C53   H52   S    
O21   P3    S    
Ba2   O22   S    
C12   O14   S    
C33   P3    S    
C2    P4    S    
Ba1   O16   S    
C23   H10   S    
C59   C60   S    
C8    C9    A    
C23   C34   S    
C8    H29   S    
O27   P5    S    
C32   H46   S    
C5    C11   A    
C15   H30   S    
C18   C19   A    
Ba1   P1    S    
C24   C27   A    
C5    P8    S    
C25   C26   A    
Ba2   O6    S    
C20   C21   A    
C28   C40   S    
Ba1   O5    S    
C30   C57   S    
C58   H70   S    
C28   H50   S    
C4    O21   S    
C43   H44   S    
C45   C54   S    
C55   H61   S    
O1    P1    D    
