data_mof_unit_25481.cif
_audit_creation_date              2012-12-10T18:33:46-0500
_audit_creation_method            fapswitch 2.2
_symmetry_space_group_name_H-M    P1
_symmetry_Int_Tables_number       1
_space_group_crystal_system       triclinic
_cell_length_a                    10.484203
_cell_length_b                    15.06596
_cell_length_c                    15.559338
_cell_angle_alpha                 81.235462
_cell_angle_beta                  91.253616
_cell_angle_gamma                 104.229148
_cell_volume                      2354.13928097

loop_
_atom_site_label
_atom_site_type_symbol
_atom_type_description
_atom_site_fract_x
_atom_site_fract_y
_atom_site_fract_z
_atom_type_partial_charge
C1    C     C_R   0.481805 0.441544 0.661750 0.863734
C2    C     C_R   0.563068 0.495845 0.042046 0.064708
C3    C     C_R   0.588994 0.408156 0.070796 -0.172353
C4    C     C_R   0.534905 0.613024 0.921300 -0.163150
C5    C     C_R   0.581774 0.343922 0.014584 -0.201507
C6    C     C_R   0.544164 0.677682 0.977144 -0.195761
C7    C     C_R   0.654529 0.826611 0.663430 -0.127417
C8    C     C_R   0.286576 0.155023 0.369940 -0.137246
C9    C     C_R   0.648361 0.747006 0.624957 0.022684
C10   C     C_R   0.330681 0.246512 0.387011 0.026692
C11   C     C_R   0.514440 0.796195 0.510665 0.048619
C12   C     C_R   0.520889 0.558460 0.338238 0.862523
C13   C     C_R   0.484611 0.203417 0.490035 0.041200
C14   C     C_R   0.513488 0.877100 0.547723 -0.027334
C15   C     C_R   0.433394 0.107761 0.483379 -0.033051
C16   C     C_R   0.742357 0.501013 0.500140 0.852805
C17   C     C_R   0.257660 0.499011 0.499776 0.853259
C18   C     C_R   0.587883 0.892684 0.623838 0.082061
C19   C     C_R   0.333893 0.084627 0.421327 0.098498
C20   C     C_R   0.444133 0.944257 0.511099 0.115446
C21   C     C_R   0.477135 0.034100 0.535172 0.101815
C22   C     C_R   0.542400 0.044313 0.614153 -0.191035
C23   C     C_R   0.480340 0.467783 0.812085 -0.180758
C24   C     C_R   0.334449 0.922383 0.458008 -0.178146
C25   C     C_R   0.596921 0.975531 0.657290 -0.150665
C26   C     C_R   0.279651 0.990926 0.414712 -0.134410
C27   C     C_3   0.935161 0.433662 0.562359 -0.146521
C28   C     C_3   0.064872 0.566325 0.437413 -0.188985
C29   C     C_3   0.051072 0.515019 0.577847 -0.177083
C30   C     C_3   0.948936 0.484975 0.421926 -0.152352
C31   C     C_3   0.121698 0.497606 0.499516 0.003231
C32   C     C_3   0.878323 0.502402 0.500271 0.022953
C33   C     C_3   0.008434 0.416194 0.484030 -0.104647
C34   C     C_R   0.554824 0.533462 0.189582 -0.200696
C35   C     C_3   0.991617 0.583799 0.515730 -0.143925
C36   C     C_R   0.484749 0.406698 0.754248 -0.058504
C37   C     C_R   0.540569 0.594386 0.245647 -0.075215
C38   C     C_R   0.538864 0.298634 0.872017 -0.178882
C39   C     C_R   0.547437 0.714703 0.122834 -0.167071
C40   C     C_R   0.510971 0.320706 0.784471 -0.205895
C41   C     C_R   0.541339 0.686138 0.212353 -0.185318
C42   C     C_2   0.609188 0.237090 0.533806 0.435687
C43   C     C_2   0.468849 0.784893 0.421865 0.397176
C44   C     C_2   0.277760 0.319908 0.336153 0.452349
C45   C     C_R   0.521560 0.451636 0.897620 0.103434
C46   C     C_2   0.726692 0.681228 0.660960 0.435992
C47   C     C_2   0.733435 0.839744 0.743333 0.424612
C48   C     C_2   0.190908 0.135161 0.298838 0.439740
C49   C     C_R   0.560100 0.559984 0.099505 0.088869
C50   C     C_R   0.546723 0.364162 0.928458 0.154318
C51   C     C_R   0.551983 0.651405 0.066236 0.139928
C52   C     C_R   0.538442 0.520252 0.952804 0.057258
H1    H     H_    0.097243 0.526880 0.641351 0.144226
H2    H     H_    0.528002 0.638787 0.853331 0.196077
H3    H     H_    0.612849 0.279561 0.584400 0.073775
H4    H     H_    0.399269 0.722252 0.409663 0.093065
H5    H     H_    0.204707 0.346974 0.364339 0.058929
H6    H     H_    0.801412 0.668504 0.621181 0.070161
H7    H     H_    0.832183 0.829034 0.746264 0.078501
H8    H     H_    0.111342 0.169903 0.289049 0.064690
H9    H     H_    0.547357 0.103569 0.646347 0.122992
H10   H     H_    0.285670 0.851561 0.452262 0.125368
H11   H     H_    0.877622 0.379974 0.613348 0.144863
H12   H     H_    0.902698 0.473107 0.358440 0.145500
H13   H     H_    0.122452 0.620051 0.386467 0.136417
H14   H     H_    0.018836 0.347764 0.471317 0.153530
H15   H     H_    0.981709 0.652389 0.528238 0.133429
H16   H     H_    0.553846 0.463511 0.217624 0.189484
H17   H     H_    0.447564 0.529202 0.787803 0.154776
H18   H     H_    0.649997 0.990419 0.715709 0.193760
H19   H     H_    0.193988 0.969013 0.376089 0.183182
H20   H     H_    0.603405 0.277917 0.038818 0.161915
H21   H     H_    0.539783 0.747697 0.950706 0.195526
H22   H     H_    0.532585 0.734622 0.254984 0.205069
H23   H     H_    0.514299 0.272259 0.740296 0.142021
H24   H     H_    0.559381 0.231994 0.894828 0.147937
H25   H     H_    0.543392 0.785129 0.097801 0.161256
H26   H     H_    0.619970 0.388155 0.135848 0.154075
N1    N     N_R   0.574200 0.731700 0.552740 -0.172056
N2    N     N_R   0.425800 0.268300 0.447260 -0.163088
O1    O     O_R   0.462600 0.383110 0.605620 -0.646975
O2    O     O_2   0.508858 0.846651 0.361177 -0.573505
O3    O     O_2   0.310310 0.346749 0.259941 -0.577864
O4    O     O_2   0.712850 0.644223 0.736728 -0.601128
O5    O     O_2   0.686152 0.857154 0.807904 -0.589875
O6    O     O_2   0.204349 0.083849 0.247896 -0.539352
O7    O     O_R   0.537400 0.616890 0.394380 -0.634919
O8    O     O_R   0.510210 0.531900 0.639510 -0.590131
O9    O     O_R   0.489790 0.468100 0.360490 -0.593299
O10   O     O_R   0.662240 0.425610 0.483080 -0.622131
O11   O     O_R   0.337760 0.574390 0.516920 -0.640275
O12   O     O_R   0.709860 0.574400 0.516970 -0.643621
O13   O     O_R   0.290140 0.425600 0.483030 -0.648150
O14   O     O_2   0.709407 0.217244 0.513492 -0.581525
Zn1   Zn    Zn3+2 0.468210 0.400660 0.477370 0.938821
Zn2   Zn    Zn3+2 0.531790 0.599340 0.522630 0.936884

loop_
_geom_bond_atom_site_label_1
_geom_bond_atom_site_label_2
_ccdc_geom_bond_type
C39   C51   A    
O8    Zn2   S    
C16   O10   A    
C23   C45   A    
C30   H12   S    
C27   C29   S    
C34   C37   A    
C23   H17   S    
C17   O11   A    
C44   O3    D    
O10   Zn1   S    
C39   C41   A    
C38   H24   S    
C27   C33   S    
C15   C19   A    
C4    C52   A    
C47   O5    D    
C38   C40   A    
C24   C26   A    
C5    H20   S    
O1    Zn1   S    
C11   C14   A    
C1    O1    A    
O12   Zn2   S    
C9    N1    A    
C12   C37   S    
C19   C26   A    
C14   C18   A    
O11   Zn2   S    
C20   C24   A    
C28   C35   S    
C49   C51   A    
C22   C25   A    
C31   C33   S    
C11   C43   S    
C6    C51   A    
C30   C33   S    
C1    O8    A    
C41   H22   S    
C13   N2    A    
C9    C46   S    
O13   Zn1   S    
C21   C22   A    
C46   H6    S    
C26   H19   S    
C18   C25   A    
C13   C42   S    
C33   H14   S    
C48   H8    S    
C8    C19   A    
C10   C44   S    
C32   C35   S    
C14   C20   A    
C12   O9    A    
C36   C40   A    
C4    C6    A    
C34   H16   S    
C10   N2    A    
C45   C52   A    
C7    C47   S    
O9    Zn1   S    
C8    C48   S    
C2    C52   A    
C2    C49   A    
C42   H3    S    
C35   H15   S    
C44   H5    S    
C7    C18   A    
O7    Zn2   S    
N2    Zn1   S    
C11   N1    A    
C46   O4    D    
C16   O12   A    
C13   C15   A    
C17   C31   S    
C48   O6    D    
C5    C50   A    
C17   O13   A    
C39   H25   S    
C6    H21   S    
C7    C9    A    
C34   C49   A    
C24   H10   S    
C12   O7    A    
C4    H2    S    
C27   C32   S    
C42   O14   D    
C28   C31   S    
C3    C5    A    
C38   C50   A    
C16   C32   S    
C29   C35   S    
C40   H23   S    
C28   C30   S    
C2    C3    A    
N1    Zn2   S    
C29   C31   S    
C22   H9    S    
C30   C32   S    
C29   H1    S    
C45   C50   A    
C28   H13   S    
C37   C41   A    
C47   H7    S    
C43   H4    S    
C15   C21   A    
C20   C21   A    
C8    C10   A    
C23   C36   A    
C43   O2    D    
C27   H11   S    
C25   H18   S    
C3    H26   S    
C1    C36   S    
