data_mof_unit_67253.cif
_audit_creation_date              2013-03-05T16:01:28-0500
_audit_creation_method            fapswitch 2.2
_symmetry_space_group_name_H-M    P1
_symmetry_Int_Tables_number       1
_space_group_crystal_system       triclinic
_cell_length_a                    20.592505
_cell_length_b                    21.058402
_cell_length_c                    8.573424
_cell_angle_alpha                 91.246374
_cell_angle_beta                  92.425256
_cell_angle_gamma                 88.944202
_cell_volume                      3713.04525106

loop_
_atom_site_label
_atom_site_type_symbol
_atom_site_description
_atom_site_fract_x
_atom_site_fract_y
_atom_site_fract_z
_atom_type_partial_charge
P1    P     P_3+3 0.136530 0.426510 0.931350 0.545037
P2    P     P_3+3 0.136530 0.573490 0.431350 0.605709
P3    P     P_3+3 0.636530 0.926510 0.931350 0.551165
P4    P     P_3+3 0.636530 0.073490 0.431350 0.583948
O1    O     O_2   0.130070 0.404060 0.104920 -0.277136
O2    O     O_2   0.130070 0.595940 0.604920 -0.365096
O3    O     O_2   0.630070 0.904060 0.104920 -0.305712
O4    O     O_2   0.630070 0.095940 0.604920 -0.352830
O5    O     O_3   0.075780 0.466370 0.861070 -0.381311
O6    O     O_3   0.075780 0.533630 0.361070 -0.299548
O7    O     O_3   0.575780 0.966370 0.861070 -0.394890
O8    O     O_3   0.575780 0.033630 0.361070 -0.307175
O9    O     O_3   0.022320 0.344950 0.359800 -0.399056
O10   O     O_3   0.022320 0.655050 0.859800 -0.287216
O11   O     O_3   0.522320 0.844950 0.359800 -0.402669
O12   O     O_3   0.522320 0.155050 0.859800 -0.314617
O13   O     O_2   0.134098 0.303053 0.243827 -0.304015
O14   O     O_2   0.118912 0.711633 0.731314 -0.383690
O15   O     O_2   0.634704 0.803429 0.244690 -0.320197
O16   O     O_2   0.625682 0.209217 0.743368 -0.386661
O17   O     O_3   0.203947 0.475249 0.943534 -0.580335
O18   O     O_3   0.200098 0.515096 0.430061 -0.521866
O19   O     O_3   0.701957 0.978180 0.948840 -0.557800
O20   O     O_3   0.696946 0.016949 0.483946 -0.471924
O21   O     O_3   0.060805 0.214582 0.326755 -0.535238
O22   O     O_3   0.042243 0.785362 0.878906 -0.499899
O23   O     O_3   0.561102 0.715191 0.327062 -0.534048
O24   O     O_3   0.544422 0.284351 0.885036 -0.482812
H1    H     H_    0.962860 0.234493 0.295992 0.125412
H2    H     H_    0.969804 0.761697 0.026705 0.037480
H3    H     H_    0.463820 0.739996 0.310908 0.116919
H4    H     H_    0.452864 0.266232 0.962050 0.063110
C1    C     C_3   0.981343 0.138119 0.373257 0.067987
C2    C     C_3   0.984346 0.862920 0.024051 0.123224
C3    C     C_3   0.478695 0.640297 0.360019 0.086940
C4    C     C_3   0.488642 0.355937 0.055116 0.124227
H5    H     H_    0.997853 0.113902 0.265037 0.099191
H6    H     H_    0.026550 0.895441 0.025047 0.089072
H7    H     H_    0.490087 0.621179 0.242289 0.110964
H8    H     H_    0.536891 0.377856 0.080948 0.141397
P5    P     P_3+3 0.863410 0.426100 0.379280 0.417091
P6    P     P_3+3 0.863410 0.573900 0.879280 0.518069
P7    P     P_3+3 0.363410 0.926100 0.379280 0.422906
P8    P     P_3+3 0.363410 0.073900 0.879280 0.536903
P9    P     P_3+3 0.916211 0.289256 0.924158 0.528398
P10   P     P_3+3 0.910725 0.709877 0.431864 0.490826
P11   P     P_3+3 0.418098 0.787569 0.919052 0.521453
P12   P     P_3+3 0.411308 0.210289 0.431592 0.480285
O25   O     O_2   0.869860 0.403670 0.205810 -0.359485
O26   O     O_2   0.869860 0.596330 0.705810 -0.387081
O27   O     O_2   0.369860 0.903670 0.205810 -0.359758
O28   O     O_2   0.369860 0.096330 0.705810 -0.388574
O29   O     O_3   0.977590 0.344880 0.951200 -0.373146
O30   O     O_3   0.977590 0.655120 0.451200 -0.392343
O31   O     O_3   0.477590 0.844880 0.951200 -0.370911
O32   O     O_3   0.477590 0.155120 0.451200 -0.381278
O33   O     O_2   0.867036 0.301323 0.052619 -0.308405
O34   O     O_2   0.861820 0.694107 0.555894 -0.339776
O35   O     O_2   0.366959 0.799250 0.043494 -0.313682
O36   O     O_2   0.365170 0.198392 0.564615 -0.352800
O37   O     O_3   0.797565 0.481429 0.382781 -0.639439
O38   O     O_3   0.792611 0.529443 0.873408 -0.631420
O39   O     O_3   0.296874 0.980776 0.387605 -0.628900
O40   O     O_3   0.291914 0.030881 0.878325 -0.610108
O41   O     O_3   0.949729 0.215720 0.972787 -0.577551
O42   O     O_3   0.933395 0.786620 0.487600 -0.565616
O43   O     O_3   0.453515 0.715311 0.971460 -0.574892
O44   O     O_3   0.437219 0.287293 0.474258 -0.588256
C5    C     C_3   0.010087 0.208598 0.904381 0.169794
C6    C     C_3   0.001009 0.788907 0.487379 0.200714
C7    C     C_3   0.516327 0.712701 0.914277 0.189867
C8    C     C_3   0.504677 0.285606 0.500183 0.163418
H9    H     H_    0.045751 0.242271 0.959353 0.066307
H10   H     H_    0.022433 0.757000 0.577549 0.156165
H11   H     H_    0.548598 0.746395 0.981009 0.079553
H12   H     H_    0.519010 0.250337 0.590146 0.157175
H13   H     H_    0.006185 0.217215 0.776767 0.000463
H14   H     H_    0.018355 0.774203 0.370926 0.000624
H15   H     H_    0.516336 0.724800 0.788468 -0.007225
H16   H     H_    0.528474 0.273565 0.389090 0.028442
C9    C     C_3   0.034978 0.140879 0.933568 0.858445
C10   C     C_3   0.022466 0.856796 0.527409 0.829822
C11   C     C_3   0.543816 0.645635 0.935997 0.857796
C12   C     C_3   0.526691 0.350701 0.562520 0.822052
H17   H     H_    0.051163 0.140991 0.059193 -0.010652
H18   H     H_    0.997606 0.871123 0.635568 0.090887
H19   H     H_    0.559497 0.644196 0.061868 -0.011657
H20   H     H_    0.494471 0.363534 0.660082 0.113791
C13   C     C_3   0.794208 0.478475 0.767361 0.712534
C14   C     C_3   0.766161 0.494555 0.237314 0.671581
C15   C     C_3   0.289922 0.979652 0.773147 0.706863
C16   C     C_3   0.262269 0.991750 0.244921 0.683895
H21   H     H_    0.835118 0.479588 0.687656 0.058247
H22   H     H_    0.795215 0.481542 0.136952 0.084697
H23   H     H_    0.323752 0.983561 0.676996 0.050393
H24   H     H_    0.288872 0.976942 0.141900 0.090522
C17   C     C_3   0.730111 0.478601 0.672411 0.166481
C18   C     C_3   0.699876 0.463040 0.220451 0.182343
C19   C     C_3   0.219889 0.975011 0.710080 0.186014
C20   C     C_3   0.196165 0.959897 0.240493 0.157253
H25   H     H_    0.727086 0.523697 0.606363 0.148646
H26   H     H_    0.705946 0.411469 0.232691 0.076356
H27   H     H_    0.208856 0.016603 0.635058 0.146884
H28   H     H_    0.203707 0.908361 0.248932 0.063808
H29   H     H_    0.729998 0.437353 0.589507 0.093506
H30   H     H_    0.679523 0.470579 0.099485 0.121019
H31   H     H_    0.214265 0.930246 0.640319 0.114054
H32   H     H_    0.171549 0.967672 0.124356 0.121163
Ba1   Ba    Ba6+2 0.999980 0.452130 0.155200 1.677153
Ba2   Ba    Ba6+2 0.999980 0.547870 0.655200 1.679692
Ba3   Ba    Ba6+2 0.499980 0.952130 0.155200 1.668197
Ba4   Ba    Ba6+2 0.499980 0.047870 0.655200 1.676585
C21   C     C_3   0.190002 0.530889 0.025229 0.521593
C22   C     C_3   0.238215 0.508150 0.570350 0.585476
C23   C     C_3   0.679822 0.039805 0.980557 0.483873
C24   C     C_3   0.735125 0.994701 0.363520 0.385984
H33   H     H_    0.164403 0.521169 0.132713 0.161876
H34   H     H_    0.224257 0.538686 0.669441 0.117504
H35   H     H_    0.647188 0.039312 0.078821 0.108756
H36   H     H_    0.705392 0.983197 0.257245 0.131683
H37   H     H_    0.160362 0.562261 0.947443 0.089012
H38   H     H_    0.234071 0.459060 0.611410 0.095341
H39   H     H_    0.653846 0.059700 0.876451 0.150129
H40   H     H_    0.773273 0.029441 0.344352 0.079534
C25   C     C_3   0.253872 0.562117 0.071783 -1.233882
C26   C     C_3   0.309865 0.514182 0.537688 -1.078320
C27   C     C_3   0.737878 0.080762 0.026879 -1.292278
C28   C     C_3   0.770351 0.934365 0.418751 -0.825033
H41   H     H_    0.273735 0.541837 0.182478 0.289857
H42   H     H_    0.320786 0.562592 0.501261 0.321227
H43   H     H_    0.743025 0.084462 0.153375 0.235770
H44   H     H_    0.737307 0.893308 0.410197 0.288067
H45   H     H_    0.246342 0.613943 0.087853 0.230701
H46   H     H_    0.339817 0.503073 0.644553 0.217978
H47   H     H_    0.730126 0.129976 0.988610 0.258666
H48   H     H_    0.812468 0.923592 0.346600 0.188455
H49   H     H_    0.290024 0.553632 0.980739 0.277732
H50   H     H_    0.323131 0.480173 0.442986 0.253661
H51   H     H_    0.783796 0.060745 0.981523 0.288550
H52   H     H_    0.788829 0.940512 0.541764 0.234962
O45   O     O_3   0.924190 0.533610 0.949240 -0.315362
O46   O     O_3   0.924190 0.466390 0.449240 -0.433179
O47   O     O_3   0.424190 0.033610 0.949240 -0.308359
O48   O     O_3   0.424190 0.966390 0.449240 -0.432539
P13   P     P_3+3 0.082953 0.712098 0.885833 0.546832
P14   P     P_3+3 0.088619 0.290372 0.377622 0.560504
P15   P     P_3+3 0.584515 0.210660 0.890341 0.550949
P16   P     P_3+3 0.589060 0.790799 0.378187 0.544585
C29   C     C_3   0.997245 0.208500 0.376199 0.301086
C30   C     C_3   0.010617 0.795248 0.019242 0.429291
C31   C     C_3   0.498186 0.709418 0.380373 0.301318
C32   C     C_3   0.499693 0.287047 0.005176 0.354597
H53   H     H_    0.991909 0.226854 0.497620 0.007529
H54   H     H_    0.044894 0.789982 0.121584 -0.066813
H55   H     H_    0.496026 0.722683 0.506352 0.012158
H56   H     H_    0.516968 0.261320 0.111484 -0.029943
H57   H     H_    0.010194 0.115757 0.469527 0.114136
H58   H     H_    0.958326 0.870533 0.133557 0.092315
H59   H     H_    0.509156 0.612057 0.443066 0.101633
H60   H     H_    0.460764 0.356698 0.163493 0.079913
C33   C     C_R   0.245103 0.304406 0.004807 0.678124
C34   C     C_R   0.251870 0.694719 0.501022 0.647069
C35   C     C_R   0.744595 0.803652 0.005174 0.694959
C36   C     C_R   0.757861 0.188531 0.488283 0.634311
C37   C     C_R   0.160156 0.351944 0.813369 0.151013
C38   C     C_R   0.159091 0.649093 0.319077 0.171805
C39   C     C_R   0.660656 0.851598 0.814059 0.178500
C40   C     C_R   0.659946 0.149210 0.321671 0.099435
C41   C     C_R   0.136969 0.349451 0.656493 -0.034369
C42   C     C_R   0.123553 0.657219 0.175687 0.012377
C43   C     C_R   0.637663 0.849057 0.657702 -0.013381
C44   C     C_R   0.621248 0.160391 0.185261 0.051080
C45   C     C_R   0.137542 0.293162 0.567628 0.099005
C46   C     C_R   0.136707 0.704713 0.069958 0.013729
C47   C     C_R   0.637651 0.792839 0.568646 0.060916
C48   C     C_R   0.634864 0.206556 0.078169 0.049082
C49   C     C_R   0.175856 0.241342 0.621670 0.358437
C50   C     C_R   0.184510 0.749665 0.110767 0.291997
C51   C     C_R   0.675280 0.740568 0.622946 0.383336
C52   C     C_R   0.682659 0.251366 0.117092 0.317578
C53   C     C_R   0.213697 0.246766 0.764038 -0.126654
C54   C     C_R   0.221894 0.746090 0.254311 -0.134290
C55   C     C_R   0.712856 0.745634 0.765769 -0.106587
C56   C     C_R   0.720482 0.247412 0.259231 -0.132490
C57   C     C_R   0.205172 0.301507 0.864350 -0.257251
C58   C     C_R   0.210993 0.695308 0.360235 -0.279198
C59   C     C_R   0.704602 0.800495 0.865588 -0.278232
C60   C     C_R   0.712426 0.194338 0.359315 -0.258854
C61   C     C_R   0.797622 0.699359 0.947481 -0.141670
C62   C     C_R   0.804575 0.296025 0.439650 -0.162404
C63   C     C_R   0.297534 0.199857 0.946796 -0.146135
C64   C     C_R   0.305802 0.796304 0.435213 -0.156010
C65   C     C_R   0.786719 0.751988 0.050734 -0.065706
C66   C     C_R   0.799512 0.241284 0.535518 0.006444
C67   C     C_R   0.286145 0.252053 0.051116 -0.083272
C68   C     C_R   0.301359 0.742184 0.530939 0.009895
C69   C     C_R   0.846772 0.651675 0.989504 0.198670
C70   C     C_R   0.848476 0.348005 0.487461 0.067273
C71   C     C_R   0.345897 0.151693 0.989800 0.193571
C72   C     C_R   0.349674 0.848037 0.484149 0.073606
C73   C     C_R   0.880772 0.658887 0.133299 0.250831
C74   C     C_R   0.882575 0.342413 0.631900 0.289600
C75   C     C_R   0.377704 0.157754 0.135981 0.253446
C76   C     C_R   0.383857 0.842479 0.628582 0.319141
C77   C     C_R   0.866862 0.708026 0.238562 0.144800
C78   C     C_R   0.875187 0.290581 0.727410 0.204815
C79   C     C_R   0.364312 0.206747 0.241597 0.156247
C80   C     C_R   0.380333 0.788324 0.718002 0.186807
C81   C     C_R   0.819924 0.753953 0.198256 -0.260938
C82   C     C_R   0.836080 0.240906 0.678452 -0.316074
C83   C     C_R   0.317721 0.252803 0.200940 -0.262804
C84   C     C_R   0.346955 0.736453 0.657723 -0.368837
C85   C     C_R   0.759924 0.697432 0.806671 -0.048564
C86   C     C_R   0.766859 0.295501 0.299511 -0.093817
C87   C     C_R   0.260687 0.198504 0.804924 -0.057419
C88   C     C_R   0.268039 0.794854 0.294606 -0.109869
H61   H     H_    0.810267 0.791897 0.281892 0.196249
H62   H     H_    0.833626 0.204667 0.762199 0.164808
H63   H     H_    0.307820 0.290392 0.285334 0.202197
H64   H     H_    0.356204 0.692369 0.715316 0.184453
H65   H     H_    0.767099 0.657560 0.728248 0.207165
H66   H     H_    0.773677 0.333542 0.221200 0.218549
H67   H     H_    0.267851 0.158576 0.726638 0.211053
H68   H     H_    0.274866 0.832663 0.215445 0.227413
O49   O     O_3   0.678073 0.473746 0.773330 -0.574750
C89   C     C_3   0.619292 0.488608 0.691704 -0.038125
H69   H     H_    0.578665 0.481521 0.769820 0.150177
H70   H     H_    0.611826 0.457505 0.588192 0.218643
H71   H     H_    0.618085 0.538542 0.652918 0.165318
O50   O     O_3   0.659517 0.485187 0.340131 -0.606105
C90   C     C_3   0.601678 0.513138 0.277968 -0.081396
H72   H     H_    0.576563 0.481553 0.190090 0.109633
H73   H     H_    0.611461 0.560122 0.229255 0.171729
H74   H     H_    0.568363 0.521614 0.374132 0.137199
O51   O     O_3   0.179229 0.976706 0.838796 -0.599248
C91   C     C_3   0.114172 0.965113 0.792844 -0.069537
H75   H     H_    0.103806 0.914755 0.814170 0.225031
H76   H     H_    0.100998 0.978203 0.670422 0.162915
H77   H     H_    0.082590 0.993658 0.869823 0.128911
O52   O     O_3   0.159609 0.980849 0.368562 -0.594430
C92   C     C_3   0.100973 0.010649 0.316932 -0.017147
H78   H     H_    0.071963 0.979335 0.235535 0.116875
H79   H     H_    0.110484 0.056468 0.261407 0.158887
H80   H     H_    0.071599 0.021246 0.419670 0.143492
O53   O     O_3   0.914762 0.129705 0.397680 -0.617316
C93   C     C_3   0.880747 0.121442 0.252852 -0.122418
H81   H     H_    0.889502 0.160463 0.172138 0.187739
H82   H     H_    0.828602 0.123194 0.273300 0.178676
H83   H     H_    0.892748 0.074472 0.198524 0.125461
O54   O     O_3   0.940940 0.872106 0.894464 -0.587794
C94   C     C_3   0.932020 0.937582 0.869850 -0.287646
H84   H     H_    0.892506 0.944317 0.779451 0.159600
H85   H     H_    0.976702 0.957627 0.824937 0.146301
H86   H     H_    0.918024 0.963843 0.977841 0.146412
O55   O     O_3   0.413039 0.633153 0.395121 -0.639470
C95   C     C_3   0.373565 0.637743 0.257532 -0.197194
H87   H     H_    0.377301 0.684793 0.203156 0.194876
H88   H     H_    0.322790 0.632973 0.289242 0.169379
H89   H     H_    0.384828 0.598743 0.172728 0.167931
O56   O     O_3   0.453343 0.387776 0.935014 -0.608560
C96   C     C_3   0.448243 0.452855 0.974432 -0.236343
H90   H     H_    0.413751 0.475425 0.889091 0.163186
H91   H     H_    0.496126 0.475775 0.967921 0.181297
H92   H     H_    0.428353 0.461147 0.091832 0.120768
O57   O     O_3   0.984396 0.095861 0.918535 -0.661832
C97   C     C_3   0.961761 0.087430 0.761965 -0.159459
H93   H     H_    0.999073 0.062297 0.693159 0.145826
H94   H     H_    0.945747 0.132674 0.707653 0.169716
H95   H     H_    0.918256 0.057402 0.759261 0.134193
O58   O     O_3   0.006689 0.897393 0.400853 -0.660482
C98   C     C_3   0.955308 0.939671 0.436821 -0.388179
H96   H     H_    0.971549 0.974658 0.528118 0.146866
H97   H     H_    0.912579 0.913800 0.475730 0.188405
H98   H     H_    0.940165 0.966131 0.330469 0.181869
O59   O     O_3   0.495517 0.598653 0.912352 -0.670958
C99   C     C_3   0.473143 0.593463 0.754694 -0.130536
H99   H     H_    0.509380 0.567893 0.684367 0.131228
H100  H     H_    0.460093 0.639842 0.702592 0.150704
H101  H     H_    0.428132 0.565543 0.748273 0.139597
O60   O     O_3   0.522617 0.395998 0.441719 -0.667394
C100  C     C_3   0.467359 0.436079 0.456567 -0.393624
H102  H     H_    0.470616 0.464342 0.567566 0.157440
H103  H     H_    0.421852 0.408442 0.449016 0.199442
H104  H     H_    0.464976 0.469955 0.359411 0.180019
Cl1   Cl    Cl    0.118483 0.419846 0.557471 -0.616142
Cl2   Cl    Cl    0.061853 0.604641 0.120347 -0.573298
Cl3   Cl    Cl    0.620845 0.919659 0.560552 -0.586686
Cl4   Cl    Cl    0.553810 0.114793 0.141146 -0.580990
Cl5   Cl    Cl    0.178843 0.170852 0.506140 -0.577644
Cl6   Cl    Cl    0.193626 0.813229 0.982569 -0.640167
Cl7   Cl    Cl    0.678148 0.670206 0.506935 -0.582401
Cl8   Cl    Cl    0.692606 0.313420 0.985892 -0.571944
O61   O     O_3   0.931550 0.618709 0.168482 -0.624733
C101  C     C_3   0.911421 0.571397 0.266974 0.264372
H105  H     H_    0.888125 0.532687 0.199795 0.097390
H106  H     H_    0.878502 0.587744 0.359579 0.106846
H107  H     H_    0.956224 0.552996 0.324606 0.212334
O62   O     O_3   0.920542 0.391112 0.688890 -0.636303
C102  C     C_3   0.984797 0.376040 0.653813 0.243064
H108  H     H_    0.999171 0.406815 0.563319 0.206760
H109  H     H_    0.996216 0.324819 0.630790 -0.107412
H110  H     H_    0.017009 0.390161 0.749329 0.151662
O63   O     O_3   0.427286 0.117036 0.171543 -0.624336
C103  C     C_3   0.406883 0.070545 0.270435 0.258273
H111  H     H_    0.383714 0.031913 0.201997 0.103786
H112  H     H_    0.374277 0.087565 0.363226 0.107337
H113  H     H_    0.452121 0.052836 0.327382 0.217391
O64   O     O_3   0.421072 0.891599 0.686771 -0.627382
C104  C     C_3   0.485752 0.877169 0.653251 0.256948
H114  H     H_    0.500810 0.908536 0.564180 0.203133
H115  H     H_    0.497634 0.826144 0.628778 -0.116603
H116  H     H_    0.517266 0.890447 0.750488 0.148595
O65   O     O_3   0.247303 0.359593 0.094740 -0.581280
C105  C     C_3   0.304967 0.391664 0.064980 -0.141260
H117  H     H_    0.307048 0.403808 0.939554 0.159170
H118  H     H_    0.348956 0.363868 0.101051 0.116695
H119  H     H_    0.306265 0.436211 0.135686 0.174774
O66   O     O_3   0.246851 0.643975 0.599800 -0.654266
C106  C     C_3   0.243556 0.661339 0.760164 -0.145521
H120  H     H_    0.237959 0.713132 0.784390 0.196684
H121  H     H_    0.286282 0.641821 0.826421 0.119006
H122  H     H_    0.202574 0.637518 0.809979 0.176889
O67   O     O_3   0.749058 0.860232 0.088627 -0.603839
C107  C     C_3   0.803990 0.891985 0.038959 -0.194354
H123  H     H_    0.803995 0.895040 0.909356 0.167650
H124  H     H_    0.848994 0.868595 0.085370 0.146102
H125  H     H_    0.803872 0.941298 0.086340 0.166940
O68   O     O_3   0.774513 0.126776 0.530259 -0.636064
C108  C     C_3   0.766434 0.115640 0.688825 -0.125573
H126  H     H_    0.737027 0.153236 0.747042 0.144250
H127  H     H_    0.814596 0.107902 0.748066 0.120030
H128  H     H_    0.742660 0.069877 0.702098 0.217833
O69   O     O_3   0.085976 0.125206 0.832631 -0.683302
C109  C     C_3   0.144652 0.115896 0.919868 -0.146325
H129  H     H_    0.159284 0.160280 0.983525 0.151254
H130  H     H_    0.182730 0.101623 0.838758 0.224257
H131  H     H_    0.140534 0.076958 0.003679 0.174425
O70   O     O_3   0.089542 0.859805 0.568610 -0.651472
C110  C     C_3   0.128382 0.834736 0.450698 -0.103309
H132  H     H_    0.128175 0.782318 0.453583 0.114741
H133  H     H_    0.178818 0.849694 0.476895 0.169288
H134  H     H_    0.112993 0.851522 0.332558 0.152101
O71   O     O_3   0.596137 0.635050 0.836106 -0.687382
C111  C     C_3   0.649567 0.608404 0.920461 -0.195084
H135  H     H_    0.669113 0.642852 0.009817 0.186643
H136  H     H_    0.688036 0.596727 0.838614 0.222577
H137  H     H_    0.636283 0.563359 0.974352 0.166236
O72   O     O_3   0.590249 0.347750 0.633040 -0.586849
C112  C     C_3   0.637628 0.329735 0.525816 -0.071588
H138  H     H_    0.632805 0.279152 0.491062 0.099458
H139  H     H_    0.686137 0.334595 0.585221 0.190978
H140  H     H_    0.635946 0.360054 0.421370 0.145654
Cl9   Cl    Cl    0.799205 0.408835 0.877694 -0.586878
Cl10  Cl    Cl    0.752358 0.578075 0.229897 -0.707377
Cl11  Cl    Cl    0.307336 0.910756 0.881109 -0.577193
Cl12  Cl    Cl    0.248080 0.075062 0.229517 -0.697070

loop_
_geom_bond_atom_site_label_1
_geom_bond_atom_site_label_2
_geom_bond_distance
_ccdc_geom_bond_type
P10   C77   1.853570 S    
C19   H27   1.112325 S    
C17   O49   1.411994 S    
P5    O37   1.772191 S    
P7    O39   1.776133 S    
P2    O2    1.561869 D    
O69   C109  1.406743 S    
P8    O40   1.742456 S    
C100  H104  1.107349 S    
P9    O33   1.541325 D    
C77   C81   1.393151 A    
O29   Ba1   2.858441 S    
C98   H96   1.108681 S    
C95   H89   1.112741 S    
O26   Ba2   2.896161 S    
C29   H53   1.111638 S    
C86   H66   1.071320 S    
C103  H113  1.096291 S    
C32   H56   1.112516 S    
C107  H123  1.114406 S    
C6    H10   1.107494 S    
Ba1   O46   3.027184 S    
C31   H55   1.112224 S    
P4    O8    1.607952 S    
C17   H29   1.110303 S    
O53   C93   1.408597 S    
P7    O48   1.612330 S    
P5    O25   1.560914 D    
C37   C41   1.408250 A    
C23   H39   1.107191 S    
O67   C107  1.410339 S    
P15   C48   1.880695 S    
C39   C43   1.402905 A    
C84   H64   1.071163 S    
C15   Cl11  1.761093 S    
C105  H117  1.113481 S    
C18   H26   1.097675 S    
P4    C40   1.947108 S    
C11   O71   1.415939 S    
C88   H68   1.072375 S    
O63   C103  1.391140 S    
C80   C84   1.380470 A    
C2    O54   1.410536 S    
C50   C54   1.426382 A    
P8    Ba4   3.500713 S    
P1    O1    1.582808 D    
O62   C102  1.398590 S    
C34   C58   1.442189 A    
C42   C46   1.401965 A    
C61   C69   1.452554 A    
O5    Ba2   2.880477 S    
O24   P15   1.744869 S    
O31   Ba3   2.858441 S    
O7    Ba4   2.880477 S    
C38   C58   1.485081 A    
C49   Cl5   1.768089 S    
C12   H20   1.115090 S    
C36   C60   1.423733 A    
O18   C22   1.416920 S    
C43   Cl3   1.742011 S    
O15   P16   1.541958 D    
C18   H30   1.115511 S    
C35   O67   1.378915 S    
C81   H61   1.083253 S    
O4    Ba4   2.933184 S    
O13   P14   1.541964 D    
C1    C29   1.523188 S    
C109  H131  1.108693 S    
O42   C6    1.394156 S    
C43   C47   1.394690 A    
C107  H125  1.106809 S    
O72   C112  1.409954 S    
C90   H74   1.104179 S    
C64   C72   1.470836 A    
C6    C10   1.531660 S    
C27   H43   1.086447 S    
P3    O7    1.597539 S    
P11   O35   1.543330 D    
C68   C84   1.411679 A    
C25   H41   1.108467 S    
C26   H46   1.109388 S    
C73   O61   1.360895 S    
C3    O55   1.408932 S    
O40   C15   1.390982 S    
C52   C56   1.421365 A    
C55   C85   1.429398 A    
C106  H121  1.104657 S    
C112  H138  1.104926 S    
C5    H13   1.112231 S    
Ba3   Ba4   4.697307 S    
C20   H28   1.096999 S    
C7    H15   1.113692 S    
P3    C39   1.921195 S    
C52   Cl8   1.763004 S    
C96   H90   1.106540 S    
C44   Cl4   1.726999 S    
C36   C66   1.455990 A    
O28   Ba4   2.896161 S    
C16   H24   1.095513 S    
C91   H75   1.106188 S    
C16   Cl12  1.780068 S    
O6    Ba1   2.868980 S    
O21   C29   1.401679 S    
C92   H78   1.112620 S    
O9    Ba1   2.906628 S    
C18   O50   1.413547 S    
C36   O68   1.389893 S    
O3    Ba3   2.892358 S    
C95   H88   1.098345 S    
C70   C74   1.403612 A    
P1    C37   1.915698 S    
P6    O38   1.745444 S    
Ba3   O47   2.880583 S    
C63   C87   1.406127 A    
P8    O28   1.581833 D    
C103  H112  1.111799 S    
P9    O29   1.743932 S    
P5    Ba1   3.529906 S    
P10   O34   1.540636 D    
C9    O57   1.421252 S    
C79   C83   1.390960 A    
C108  H127  1.105955 S    
P7    Ba3   3.529906 S    
C11   O59   1.421141 S    
C7    C11   1.524066 S    
C104  H115  1.115042 S    
C20   H32   1.111963 S    
C76   C80   1.392608 A    
O60   C100  1.412673 S    
O17   C21   1.383773 S    
C109  H129  1.111971 S    
C4    C32   1.519448 S    
C94   H86   1.113780 S    
H1    C29   1.111184 S    
C24   H36   1.101085 S    
Ba2   O45   3.043723 S    
P2    O18   1.779627 S    
O61   C101  1.399627 S    
C66   C82   1.410988 A    
H3    C31   1.111003 S    
C78   C82   1.379254 A    
C56   C86   1.431563 A    
H4    C32   1.112257 S    
O12   Ba4   2.860165 S    
C72   C76   1.404291 A    
P6    O45   1.601754 S    
C1    O53   1.410658 S    
O21   P14   1.745791 S    
C61   C85   1.407622 A    
P6    O26   1.581833 D    
C21   H33   1.105556 S    
C38   C42   1.415805 A    
C112  H140  1.110017 S    
C23   H35   1.100001 S    
P9    O41   1.735677 S    
O37   C14   1.410726 S    
O10   Ba2   2.860165 S    
C46   C50   1.406512 A    
C93   H81   1.107855 S    
C99   H100  1.106709 S    
O68   C108  1.401867 S    
C97   H95   1.105189 S    
C96   H92   1.111722 S    
O20   C24   1.392011 S    
C100  H103  1.111017 S    
C83   H63   1.083184 S    
C91   H77   1.106575 S    
C92   H80   1.105939 S    
P6    Ba2   3.500713 S    
P5    O46   1.612330 S    
C8    H16   1.111760 S    
P8    O47   1.601754 S    
C49   C53   1.423662 A    
C12   O60   1.422054 S    
O32   Ba4   2.904758 S    
O52   C92   1.409478 S    
C20   O52   1.415473 S    
C4    O56   1.409576 S    
C13   H21   1.107863 S    
C102  H110  1.072247 S    
C63   C67   1.424273 A    
C4    H60   1.112353 S    
C15   H23   1.106924 S    
C61   C65   1.423848 A    
C48   C52   1.401154 A    
C110  H134  1.111566 S    
C21   H37   1.106151 S    
C111  H135  1.111592 S    
C107  H124  1.104677 S    
C89   H69   1.107735 S    
C41   C45   1.395218 A    
Ba1   O45   2.880583 S    
C15   C19   1.522709 S    
C9    H17   1.113839 S    
C44   C48   1.391892 A    
C13   Cl9   1.761409 S    
C93   H83   1.112242 S    
C98   H98   1.109382 S    
C11   H19   1.114145 S    
C40   C60   1.473144 A    
C50   Cl6   1.767969 S    
O59   C99   1.412072 S    
O14   P13   1.544538 D    
C2    C30   1.515292 S    
C94   H84   1.109068 S    
C97   H94   1.108184 S    
O10   P13   1.752724 S    
P9    C78   1.854815 S    
P11   C80   1.861022 S    
O12   P15   1.758925 S    
C41   Cl1   1.752064 S    
C64   C68   1.425365 A    
Ba4   O47   3.043723 S    
O25   Ba1   2.937310 S    
C27   H47   1.100665 S    
P10   O42   1.741643 S    
P3    O3    1.582808 D    
C28   H48   1.103790 S    
C101  H105  1.094057 S    
P4    O20   1.757875 S    
H2    C30   1.112666 S    
C26   H42   1.102558 S    
C105  H118  1.106097 S    
O38   C13   1.392279 S    
C33   C67   1.429584 A    
P12   O32   1.780888 S    
C54   C58   1.444652 A    
C33   C57   1.429963 A    
P1    Ba1   3.498121 S    
C85   H65   1.076176 S    
P3    Ba3   3.498121 S    
O23   P16   1.743749 S    
O27   Ba3   2.937310 S    
O51   C91   1.404558 S    
C5    H9    1.113385 S    
P7    C72   1.921888 S    
P2    C38   1.951638 S    
C8    H12   1.109599 S    
C105  H119  1.105906 S    
C30   H54   1.108751 S    
C71   C75   1.393791 A    
C3    C31   1.521456 S    
C1    H57   1.105003 S    
C14   H22   1.095754 S    
C34   O66   1.385844 S    
P1    O5    1.597539 S    
C101  H107  1.096385 S    
O56   C96   1.407476 S    
C25   H49   1.110683 S    
O54   C94   1.406926 S    
C10   H18   1.111436 S    
C14   Cl10  1.778525 S    
C1    H5    1.111856 S    
C3    H7    1.111200 S    
C102  H108  1.076055 S    
C55   C59   1.434576 A    
C110  H132  1.104739 S    
C111  H137  1.107883 S    
O22   C30   1.401970 S    
P10   O30   1.784227 S    
C90   H73   1.107412 S    
P12   O44   1.742868 S    
C62   C70   1.472783 A    
P2    Ba2   3.526859 S    
O23   C31   1.400224 S    
C24   H40   1.103007 S    
P6    C69   1.905840 S    
C19   H31   1.110589 S    
Ba1   Ba2   4.697307 S    
P7    O27   1.560914 D    
O65   C105  1.412069 S    
O11   P16   1.773635 S    
O1    Ba1   2.892358 S    
O41   C5    1.400813 S    
P12   C79   1.859953 S    
C91   H76   1.112172 S    
O43   C7    1.402229 S    
C28   H52   1.111626 S    
O50   C90   1.408260 S    
C5    C9    1.528645 S    
C106  H120  1.110648 S    
C40   C44   1.408679 A    
C9    O69   1.418587 S    
C34   C68   1.451796 A    
O58   C98   1.410023 S    
C7    H11   1.113522 S    
O71   C111  1.405708 S    
P1    O17   1.739893 S    
C6    H14   1.110379 S    
C108  H126  1.110560 S    
P3    O19   1.746849 S    
P4    O4    1.561869 D    
C104  H114  1.079411 S    
O30   Ba2   2.904758 S    
C63   C71   1.450671 A    
C109  H130  1.103240 S    
C94   H85   1.106556 S    
C21   C25   1.515800 S    
C35   C65   1.429576 A    
P14   C45   1.879141 S    
C23   C27   1.521103 S    
C35   C59   1.424761 A    
Ba2   O46   2.869065 S    
C10   O70   1.413379 S    
O39   C16   1.410712 S    
C99   H101  1.105524 S    
C51   Cl7   1.768009 S    
O57   C97   1.410815 S    
O44   C8    1.397389 S    
P4    Ba4   3.526859 S    
C106  H122  1.096210 S    
C112  H139  1.107313 S    
C54   C88   1.438598 A    
O2    Ba2   2.933184 S    
C42   Cl2   1.744514 S    
C27   H51   1.110090 S    
O9    P14   1.772119 S    
C28   H44   1.109330 S    
P11   O43   1.735020 S    
P12   O36   1.542418 D    
C51   C55   1.423611 A    
C93   H82   1.095121 S    
C74   O62   1.370077 S    
P16   C47   1.878738 S    
C75   O63   1.350347 S    
O11   Ba3   2.906628 S    
C4    H8    1.114943 S    
C53   C87   1.429222 A    
C96   H91   1.109824 S    
C53   C57   1.435790 A    
C47   C51   1.410359 A    
C12   O72   1.419179 S    
C100  H102  1.111663 S    
C75   C79   1.389388 A    
C37   C57   1.458792 A    
C56   C60   1.439975 A    
C13   C17   1.521145 S    
C92   H79   1.109420 S    
O22   P13   1.743176 S    
C67   C83   1.414850 A    
O66   C106  1.419048 S    
C19   O51   1.412616 S    
C65   C81   1.412262 A    
C45   C49   1.409716 A    
C39   C59   1.457117 A    
C95   H87   1.109448 S    
O49   C89   1.405982 S    
O16   P15   1.547623 D    
C8    C12   1.529947 S    
C99   H99   1.104289 S    
C69   C73   1.398504 A    
C102  H109  1.114906 S    
C22   H34   1.099069 S    
Ba3   O48   3.027184 S    
C2    H58   1.107736 S    
C103  H111  1.097085 S    
C110  H133  1.103453 S    
C111  H136  1.101250 S    
O24   C32   1.410092 S    
C89   H70   1.098660 S    
C62   C86   1.402727 A    
C74   C78   1.393039 A    
C108  H128  1.099176 S    
O55   C95   1.408000 S    
P2    O6    1.607952 S    
O64   C104  1.400942 S    
C16   C20   1.527286 S    
P11   O31   1.744938 S    
C104  H116  1.070069 S    
C25   H45   1.105956 S    
C98   H97   1.110278 S    
C26   H50   1.110406 S    
C73   C77   1.391983 A    
P13   C46   1.896806 S    
C2    H6    1.115990 S    
P5    C70   1.941264 S    
C76   O64   1.371313 S    
C87   H67   1.076317 S    
C89   H71   1.109260 S    
C82   H62   1.062433 S    
C10   O58   1.419142 S    
Ba4   O48   2.869065 S    
C101  H106  1.110606 S    
C64   C88   1.406691 A    
C3    H59   1.104965 S    
C97   H93   1.108271 S    
C62   C66   1.438096 A    
O19   C23   1.392530 S    
C22   H38   1.105193 S    
P8    C71   1.910806 S    
O70   C110  1.403558 S    
C24   C28   1.525746 S    
C90   H72   1.111500 S    
C22   C26   1.521480 S    
C33   O65   1.380982 S    
C14   C18   1.528725 S    
O8    Ba3   2.868980 S    
C17   H25   1.115612 S    
