data_mof_unit_43627.cif
_audit_creation_date              2012-12-11T14:57:55-0500
_audit_creation_method            fapswitch 2.2
_symmetry_space_group_name_H-M    P1
_symmetry_Int_Tables_number       1
_space_group_crystal_system       triclinic
_cell_length_a                    6.935909
_cell_length_b                    17.002993
_cell_length_c                    17.008368
_cell_angle_alpha                 100.249972
_cell_angle_beta                  90.515418
_cell_angle_gamma                 91.783325
_cell_volume                      1972.63480922

loop_
_atom_site_label
_atom_site_type_symbol
_atom_type_description
_atom_site_fract_x
_atom_site_fract_y
_atom_site_fract_z
_atom_type_partial_charge
O1    O     O_R   0.506180 0.438940 0.579430 -0.549909
O2    O     O_R   0.170520 0.406230 0.413590 -0.543545
O3    O     O_R   0.005180 0.561060 0.420570 -0.530200
C1    C     C_R   0.337470 0.385216 0.382318 0.714778
O4    O     O_R   0.176140 0.429310 0.578370 -0.510655
O5    O     O_R   0.010830 0.584300 0.586530 -0.544789
C2    C     C_R   0.342743 0.414566 0.606151 0.727363
O6    O     O_R   0.500520 0.415700 0.413470 -0.527372
O7    O     O_3   0.340830 0.550820 0.502480 -0.367263
V1    V     V_3+5 0.064040 0.490570 0.499540 1.542183
O8    O     O_R   0.681400 0.593770 0.586410 -0.531308
C3    C     C_R   0.854867 0.616468 0.615239 0.741792
O9    O     O_R   0.675790 0.570690 0.421630 -0.536560
C4    C     C_R   0.845457 0.589131 0.397526 0.788095
V2    V     V_3+5 0.564650 0.509430 0.500460 1.504256
O10   O     O_3   0.837730 0.449180 0.497520 -0.369367
C5    C     C_R   0.914418 0.865524 0.170269 -0.188390
C6    C     C_R   0.850501 0.641447 0.335662 -0.134351
C7    C     C_R   0.694409 0.674945 0.217929 -0.072206
C8    C     C_R   0.711942 0.625659 0.274281 -0.078595
C9    C     C_R   0.982204 0.707245 0.337275 -0.066773
C10   C     C_R   0.958883 0.760330 0.281872 0.062311
C11   C     C_R   0.815539 0.743408 0.220811 0.078068
C12   C     C_R   0.795251 0.795262 0.164322 -0.041626
C13   C     C_R   0.043553 0.885739 0.236180 -0.025028
C14   C     C_R   0.068039 0.832427 0.289267 -0.149913
H1    H     H_    0.581589 0.659197 0.173081 0.163180
H2    H     H_    0.167173 0.850014 0.339247 0.184981
H3    H     H_    0.618206 0.573277 0.268810 0.186703
H4    H     H_    0.394948 0.684725 0.929104 0.140929
C15   C     C_R   0.072924 0.890764 0.726801 -0.094415
C16   C     C_R   0.221185 0.888597 0.669892 -0.106367
C17   C     C_R   0.282397 0.813962 0.629846 -0.035411
C18   C     C_R   0.174646 0.744580 0.637804 -0.146456
C19   C     C_R   0.015794 0.746800 0.689622 0.030947
C20   C     C_R   0.993797 0.818023 0.745483 0.026409
C21   C     C_R   0.877251 0.682000 0.687076 -0.141922
C22   C     C_R   0.749879 0.683078 0.752242 0.076299
C23   C     C_R   0.755489 0.749273 0.816946 0.049964
C24   C     C_R   0.885914 0.815532 0.815618 -0.146379
C25   C     C_R   0.623011 0.616936 0.756688 -0.113644
C26   C     C_R   0.494538 0.618474 0.819094 -0.110008
C27   C     C_R   0.494693 0.684000 0.880424 -0.056292
C28   C     C_R   0.626584 0.747553 0.880776 -0.107076
H5    H     H_    0.219722 0.689553 0.602801 0.192312
H6    H     H_    0.623667 0.562155 0.713501 0.134255
H7    H     H_    0.396572 0.567907 0.820493 0.147231
H8    H     H_    0.623625 0.794808 0.931876 0.139103
C29   C     C_R   0.485666 0.234998 0.405197 -0.141661
C30   C     C_R   0.577934 0.167184 0.419477 -0.130344
C31   C     C_R   0.623194 0.107357 0.356225 -0.026211
C32   C     C_R   0.572728 0.114047 0.278334 -0.097391
C33   C     C_R   0.477905 0.181870 0.261878 0.017867
C34   C     C_R   0.437418 0.245113 0.326436 0.080989
C35   C     C_R   0.421708 0.186512 0.182793 -0.145254
C36   C     C_R   0.341290 0.257655 0.167082 0.069382
C37   C     C_R   0.304170 0.323383 0.230538 -0.068165
C38   C     C_R   0.349943 0.316437 0.312258 -0.151291
C39   C     C_R   0.302168 0.264430 0.086745 -0.205497
C40   C     C_R   0.224127 0.332169 0.067284 -0.161326
C41   C     C_R   0.183545 0.395485 0.126675 0.631837
C42   C     C_R   0.222904 0.392628 0.207344 -0.149911
H9    H     H_    0.452048 0.278998 0.456962 0.095932
H10   H     H_    0.614503 0.161090 0.480082 0.127774
H11   H     H_    0.695579 0.054906 0.367595 0.151302
H12   H     H_    0.608671 0.065296 0.231282 0.144444
H13   H     H_    0.334781 0.217785 0.037153 0.152771
H14   H     H_    0.196149 0.335879 0.005342 0.199240
C43   C     C_R   0.425575 0.145984 0.838692 -0.137317
C44   C     C_R   0.338735 0.364200 0.669899 -0.183841
C45   C     C_R   0.164086 0.315583 0.777570 -0.198324
C46   C     C_R   0.181019 0.367647 0.722485 0.587518
C47   C     C_R   0.481152 0.308327 0.675374 -0.256485
C48   C     C_R   0.463112 0.255119 0.730210 0.071134
C49   C     C_R   0.302914 0.258180 0.781708 -0.042946
C50   C     C_R   0.285187 0.203947 0.836177 0.541232
C51   C     C_R   0.583066 0.145042 0.787230 -0.152826
C52   C     C_R   0.602143 0.198162 0.733780 -0.140883
H15   H     H_    0.692614 0.102370 0.788286 0.195864
H16   H     H_    0.040478 0.319888 0.816416 0.201893
H17   H     H_    0.726274 0.194554 0.695192 0.143432
H18   H     H_    0.602327 0.304370 0.635177 0.154644
O11   O     O_R   0.265840 0.084300 0.086750 -0.527722
O12   O     O_R   0.589750 0.070740 0.921690 -0.542936
O13   O     O_R   0.755020 0.915730 0.913400 -0.534199
C53   C     C_R   0.422527 0.089542 0.897392 0.782695
O14   O     O_R   0.595830 0.093740 0.086480 -0.542613
O15   O     O_R   0.761150 0.938890 0.079360 -0.528910
C54   C     C_R   0.429608 0.114998 0.116791 0.680147
O16   O     O_R   0.259710 0.061140 0.920790 -0.504262
O17   O     O_3   0.425260 0.949200 0.997610 -0.377085
V3    V     V_3+5 0.702060 0.009430 0.000450 1.543224
O18   O     O_R   0.090530 0.929220 0.078150 -0.536439
C55   C     C_R   0.921071 0.913707 0.104871 0.742086
O19   O     O_R   0.084440 0.906220 0.913360 -0.551856
C56   C     C_R   0.910799 0.881800 0.886545 0.689755
V4    V     V_3+5 0.201450 0.990520 0.999290 1.531709
O20   O     O_3   0.928380 0.050800 0.002390 -0.352649
C57   C     C_2   0.653151 0.774296 0.098199 0.703900
O21   O     O_2   0.673660 0.714068 0.048248 -0.564710
O22   O     O_R   0.490846 0.820556 0.095965 -0.638227
H19   H     H_    0.399533 0.798220 0.050002 0.282546
C58   C     C_2   0.447655 0.806412 0.573947 0.813950
O23   O     O_2   0.485251 0.858174 0.534370 -0.534748
O24   O     O_R   0.558281 0.738400 0.565094 -0.666280
H20   H     H_    0.668033 0.740232 0.526378 0.284656
F1    F     F_    0.108046 0.461507 0.105057 -0.647967
C59   C     C_2   0.146359 0.964900 0.254327 0.765629
O25   O     O_2   0.303459 0.971492 0.288439 -0.556986
O26   O     O_R   0.059424 0.032601 0.235840 -0.676781
H21   H     H_    0.138569 0.083583 0.254872 0.289652
C60   C     C_2   0.172522 0.464411 0.262620 0.820314
O27   O     O_2   0.003699 0.482347 0.268009 -0.548009
O28   O     O_R   0.318083 0.515684 0.301236 -0.675791
H22   H     H_    0.269350 0.568717 0.328749 0.302687
F2    F     F_    0.134709 0.208607 0.887211 -0.723345
F3    F     F_    0.041932 0.421856 0.720923 -0.691427
C61   C     C_2   0.145251 0.719609 0.394913 0.716941
O29   O     O_2   0.115536 0.723177 0.465938 -0.581888
O30   O     O_R   0.333184 0.726387 0.367190 -0.658948
H23   H     H_    0.434366 0.730683 0.411066 0.312210
C62   C     C_2   0.976646 0.967056 0.755202 0.782577
O31   O     O_2   0.801247 0.967018 0.760852 -0.540915
O32   O     O_R   0.084236 0.038659 0.773100 -0.665681
H24   H     H_    0.002107 0.086514 0.790040 0.311686
C63   C     C_2   0.306160 0.963689 0.650145 0.895934
O33   O     O_2   0.475033 0.982344 0.666782 -0.522400
O34   O     O_R   0.192885 0.012511 0.611843 -0.641771
H25   H     H_    0.266502 0.062224 0.602004 0.299319

loop_
_geom_bond_atom_site_label_1
_geom_bond_atom_site_label_2
_ccdc_geom_bond_type
C35   C36   A    
C25   C26   A    
C63   O33   D    
C29   H9    S    
C12   C57   S    
C30   H10   S    
C47   C48   A    
C4    C6    S    
C43   C51   A    
C7    C8    A    
C1    O6    A    
O14   V3    S    
O34   H25   S    
C2    C44   S    
C60   O28   S    
O28   H22   S    
V3    O20   S    
C37   C42   A    
C33   C34   A    
C59   O25   D    
C9    C61   S    
C19   C21   A    
O12   C53   A    
C15   C20   A    
O5    C3    A    
C22   C23   A    
O13   C56   A    
V2    O10   S    
C6    C9    A    
V4    O20   S    
C36   C37   A    
C43   C50   A    
C18   C19   A    
C31   H11   S    
C16   C63   S    
C3    C21   S    
C61   O29   D    
C45   H16   S    
C39   H13   S    
O26   H21   S    
O8    V2    S    
O15   V3    S    
C46   F3    S    
C25   H6    S    
O1    V2    S    
C7    H1    S    
O7    V1    S    
O16   V4    S    
C33   C35   A    
C39   C40   A    
C29   C34   A    
O1    C2    A    
O9    C4    A    
O11   V4    S    
C24   C56   S    
C60   O27   D    
O13   V3    S    
C30   C31   A    
C8    H3    S    
C51   H15   S    
O11   C54   A    
O15   C55   A    
C5    C12   A    
C48   C49   A    
C31   C32   A    
O22   H19   S    
C20   C24   A    
C22   C25   A    
C53   O16   A    
O17   V3    S    
O4    C2    A    
C13   C14   A    
C51   C52   A    
C40   C41   A    
C19   C20   A    
C7    C11   A    
C49   C50   A    
C21   C22   A    
C57   O21   D    
C11   C12   A    
C44   C47   A    
C17   C18   A    
C58   O24   S    
C18   H5    S    
C32   C33   A    
O17   V4    S    
O3    C4    A    
C57   O22   S    
O6    V2    S    
O9    V2    S    
C27   C28   A    
C10   C14   A    
H4    C27   S    
C26   C27   A    
C62   O32   S    
O2    V1    S    
O18   V4    S    
C47   H18   S    
C23   C24   A    
C32   H12   S    
O30   H23   S    
C34   C38   A    
C63   O34   S    
C17   C58   S    
C15   C16   A    
C15   C62   S    
O5    V1    S    
O8    C3    A    
O19   V4    S    
C23   C28   A    
O24   H20   S    
C14   H2    S    
C36   C39   A    
C5    C13   A    
C16   C17   A    
O18   C55   A    
O14   C54   A    
O7    V2    S    
C45   C46   A    
C35   C54   S    
O3    V1    S    
V1    O10   S    
C45   C49   A    
C52   H17   S    
C37   C38   A    
O2    C1    A    
C50   F2    S    
C59   O26   S    
C6    C8    A    
C26   H7    S    
C41   C42   A    
C41   F1    S    
C61   O30   S    
O4    V1    S    
C42   C60   S    
C40   H14   S    
C29   C30   A    
C48   C52   A    
C1    C38   S    
C58   O23   D    
C10   C11   A    
C44   C46   A    
C5    C55   S    
O12   V3    S    
C62   O31   D    
C9    C10   A    
O19   C56   A    
C43   C53   S    
C28   H8    S    
C13   C59   S    
O32   H24   S    
