data_mof_unit_14517.cif
_audit_creation_date              2012-12-10T18:42:32-0500
_audit_creation_method            fapswitch 2.2
_symmetry_space_group_name_H-M    P1
_symmetry_Int_Tables_number       1
_space_group_crystal_system       triclinic
_cell_length_a                    8.713829
_cell_length_b                    10.680079
_cell_length_c                    9.836034
_cell_angle_alpha                 89.518964
_cell_angle_beta                  98.929103
_cell_angle_gamma                 92.015958
_cell_volume                      903.72733441

loop_
_atom_site_label
_atom_site_type_symbol
_atom_type_description
_atom_site_fract_x
_atom_site_fract_y
_atom_site_fract_z
_atom_type_partial_charge
C1    C     C_R   0.501770 0.260515 0.501022 0.911923
C2    C     C_R   0.497896 0.739510 0.498943 0.918394
C3    C     C_R   0.201408 0.501294 0.464070 0.956012
C4    C     C_R   0.798583 0.498505 0.535923 0.951913
C5    C     C_2   0.037363 0.485153 0.446511 -0.285923
C6    C     C_2   0.962638 0.514459 0.553480 -0.303201
C7    C     C_R   0.366473 0.062310 0.436719 -0.104493
C8    C     C_R   0.632821 0.937803 0.564265 -0.114134
C9    C     C_R   0.367217 0.932329 0.431637 -0.091020
C10   C     C_R   0.632921 0.067903 0.567184 -0.091743
C11   C     C_R   0.500269 0.872149 0.496356 -0.168581
C12   C     C_R   0.499448 0.127936 0.503628 -0.164341
C13   C     C_R   0.602899 0.575212 0.085476 -0.255777
C14   C     C_R   0.397117 0.424778 0.914525 -0.253074
C15   C     C_R   0.602901 0.575251 0.941546 0.728096
C16   C     C_R   0.397119 0.424735 0.058452 0.730366
H1    H     H_    0.685120 0.635256 0.150949 0.205551
H2    H     H_    0.314897 0.364733 0.849054 0.209431
N1    N     N_R   0.499960 0.499970 0.857200 -0.175872
N2    N     N_R   0.500040 0.500030 0.142800 -0.175339
O1    O     O_R   0.499990 0.316750 0.614620 -0.579261
O2    O     O_R   0.500010 0.683250 0.385380 -0.588376
O3    O     O_R   0.499990 0.316780 0.385290 -0.587245
O4    O     O_R   0.500010 0.683220 0.614710 -0.582183
O5    O     O_R   0.271750 0.499990 0.587840 -0.629148
O6    O     O_R   0.728250 0.500010 0.412160 -0.628943
O7    O     O_R   0.271750 0.500010 0.358510 -0.537187
O8    O     O_R   0.728250 0.499990 0.641490 -0.544730
Zn1   Zn    Zn3+2 0.500000 0.499980 0.653120 1.081273
Zn2   Zn    Zn3+2 0.500000 0.500020 0.346880 1.082721
C17   C     C_2   0.964754 0.415309 0.319617 1.024432
O9    O     O_2   0.987945 0.452012 0.206194 -0.546700
O10   O     O_R   0.871622 0.307392 0.330903 -0.757491
H3    H     H_    0.826710 0.270328 0.238084 0.342255
C18   C     C_2   0.035236 0.584472 0.680238 1.030548
O11   O     O_2   0.012645 0.547620 0.793773 -0.557848
O12   O     O_R   0.127425 0.692877 0.668622 -0.759217
H4    H     H_    0.171817 0.730415 0.761329 0.347205
C19   C     C_2   0.227318 0.129692 0.372098 1.027730
O13   O     O_2   0.170872 0.207138 0.438523 -0.602210
O14   O     O_R   0.160709 0.103428 0.236257 -0.731803
H5    H     H_    0.066944 0.155438 0.203744 0.377360
C20   C     C_2   0.770914 0.870619 0.631865 1.027537
O15   O     O_2   0.825035 0.788890 0.569471 -0.636519
O16   O     O_R   0.839081 0.901687 0.766058 -0.727246
H6    H     H_    0.931799 0.849189 0.800784 0.381170
C21   C     C_2   0.225303 0.859864 0.367629 0.952458
O17   O     O_2   0.231893 0.786876 0.273808 -0.571516
O18   O     O_R   0.083376 0.878408 0.412613 -0.725001
H7    H     H_    0.995293 0.825425 0.360023 0.370063
C22   C     C_2   0.776003 0.140911 0.627190 0.956145
O19   O     O_2   0.897398 0.127004 0.582138 -0.538106
O20   O     O_R   0.772555 0.222692 0.736745 -0.751233
H8    H     H_    0.877074 0.266346 0.768346 0.365743
F1    F     F_    0.705902 0.650785 0.887019 -0.605353
F2    F     F_    0.294129 0.349193 0.112976 -0.607515

loop_
_geom_bond_atom_site_label_1
_geom_bond_atom_site_label_2
_ccdc_geom_bond_type
C2    O2    A    
C4    O6    A    
C20   O15   D    
C16   F2    S    
C1    O1    A    
O12   H4    S    
C20   O16   S    
O14   H5    S    
C14   H2    S    
C21   O17   D    
C8    C20   S    
C13   H1    S    
C16   N2    A    
C3    O7    A    
O10   H3    S    
C19   O14   S    
N2    Zn2   S    
O16   H6    S    
O7    Zn2   S    
C15   N1    A    
C9    C11   A    
C7    C12   A    
C1    C12   S    
C10   C12   A    
C8    C11   A    
C10   C22   S    
O6    Zn2   S    
C4    C6    S    
O8    Zn1   S    
C4    O8    A    
C1    O3    A    
C13   C15   A    
C2    O4    A    
C5    C6    D    
C14   C16   A    
C9    C21   S    
C17   O10   S    
C2    C11   S    
C22   O20   S    
C22   O19   D    
N1    Zn1   S    
O3    Zn2   S    
C3    C5    S    
C3    O5    A    
C6    C18   S    
O5    Zn1   S    
C21   O18   S    
O18   H7    S    
C19   O13   D    
C7    C9    A    
C7    C19   S    
O4    Zn1   S    
O2    Zn2   S    
C13   N2    A    
C18   O12   S    
O20   H8    S    
O1    Zn1   S    
C14   N1    A    
C8    C10   A    
C17   O9    D    
C5    C17   S    
C18   O11   D    
C15   F1    S    
