data_mof_unit_50660.cif
_audit_creation_date              2012-12-10T17:17:20-0500
_audit_creation_method            fapswitch 2.2
_symmetry_space_group_name_H-M    P1
_symmetry_Int_Tables_number       1
_space_group_crystal_system       triclinic
_cell_length_a                    27.126933
_cell_length_b                    13.019835
_cell_length_c                    11.647092
_cell_angle_alpha                 101.124415
_cell_angle_beta                  93.045872
_cell_angle_gamma                 90.841132
_cell_volume                      4029.31562661

loop_
_atom_site_label
_atom_site_type_symbol
_atom_type_description
_atom_site_fract_x
_atom_site_fract_y
_atom_site_fract_z
_atom_type_partial_charge
C1    C     C_R   0.499516 0.298321 0.476554 0.806335
C2    C     C_R   0.498431 0.701303 0.523097 0.824552
C3    C     C_R   0.108636 0.548329 0.678681 -0.066455
C4    C     C_R   0.901463 0.545548 0.688375 -0.070360
C5    C     C_R   0.136425 0.462100 0.698881 -0.152097
C6    C     C_R   0.874936 0.639028 0.700227 -0.165598
C7    C     C_R   0.112380 0.380698 0.741839 -0.078125
C8    C     C_R   0.901230 0.736418 0.728581 -0.072238
C9    C     C_R   0.133049 0.634684 0.649479 -0.040884
C10   C     C_R   0.875306 0.449628 0.673558 -0.036889
C11   C     C_R   0.352353 0.503150 0.503375 -0.214303
C12   C     C_R   0.648337 0.509351 0.504529 -0.172930
C13   C     C_R   0.979840 0.454321 0.697649 0.016994
C14   C     C_R   0.030553 0.642146 0.683240 0.016537
C15   C     C_R   0.979557 0.644487 0.707129 -0.049775
C16   C     C_R   0.032325 0.461377 0.715987 -0.051104
C17   C     C_R   0.953659 0.548062 0.697827 -0.041155
C18   C     C_R   0.057150 0.550706 0.692847 -0.044966
C19   C     C_R   0.952912 0.357249 0.672651 0.392160
C20   C     C_R   0.055106 0.724841 0.643572 0.395714
C21   C     C_R   0.900984 0.356494 0.666199 -0.263748
C22   C     C_R   0.106382 0.722121 0.632532 -0.268794
C23   C     C_R   0.406868 0.502117 0.500963 0.839140
C24   C     C_R   0.593409 0.499405 0.499691 0.837464
C25   C     C_R   0.061158 0.383452 0.756236 0.429817
C26   C     C_R   0.953199 0.738663 0.738864 0.430907
C27   C     C_R   0.494583 0.815452 0.538371 -0.066047
C28   C     C_R   0.499170 0.183475 0.459560 -0.077473
C29   C     C_R   0.504225 0.007357 0.344421 -0.289942
C30   C     C_R   0.486022 0.990734 0.653053 -0.284550
C31   C     C_R   0.503505 0.115466 0.348344 0.021931
C32   C     C_R   0.486491 0.882283 0.647656 -0.001273
C33   C     C_R   0.493285 0.140258 0.559763 -0.283952
C34   C     C_R   0.500045 0.858919 0.438508 -0.268542
C35   C     C_R   0.492656 0.032648 0.552990 0.140780
C36   C     C_R   0.498943 0.966256 0.445097 0.126270
C37   C     C_R   0.446446 0.416229 0.024329 -0.103909
C38   C     C_R   0.554304 0.581166 0.974813 -0.104399
C39   C     C_R   0.452968 0.423684 0.146485 0.064302
C40   C     C_R   0.547381 0.575120 0.853103 0.070013
C41   C     C_R   0.524650 0.531103 0.155843 -0.000000
C42   C     C_R   0.475426 0.468524 0.844057 0.002682
C43   C     C_R   0.520052 0.528724 0.033275 -0.009717
C44   C     C_R   0.480167 0.470455 0.966463 -0.011772
C45   C     C_R   0.187617 0.463209 0.678051 0.564562
C46   C     C_R   0.822670 0.630173 0.689085 0.643728
C47   C     C_R   0.183747 0.629834 0.632392 0.597667
C48   C     C_R   0.823548 0.448963 0.660388 0.573973
C49   C     C_R   0.273713 0.591255 0.495936 -0.008931
C50   C     C_R   0.730649 0.431739 0.506971 -0.044882
C51   C     C_R   0.325106 0.588097 0.477561 -0.112325
C52   C     C_R   0.678746 0.421252 0.477607 -0.090160
C53   C     C_R   0.326061 0.411914 0.513326 -0.088580
C54   C     C_R   0.671479 0.608565 0.544080 -0.162589
C55   C     C_R   0.275724 0.417741 0.536574 0.427656
C56   C     C_R   0.723414 0.617645 0.562954 0.415977
C57   C     C_R   0.253113 0.517290 0.557216 0.095682
C58   C     C_R   0.750719 0.528192 0.574191 0.169834
Cu1   Cu    Cu3+1 0.503580 0.507730 0.615930 0.939482
Cu2   Cu    Cu3+1 0.496420 0.492270 0.384070 0.937933
H1    H     H_    0.509140 0.954473 0.261836 0.129343
H2    H     H_    0.480342 0.042718 0.735709 0.127629
H3    H     H_    0.445096 0.426325 0.790669 0.143053
H4    H     H_    0.554902 0.573232 0.209421 0.141964
H5    H     H_    0.573089 0.615405 0.808092 0.131221
H6    H     H_    0.427767 0.381984 0.191194 0.126824
H7    H     H_    0.880673 0.282278 0.648427 0.176344
H8    H     H_    0.124977 0.786153 0.603767 0.175322
H9    H     H_    0.506004 0.809120 0.354603 0.156062
H10   H     H_    0.488728 0.190517 0.644102 0.153443
N1    N     N_R   0.207018 0.535666 0.619676 -0.438294
N2    N     N_R   0.799806 0.536076 0.638119 -0.435386
N3    N     N_R   0.508960 0.519350 0.790140 -0.185040
N4    N     N_R   0.491040 0.480650 0.209860 -0.184701
O1    O     O_R   0.502540 0.354460 0.582000 -0.587903
O2    O     O_R   0.497460 0.645540 0.418000 -0.579892
O3    O     O_R   0.496500 0.341410 0.386200 -0.584294
O4    O     O_R   0.503500 0.658590 0.613800 -0.573917
O5    O     O_R   0.433290 0.506540 0.597890 -0.581137
O6    O     O_R   0.566710 0.493460 0.402110 -0.583972
O7    O     O_R   0.427240 0.493490 0.402090 -0.583794
O8    O     O_R   0.572760 0.506510 0.597910 -0.585128
O9    O     O_2   0.217972 0.397512 0.721832 -0.514947
O10   O     O_2   0.795722 0.709934 0.741767 -0.503794
O11   O     O_2   0.797493 0.364852 0.677270 -0.571192
O12   O     O_2   0.209677 0.719562 0.636852 -0.570929
C59   C     C_R   0.346770 0.308811 0.467159 0.148458
C60   C     C_R   0.351220 0.232286 0.536255 -0.080639
C61   C     C_R   0.367780 0.132930 0.488029 -0.153700
C62   C     C_R   0.379260 0.109528 0.370213 -0.098755
C63   C     C_R   0.374343 0.185258 0.300719 -0.141279
C64   C     C_R   0.358174 0.284512 0.348839 -0.141656
H11   H     H_    0.341217 0.249624 0.626336 0.161149
H12   H     H_    0.371318 0.074139 0.541813 0.120450
H13   H     H_    0.391962 0.033034 0.332079 0.124349
H14   H     H_    0.382435 0.166923 0.209205 0.136918
H15   H     H_    0.353359 0.341811 0.293231 0.115373
C65   C     C_R   0.642912 0.704646 0.574588 0.109088
C66   C     C_R   0.640771 0.752495 0.692997 -0.078679
C67   C     C_R   0.624373 0.854766 0.723410 -0.136431
C68   C     C_R   0.610758 0.910325 0.635919 -0.096930
C69   C     C_R   0.612536 0.862682 0.517923 -0.138650
C70   C     C_R   0.627505 0.759238 0.487101 -0.197066
H16   H     H_    0.653811 0.712152 0.761455 0.130115
H17   H     H_    0.623747 0.891946 0.814778 0.126505
H18   H     H_    0.598958 0.990276 0.659599 0.123572
H19   H     H_    0.602565 0.906139 0.450329 0.127791
H20   H     H_    0.630035 0.723766 0.395737 0.144829
C71   C     C_R   0.479085 0.844141 0.758141 0.121718
C72   C     C_R   0.509977 0.882421 0.858523 -0.154710
C73   C     C_R   0.502734 0.849431 0.963767 -0.143338
C74   C     C_R   0.464491 0.778167 0.970206 -0.138879
C75   C     C_R   0.433091 0.740629 0.871533 -0.110804
C76   C     C_R   0.439968 0.774206 0.766263 -0.087604
H21   H     H_    0.539393 0.938741 0.855655 0.126346
H22   H     H_    0.526620 0.879900 0.040493 0.132877
H23   H     H_    0.459200 0.752169 0.051616 0.119766
H24   H     H_    0.403427 0.685437 0.876572 0.129372
H25   H     H_    0.415382 0.744281 0.690828 0.109208
C77   C     C_R   0.507669 0.149578 0.233663 0.117224
C78   C     C_R   0.544850 0.220699 0.217089 -0.062933
C79   C     C_R   0.552201 0.241825 0.106076 -0.135033
C80   C     C_R   0.522825 0.191025 0.009397 -0.138622
C81   C     C_R   0.485252 0.121124 0.024266 -0.133131
C82   C     C_R   0.477764 0.100233 0.135341 -0.179058
H26   H     H_    0.568195 0.260176 0.290352 0.159060
H27   H     H_    0.581042 0.296828 0.094968 0.129984
H28   H     H_    0.529255 0.205902 0.923118 0.117408
H29   H     H_    0.462289 0.081780 0.949492 0.140800
H30   H     H_    0.449266 0.043585 0.144153 0.123766
C83   C     C_R   0.405116 0.348345 0.961718 0.099756
C84   C     C_R   0.414388 0.261334 0.874257 -0.147852
C85   C     C_R   0.376200 0.190654 0.825445 -0.187065
C86   C     C_R   0.328087 0.207938 0.860568 -0.088321
C87   C     C_R   0.318232 0.295409 0.945627 -0.082158
C88   C     C_R   0.356613 0.364852 0.996814 -0.174750
H31   H     H_    0.451285 0.246981 0.845344 0.111326
H32   H     H_    0.383916 0.122674 0.759972 0.126209
H33   H     H_    0.298495 0.153641 0.821699 0.137629
H34   H     H_    0.280966 0.308830 0.972879 0.139248
H35   H     H_    0.348594 0.431153 0.064116 0.110053
C89   C     C_R   0.598456 0.640170 0.035254 0.095082
C90   C     C_R   0.645680 0.612553 0.997280 -0.170452
C91   C     C_R   0.687514 0.669979 0.050570 -0.114484
C92   C     C_R   0.682539 0.755580 0.141695 -0.103504
C93   C     C_R   0.635719 0.784051 0.179065 -0.159873
C94   C     C_R   0.593753 0.727098 0.126012 -0.163728
H36   H     H_    0.650064 0.546514 0.926452 0.128525
H37   H     H_    0.723761 0.648156 0.021130 0.144890
H38   H     H_    0.714924 0.799899 0.183295 0.125776
H39   H     H_    0.631987 0.849738 0.249852 0.113433
H40   H     H_    0.557720 0.750580 0.155758 0.109478
O13   O     O_3   0.248439 0.325009 0.519023 -0.704039
H41   H     H_    0.214242 0.338929 0.492774 0.310905
O14   O     O_3   0.748505 0.709718 0.557374 -0.709194
H42   H     H_    0.726443 0.757993 0.524659 0.329275
C95   C     C_R   0.139168 0.289669 0.770021 0.243879
C96   C     C_R   0.154391 0.286897 0.886440 -0.062549
C97   C     C_R   0.179776 0.200770 0.912538 -0.161343
C98   C     C_R   0.189944 0.117124 0.822773 -0.123075
C99   C     C_R   0.174780 0.119453 0.706705 -0.111838
C100  C     C_R   0.149347 0.205375 0.680226 -0.053534
H43   H     H_    0.146776 0.351459 0.956490 0.114072
H44   H     H_    0.191660 0.198950 0.002301 0.128716
H45   H     H_    0.209661 0.050613 0.843125 0.136770
H46   H     H_    0.182739 0.054696 0.637299 0.133321
H47   H     H_    0.137794 0.206617 0.590052 0.117067
C101  C     C_R   0.875807 0.837682 0.740858 0.226563
C102  C     C_R   0.873948 0.903652 0.851116 -0.054776
C103  C     C_R   0.850096 0.999283 0.861779 -0.141952
C104  C     C_R   0.828049 0.029547 0.762640 -0.108675
C105  C     C_R   0.829810 0.964224 0.652663 -0.122815
C106  C     C_R   0.853712 0.868678 0.641556 -0.048746
H48   H     H_    0.890803 0.880814 0.928483 0.126094
H49   H     H_    0.848680 0.049911 0.946903 0.130504
H50   H     H_    0.809608 0.103575 0.771011 0.147778
H51   H     H_    0.812665 0.987613 0.576040 0.121172
H52   H     H_    0.854915 0.818689 0.555908 0.127676
C107  C     C_R   0.657056 0.316804 0.425492 0.101736
C108  C     C_R   0.667467 0.268561 0.310852 -0.164154
C109  C     C_R   0.656117 0.162196 0.270417 -0.149331
C110  C     C_R   0.633102 0.104500 0.342868 -0.115939
C111  C     C_R   0.621633 0.152626 0.455850 -0.157646
C112  C     C_R   0.633448 0.258534 0.497192 -0.185063
H53   H     H_    0.686273 0.312151 0.255093 0.138032
H54   H     H_    0.664781 0.124772 0.182797 0.138460
H55   H     H_    0.623333 0.023138 0.310752 0.118160
H56   H     H_    0.603799 0.107775 0.511634 0.141875
H57   H     H_    0.625997 0.294023 0.586377 0.142711
C113  C     C_R   0.348264 0.660141 0.411352 0.129056
C114  C     C_R   0.355599 0.626338 0.291651 -0.081890
C115  C     C_R   0.377588 0.693747 0.228286 -0.124566
C116  C     C_R   0.391731 0.795555 0.283912 -0.113684
C117  C     C_R   0.384020 0.829481 0.402902 -0.127423
C118  C     C_R   0.362816 0.761896 0.466796 -0.202901
H58   H     H_    0.344419 0.547743 0.248129 0.101350
H59   H     H_    0.383582 0.667089 0.136284 0.117240
H60   H     H_    0.408910 0.847828 0.235121 0.111524
H61   H     H_    0.395366 0.907419 0.446892 0.136900
H62   H     H_    0.356812 0.789487 0.558573 0.124325
C119  C     C_R   0.764681 0.351307 0.447855 0.152900
C120  C     C_R   0.762335 0.246356 0.462456 -0.021829
C121  C     C_R   0.794730 0.173253 0.406176 -0.166125
C122  C     C_R   0.829926 0.203891 0.335386 -0.117218
C123  C     C_R   0.832763 0.307707 0.320611 -0.127584
C124  C     C_R   0.800312 0.381059 0.376286 -0.189119
H63   H     H_    0.736121 0.221615 0.519143 0.151382
H64   H     H_    0.792664 0.092882 0.417830 0.122106
H65   H     H_    0.855063 0.147208 0.292116 0.131611
H66   H     H_    0.860102 0.331378 0.265844 0.138883
H67   H     H_    0.802920 0.461182 0.363626 0.135386
C125  C     C_R   0.240507 0.642630 0.418501 0.160461
C126  C     C_R   0.243191 0.751260 0.421645 -0.039973
C127  C     C_R   0.212127 0.796654 0.346857 -0.158686
C128  C     C_R   0.178148 0.734369 0.268078 -0.108722
C129  C     C_R   0.175045 0.626586 0.264234 -0.125179
C130  C     C_R   0.206001 0.580849 0.338933 -0.189927
H68   H     H_    0.268003 0.801442 0.484573 0.141399
H69   H     H_    0.214187 0.880327 0.350576 0.134699
H70   H     H_    0.154105 0.769673 0.210280 0.132556
H71   H     H_    0.148697 0.578361 0.203157 0.132589
H72   H     H_    0.203316 0.497021 0.334135 0.118472
O15   O     O_3   0.977573 0.264419 0.643985 -0.690663
H73   H     H_    0.953418 0.204761 0.627702 0.330561
O16   O     O_3   0.028079 0.802344 0.605513 -0.691319
H74   H     H_    0.050723 0.852788 0.579649 0.327596
O17   O     O_3   0.041404 0.313974 0.818495 -0.691316
H75   H     H_    0.011920 0.345548 0.856580 0.326380
O18   O     O_3   0.976751 0.833032 0.787848 -0.694166
H76   H     H_    0.008660 0.818391 0.826277 0.326852

loop_
_geom_bond_atom_site_label_1
_geom_bond_atom_site_label_2
_ccdc_geom_bond_type
C105  H51   S    
C38   C40   A    
C104  C105  A    
C95   C96   A    
C16   C25   A    
C45   N1    A    
C1    O3    A    
C102  C103  A    
C14   C18   A    
C35   C36   A    
Cu1   O8    S    
C59   C60   A    
C87   H34   S    
C92   C93   A    
C62   C63   A    
C49   C57   A    
C87   C88   A    
C109  C110  A    
C108  C109  A    
C29   C36   A    
C67   H17   S    
C68   C69   A    
C30   C35   A    
C3    C9    A    
C106  H52   S    
C19   C21   A    
C75   C76   A    
C10   C48   A    
C127  H69   S    
C74   H23   S    
C9    C22   A    
C103  C104  A    
C90   C91   A    
C65   C66   A    
C130  H72   S    
C8    C26   A    
C40   N3    A    
C3    C18   A    
C55   O13   S    
C119  C120  A    
C39   N4    A    
Cu2   N4    S    
C79   H27   S    
C24   O8    A    
C72   C73   A    
C8    C101  S    
C41   N4    A    
C129  H71   S    
C82   H30   S    
C24   O6    A    
O17   H75   S    
C56   C58   A    
C84   C85   A    
C49   C51   A    
C122  H65   S    
C1    C28   S    
C50   C52   A    
C119  C124  A    
C73   H22   S    
C23   O7    A    
Cu1   N3    S    
C46   N2    A    
C92   H38   S    
C11   C53   A    
C80   C81   A    
C117  C118  A    
C63   H14   S    
C85   H32   S    
C26   O18   S    
C59   C64   A    
C21   H7    S    
C122  C123  A    
C38   C89   S    
C45   O9    S    
Cu1   Cu2   S    
C42   C44   A    
C48   N2    A    
C56   O14   S    
C124  H67   S    
Cu1   O4    S    
C74   C75   A    
C12   C52   A    
C64   H15   S    
C99   C100  A    
C29   H1    S    
C103  H49   S    
C53   C55   A    
C27   C34   A    
C101  C106  A    
C31   C77   S    
C54   C56   A    
Cu2   O3    S    
C120  C121  A    
C93   C94   A    
C114  C115  A    
C1    O1    A    
C47   O12   S    
C14   C20   A    
C62   H13   S    
C109  H54   S    
C19   O15   S    
C129  C130  A    
O15   H73   S    
C4    C6    A    
C83   C88   A    
C32   C71   S    
Cu1   O5    S    
C86   H33   S    
C5    C7    A    
C13   C19   A    
C127  C128  A    
C15   C26   A    
C6    C8    A    
C95   C100  A    
C84   H31   S    
C123  C124  A    
C5    C45   A    
Cu2   O2    S    
C100  H47   S    
C20   O16   S    
C93   H39   S    
C50   C58   A    
C128  C129  A    
C111  C112  A    
O18   H76   S    
C2    O4    A    
Cu2   O7    S    
C97   C98   A    
C126  C127  A    
C102  H48   S    
C22   H8    S    
O16   H74   S    
C77   C78   A    
C69   H19   S    
C53   C59   S    
C55   C57   A    
C115  H59   S    
C57   N1    S    
C34   H9    S    
C47   N1    A    
C78   C79   A    
C2    C27   S    
C51   C113  S    
C113  C118  A    
C46   O10   S    
C4    C17   A    
C71   C76   A    
C16   C18   A    
C101  C102  A    
C20   C22   A    
C28   C33   A    
C9    C47   A    
C121  C122  A    
C128  H70   S    
C40   H5    S    
C30   H2    S    
C43   C44   A    
C33   H10   S    
C85   C86   A    
C39   H6    S    
C113  C114  A    
C4    C10   A    
C83   C84   A    
Cu1   O1    S    
C63   C64   A    
C2    O2    A    
C105  C106  A    
C118  H62   S    
C107  C112  A    
C50   C119  S    
C68   H18   S    
C15   C17   A    
C60   H11   S    
Cu2   O6    S    
C42   N3    A    
C6    C46   A    
C73   C74   A    
C27   C32   A    
C97   H44   S    
C89   C94   A    
C48   O11   S    
C28   C31   A    
C96   H43   S    
C41   C43   A    
C114  H58   S    
C91   C92   A    
C3    C5    A    
C10   C21   A    
C61   H12   S    
C126  H68   S    
C116  H60   S    
C7    C95   S    
C107  C108  A    
C104  H50   S    
C12   C24   S    
C86   C87   A    
C7    C25   A    
C66   C67   A    
C13   C17   A    
C120  H63   S    
C98   C99   A    
C37   C44   A    
C98   H45   S    
C94   H40   S    
C61   C62   A    
C52   C107  S    
C38   C43   A    
C37   C39   A    
C65   C70   A    
C111  H56   S    
C115  C116  A    
C30   C32   A    
C58   N2    S    
C80   H28   S    
C96   C97   A    
C76   H25   S    
C123  H66   S    
C42   H3    S    
C49   C125  S    
C11   C23   S    
C67   C68   A    
C33   C35   A    
C88   H35   S    
C25   O17   S    
C81   H29   S    
C66   H16   S    
C121  H64   S    
C34   C36   A    
C110  H55   S    
C77   C82   A    
C69   C70   A    
C91   H37   S    
C90   H36   S    
C11   C51   A    
C108  H53   S    
C99   H46   S    
C75   H24   S    
C117  H61   S    
C37   C83   S    
C78   H26   S    
C60   C61   A    
C29   C31   A    
C116  C117  A    
C125  C130  A    
C13   C16   A    
O14   H42   S    
C89   C90   A    
C14   C15   A    
C54   C65   S    
C70   H20   S    
C41   H4    S    
C23   O5    A    
C79   C80   A    
C71   C72   A    
C72   H21   S    
C112  H57   S    
C12   C54   A    
C110  C111  A    
C125  C126  A    
C81   C82   A    
O13   H41   S    
