data_mof_unit_35337.cif
_audit_creation_date              2012-12-11T15:32:34-0500
_audit_creation_method            fapswitch 2.2
_symmetry_space_group_name_H-M    P1
_symmetry_Int_Tables_number       1
_space_group_crystal_system       triclinic
_cell_length_a                    6.949613
_cell_length_b                    20.429202
_cell_length_c                    24.400308
_cell_angle_alpha                 89.646285
_cell_angle_beta                  90.360844
_cell_angle_gamma                 89.324286
_cell_volume                      3463.85767016

loop_
_atom_site_label
_atom_site_type_symbol
_atom_type_description
_atom_site_fract_x
_atom_site_fract_y
_atom_site_fract_z
_atom_type_partial_charge
O1    O     O_R   0.507320 0.423560 0.460500 -0.535974
O2    O     O_R   0.170760 0.556250 0.437010 -0.544231
O3    O     O_R   0.004030 0.576440 0.539500 -0.543233
C1    C     C_R   0.338843 0.576281 0.420973 0.698380
O4    O     O_R   0.177370 0.422820 0.454110 -0.523566
O5    O     O_R   0.010680 0.442050 0.556720 -0.512208
C2    C     C_R   0.346627 0.398539 0.443839 0.807318
O6    O     O_R   0.500680 0.557950 0.443280 -0.542434
O7    O     O_3   0.340380 0.506470 0.533650 -0.360888
V1    V     V_3+5 0.064130 0.498800 0.493760 1.523663
O8    O     O_R   0.681160 0.443750 0.562990 -0.525704
C3    C     C_R   0.850899 0.423583 0.578789 0.759664
O9    O     O_R   0.674560 0.577180 0.545890 -0.541466
C4    C     C_R   0.842374 0.601168 0.556552 0.675671
V2    V     V_3+5 0.564560 0.501200 0.506240 1.515721
O10   O     O_3   0.838180 0.493530 0.466350 -0.376892
C5    C     C_R   0.977497 0.838139 0.911025 -0.066087
C6    C     C_R   0.845876 0.662343 0.588287 -0.039262
C7    C     C_R   0.048055 0.722375 0.904659 -0.118942
C8    C     C_R   0.037336 0.779371 0.935437 -0.130932
C9    C     C_R   0.928887 0.839665 0.854984 -0.199592
C10   C     C_R   0.942027 0.782213 0.822122 0.119374
C11   C     C_R   0.002572 0.723316 0.848518 0.107396
C12   C     C_R   0.900209 0.781085 0.764232 -0.013748
C13   C     C_R   0.920069 0.721326 0.734169 0.050642
C14   C     C_R   0.980282 0.664427 0.763033 -0.135953
C15   C     C_R   0.019932 0.665594 0.818804 -0.158540
C16   C     C_R   0.839760 0.837846 0.735644 -0.245088
C17   C     C_R   0.798846 0.837820 0.679579 0.442203
C18   C     C_R   0.817164 0.779180 0.649468 -0.008154
C19   C     C_R   0.878543 0.720251 0.676379 0.035653
C20   C     C_R   0.773261 0.777950 0.592867 -0.053896
C21   C     C_R   0.785751 0.720339 0.563072 -0.193450
C22   C     C_R   0.893311 0.662186 0.644273 -0.164537
H1    H     H_    0.066188 0.620552 0.838907 0.157955
H2    H     H_    0.936186 0.615559 0.661424 0.102439
H3    H     H_    0.094984 0.677410 0.924717 0.156249
H4    H     H_    0.077192 0.777753 0.978437 0.145900
H5    H     H_    0.886624 0.886707 0.838495 0.108579
H6    H     H_    0.999175 0.617562 0.743844 0.144397
H7    H     H_    0.822088 0.883712 0.756288 0.179394
H8    H     H_    0.725939 0.821136 0.570700 0.196084
C23   C     C_3   0.809758 0.300267 0.765051 0.501287
C24   C     C_3   0.000976 0.277836 0.791927 -0.171299
H9    H     H_    0.072869 0.301833 0.827110 0.177324
H10   H     H_    0.232930 0.284208 0.720891 0.199208
C25   C     C_1   0.960534 0.121445 0.875055 -0.168501
C26   C     C_1   0.863660 0.377693 0.624261 -0.064111
C27   C     C_3   0.735735 0.229449 0.764755 -0.200890
C28   C     C_3   0.928642 0.206770 0.790615 0.058909
C29   C     C_3   0.823344 0.220218 0.706821 -0.149769
C30   C     C_3   0.895451 0.291324 0.707911 0.012247
C31   C     C_3   0.016129 0.196738 0.733326 -0.091403
C32   C     C_3   0.087872 0.268435 0.733928 -0.161630
C33   C     C_1   0.947072 0.159705 0.836872 0.025620
C34   C     C_1   0.877173 0.338827 0.661972 0.122023
H11   H     H_    0.102178 0.153470 0.720371 0.167046
H12   H     H_    0.750566 0.196633 0.671591 0.186322
C35   C     C_3   0.519604 0.721737 0.211075 0.451608
C36   C     C_3   0.324978 0.694956 0.230706 -0.156021
H13   H     H_    0.253978 0.650361 0.215014 0.169776
H14   H     H_    0.097495 0.779935 0.211035 0.180002
C37   C     C_1   0.349062 0.621562 0.374796 -0.173693
C38   C     C_1   0.475479 0.877650 0.124676 -0.152132
C39   C     C_3   0.586074 0.732221 0.270763 -0.231622
C40   C     C_3   0.389754 0.706681 0.290404 0.094927
C41   C     C_3   0.500531 0.802831 0.268188 -0.187379
C42   C     C_3   0.436022 0.791441 0.208403 0.059911
C43   C     C_3   0.304352 0.776690 0.288537 -0.129027
C44   C     C_3   0.240197 0.765698 0.228251 -0.181133
C45   C     C_1   0.364975 0.659746 0.336606 -0.010543
C46   C     C_1   0.460036 0.838920 0.162500 0.049638
H15   H     H_    0.214354 0.799377 0.320866 0.128566
H16   H     H_    0.572572 0.847344 0.283625 0.135831
C47   C     C_R   0.469019 0.162292 0.088510 -0.046520
C48   C     C_R   0.355427 0.336886 0.412525 -0.193118
C49   C     C_R   0.493840 0.279950 0.091205 -0.039627
C50   C     C_R   0.497202 0.221766 0.061933 -0.182833
C51   C     C_R   0.438910 0.161224 0.145325 -0.173334
C52   C     C_R   0.437028 0.219979 0.176781 0.036844
C53   C     C_R   0.463836 0.280463 0.148449 -0.020979
C54   C     C_R   0.410381 0.220395 0.235180 0.059591
C55   C     C_R   0.411192 0.281000 0.264514 -0.000521
C56   C     C_R   0.435722 0.339340 0.234460 -0.250845
C57   C     C_R   0.460794 0.340002 0.177762 0.422672
C58   C     C_R   0.383095 0.162036 0.265345 -0.158493
C59   C     C_R   0.357249 0.162587 0.321650 -0.162489
C60   C     C_R   0.357879 0.221029 0.350755 0.063583
C61   C     C_R   0.385726 0.281330 0.323111 0.133381
C62   C     C_R   0.329341 0.219022 0.407608 -0.207618
C63   C     C_R   0.327160 0.276207 0.438714 0.386197
C64   C     C_R   0.385492 0.339164 0.355530 -0.269428
H17   H     H_    0.406126 0.387071 0.338061 0.125105
H18   H     H_    0.336152 0.116358 0.342726 0.132088
H19   H     H_    0.516685 0.324302 0.068033 0.208461
H20   H     H_    0.522027 0.223196 0.018137 0.127801
H21   H     H_    0.419652 0.113596 0.163411 0.085906
H22   H     H_    0.435218 0.386022 0.254334 0.186027
H23   H     H_    0.380159 0.114436 0.246816 0.115950
H24   H     H_    0.306731 0.172361 0.427783 0.178273
O11   O     O_R   0.323550 0.942140 0.056770 -0.536597
O12   O     O_R   0.647080 0.077200 0.045890 -0.539299
O13   O     O_R   0.813610 0.057920 0.943260 -0.534882
C65   C     C_R   0.477780 0.101209 0.056601 0.688885
O14   O     O_R   0.653470 0.943760 0.063000 -0.533752
O15   O     O_R   0.820050 0.923540 0.960490 -0.532614
C66   C     C_R   0.485445 0.923538 0.078904 0.721440
O16   O     O_R   0.317110 0.076520 0.039540 -0.536773
O17   O     O_3   0.483830 0.993580 0.966380 -0.365438
V3    V     V_3+5 0.760140 0.001190 0.006240 1.461944
O18   O     O_R   0.149510 0.922740 0.954070 -0.537224
C67   C     C_R   0.981647 0.898718 0.943516 0.709380
O19   O     O_R   0.143120 0.056170 0.936970 -0.536909
C68   C     C_R   0.973355 0.076203 0.921038 0.725550
V4    V     V_3+5 0.259690 0.998700 0.993700 1.461251
O20   O     O_3   0.986130 0.006420 0.033620 -0.370054
S1    S     S_3+6 0.670908 0.369146 0.786541 0.004827
O21   O     O_2   0.794600 0.428981 0.786140 -0.316879
O22   O     O_2   0.503438 0.379163 0.748022 -0.342792
O23   O     O_3   0.589884 0.355357 0.850289 -0.497648
H25   H     H_    0.507069 0.393770 0.858619 0.381972
H26   H     H_    0.590268 0.213945 0.777735 0.153014
S2    S     S_3+6 0.663944 0.684346 0.159633 0.044347
O24   O     O_2   0.540265 0.669567 0.110638 -0.270415
O25   O     O_2   0.821305 0.729928 0.142754 -0.342382
O26   O     O_3   0.761272 0.614259 0.184103 -0.456082
H27   H     H_    0.849220 0.627890 0.213919 0.327800
H28   H     H_    0.729168 0.718129 0.287881 0.125170
S3    S     S_3+6 0.486650 0.417502 0.145134 0.062211
O27   O     O_2   0.680772 0.420463 0.118463 -0.286051
O28   O     O_2   0.332401 0.425859 0.102090 -0.295702
O29   O     O_3   0.467269 0.478899 0.190523 -0.490040
H29   H     H_    0.464171 0.519431 0.168023 0.415001
S4    S     S_3+6 0.284307 0.270466 0.510120 0.019813
O30   O     O_2   0.084171 0.295258 0.521355 -0.330693
O31   O     O_2   0.301503 0.200702 0.529673 -0.309159
O32   O     O_3   0.441810 0.316450 0.544986 -0.491903
H30   H     H_    0.570144 0.298577 0.535233 0.333588
H31   H     H_    0.746725 0.720938 0.519993 0.112396
S5    S     S_3+6 0.722424 0.912978 0.648707 0.015053
O33   O     O_2   0.713725 0.967177 0.690071 -0.317535
O34   O     O_2   0.861403 0.931225 0.604341 -0.318455
O35   O     O_3   0.502254 0.903368 0.621081 -0.500291
H32   H     H_    0.475193 0.944712 0.600908 0.386854

loop_
_geom_bond_atom_site_label_1
_geom_bond_atom_site_label_2
_ccdc_geom_bond_type
O11   C66   A    
C25   C68   S    
C59   C60   A    
C13   C19   A    
O26   H27   S    
C4    C6    S    
O2    C1    A    
C7    C8    A    
S5    O35   S    
C1    O6    A    
S4    O32   S    
S2    O24   D    
C49   C53   A    
O15   C67   A    
C49   C50   A    
C24   H9    S    
S3    O28   D    
O14   C66   A    
C1    C37   S    
C14   C15   A    
O13   V3    S    
O16   V4    S    
C16   C17   A    
O14   V3    S    
S5    O34   D    
O19   C68   A    
S1    O22   D    
O5    C3    A    
C18   C19   A    
C23   C30   S    
S2    O25   D    
C40   C43   S    
V2    O10   S    
C59   H18   S    
C16   H7    S    
C5    C8    A    
H14   C44   S    
C27   C29   S    
C29   H12   S    
C7    H3    S    
C57   S3    S    
O8    V2    S    
C40   C45   S    
C50   H20   S    
O29   H29   S    
C39   C41   S    
C43   H15   S    
O1    V2    S    
C11   C15   A    
V4    O20   S    
O7    V1    S    
C3    C26   S    
S3    O29   S    
C36   C40   S    
C35   C36   S    
C9    C10   A    
C62   H24   S    
C47   C50   A    
C30   C32   S    
C35   S2    S    
C55   C61   A    
C28   C31   S    
C41   C42   S    
C39   H28   S    
O13   C68   A    
C12   C13   A    
C52   C54   A    
S1    O23   S    
O4    C2    A    
C31   H11   S    
C58   C59   A    
C23   C27   S    
S2    O26   S    
S4    O31   D    
C15   H1    S    
C13   C14   A    
C54   C58   A    
C49   H19   S    
C5    C9    A    
C29   C30   S    
C36   H13   S    
C29   C31   S    
C7    C11   A    
C23   C24   S    
C17   C18   A    
C35   C42   S    
C8    H4    S    
C55   C56   A    
C9    H5    S    
C36   C44   S    
C42   C46   S    
H10   C32   S    
C19   C22   A    
C41   H16   S    
C56   C57   A    
C61   C64   A    
O12   C65   A    
C58   H23   S    
C6    C22   A    
S4    O30   D    
O3    C4    A    
C48   C64   A    
C60   C62   A    
C39   C40   S    
O6    V2    S    
C54   C55   A    
O9    V2    S    
C47   C65   S    
O11   V4    S    
C10   C12   A    
O12   V3    S    
O2    V1    S    
C5    C67   S    
V3    O20   S    
C65   O16   A    
O23   H25   S    
C38   C66   S    
C25   C33   T    
S3    O27   D    
O15   V3    S    
C24   C28   S    
C26   C34   T    
C17   S5    S    
O18   C67   A    
O1    C2    A    
C51   H21   S    
C12   C16   A    
C37   C45   T    
C52   C53   A    
O5    V1    S    
O8    C3    A    
C31   C32   S    
C2    C48   S    
O32   H30   S    
C28   C33   S    
C56   H22   S    
C20   C21   A    
O35   H32   S    
O7    V2    S    
O4    V1    S    
O3    V1    S    
V1    O10   S    
S1    O21   D    
C35   C39   S    
C18   C20   A    
C14   H6    S    
C62   C63   A    
C63   S4    S    
C21   H31   S    
S5    O33   D    
C27   H26   S    
C64   H17   S    
C22   H2    S    
C38   C46   T    
C43   C44   S    
C6    C21   A    
O17   V4    S    
C48   C63   A    
C51   C52   A    
C24   C32   S    
C60   C61   A    
C42   C44   S    
C27   C28   S    
O17   V3    S    
C23   S1    S    
C20   H8    S    
C10   C11   A    
O18   V4    S    
C41   C43   S    
O9    C4    A    
C47   C51   A    
C53   C57   A    
C30   C34   S    
O19   V4    S    
