data_mof_unit_58595.cif
_audit_creation_date              2012-12-10T17:36:21-0500
_audit_creation_method            fapswitch 2.2
_symmetry_space_group_name_H-M    P1
_symmetry_Int_Tables_number       1
_space_group_crystal_system       triclinic
_cell_length_a                    12.400297
_cell_length_b                    13.169596
_cell_length_c                    15.8358
_cell_angle_alpha                 77.851456
_cell_angle_beta                  100.228624
_cell_angle_gamma                 116.666787
_cell_volume                      2249.01121794

loop_
_atom_site_label
_atom_site_type_symbol
_atom_type_description
_atom_site_fract_x
_atom_site_fract_y
_atom_site_fract_z
_atom_type_partial_charge
C1    C     C_R   0.855016 0.286609 0.507810 0.758675
C2    C     C_3   0.077104 0.435989 0.071205 -0.511192
C3    C     C_3   0.994295 0.491458 0.083944 0.245049
C4    C     C_3   0.055373 0.617154 0.035911 -0.400814
C5    C     C_3   0.045305 0.618073 0.937500 -0.385905
C6    C     C_1   0.998449 0.494222 0.176290 -0.079861
C7    C     C_1   0.994431 0.495592 0.824555 -0.054881
C8    C     C_1   0.995703 0.497522 0.748803 -0.189870
C9    C     C_R   0.279725 0.024000 0.387836 -0.199128
C10   C     C_R   0.228585 0.835234 0.471380 -0.047200
C11   C     C_R   0.812205 0.084480 0.566427 -0.198780
C12   C     C_R   0.998692 0.499340 0.659279 0.817970
C13   C     C_R   0.732059 0.970006 0.585585 -0.144236
C14   C     C_R   0.609898 0.933016 0.556015 -0.184827
C15   C     C_R   0.565482 0.009834 0.502972 0.074551
C16   C     C_R   0.650231 0.123889 0.475835 0.077742
C17   C     C_R   0.440092 0.976945 0.475014 0.073592
C18   C     C_R   0.402913 0.055036 0.415735 0.169416
C19   C     C_R   0.489207 0.161890 0.382719 -0.247549
C20   C     C_R   0.611021 0.194836 0.410745 -0.196184
C21   C     C_R   0.350103 0.868611 0.503997 -0.250263
C22   C     C_R   0.192938 0.914230 0.415054 -0.198573
C23   C     C_R   0.144957 0.713390 0.487784 0.788305
C24   C     C_R   0.772321 0.163217 0.513752 -0.100772
C25   C     C_R   0.360713 0.351472 0.652399 -0.291360
C26   C     C_R   0.763527 0.650322 0.386738 0.091400
C27   C     C_R   0.674978 0.691514 0.369548 -0.259972
C28   C     C_R   0.573853 0.638155 0.416571 -0.201268
C29   C     C_R   0.558266 0.540308 0.479050 -0.006911
C30   C     C_R   0.655690 0.507831 0.499336 0.237937
C31   C     C_R   0.452266 0.478082 0.525276 -0.092441
C32   C     C_R   0.458682 0.404316 0.602710 0.031186
C33   C     C_R   0.558508 0.376805 0.626129 0.211894
C34   C     C_R   0.000606 0.499615 0.340811 0.820347
C35   C     C_R   0.651304 0.423959 0.571300 -0.213280
C36   C     C_R   0.336316 0.476896 0.493366 0.269092
C37   C     C_R   0.256909 0.370542 0.627428 0.328734
C38   C     C_3   0.065780 0.425665 0.973560 0.154408
C39   C     C_3   0.861737 0.431758 0.942400 -0.516662
C40   C     C_3   0.858414 0.419927 0.043120 0.451120
C41   C     C_1   0.000495 0.496803 0.251691 -0.190299
C42   C     C_3   0.994448 0.493706 0.917129 0.255146
Cu1   Cu    Cu3+1 0.098280 0.475420 0.519630 0.915084
Cu2   Cu    Cu3+1 0.901720 0.524580 0.480370 0.920170
H1    H     H_    0.053955 0.350467 0.111777 0.135562
H2    H     H_    0.172820 0.488267 0.094528 0.193799
H3    H     H_    0.021838 0.676195 0.049452 0.167832
H4    H     H_    0.099195 0.889637 0.389129 0.145399
H5    H     H_    0.462536 0.220177 0.334362 0.143932
H6    H     H_    0.251036 0.083460 0.342687 0.127390
H7    H     H_    0.371980 0.807011 0.551030 0.147536
H8    H     H_    0.905128 0.111922 0.595003 0.143051
H9    H     H_    0.553504 0.843173 0.574539 0.128509
H10   H     H_    0.764150 0.909968 0.626033 0.139712
H11   H     H_    0.008046 0.333582 0.967318 0.090113
H12   H     H_    0.673883 0.275617 0.378678 0.180400
H13   H     H_    0.362721 0.292207 0.710915 0.167335
H14   H     H_    0.842740 0.692828 0.350956 0.117697
H15   H     H_    0.508148 0.673898 0.404028 0.142174
H16   H     H_    0.685325 0.765383 0.320492 0.140328
H17   H     H_    0.721553 0.396814 0.588728 0.221387
H18   H     H_    0.809533 0.480112 0.906014 0.176652
H19   H     H_    0.816495 0.346390 0.919848 0.161787
H20   H     H_    0.134125 0.674883 0.912241 0.171260
H21   H     H_    0.983892 0.658182 0.904175 0.160395
H22   H     H_    0.153196 0.657179 0.059888 0.162690
N1    N     N_R   0.246300 0.438200 0.549400 -0.199538
N2    N     N_R   0.754300 0.561180 0.451130 -0.199313
O1    O     O_R   0.972520 0.318130 0.524690 -0.606089
O2    O     O_R   0.806530 0.359650 0.491530 -0.601561
O3    O     O_R   0.083030 0.479240 0.637150 -0.573630
O4    O     O_R   0.917040 0.520750 0.603990 -0.591811
O5    O     O_R   0.193470 0.640350 0.508470 -0.581045
O6    O     O_R   0.027480 0.681870 0.475310 -0.585269
O7    O     O_R   0.082960 0.479250 0.396010 -0.575280
O8    O     O_R   0.916970 0.520760 0.362850 -0.580924
N3    N     N_2   0.181730 0.450315 0.944458 -0.424408
H23   H     H_    0.216104 0.392385 0.975522 0.246030
C43   C     C_3   0.274360 0.567010 0.929785 -0.683285
H24   H     H_    0.361705 0.565739 0.923977 0.210676
H25   H     H_    0.288079 0.613640 0.984324 0.219736
H26   H     H_    0.250734 0.612558 0.867361 0.233223
C44   C     C_3   0.156035 0.300675 0.686419 -0.376867
C45   C     C_3   0.187636 0.342497 0.774646 -0.817402
H27   H     H_    0.217881 0.436796 0.766667 0.286292
H28   H     H_    0.106635 0.299119 0.811735 0.240830
H29   H     H_    0.261153 0.321738 0.813037 0.227969
H30   H     H_    0.067440 0.296571 0.658715 0.246920
H31   H     H_    0.141586 0.209371 0.697513 0.158923
N4    N     N_2   0.563153 0.300494 0.704541 -0.432346
H32   H     H_    0.565801 0.330177 0.760526 0.242450
C46   C     C_3   0.633254 0.235127 0.712641 -0.703327
H33   H     H_    0.607033 0.165843 0.769138 0.226099
H34   H     H_    0.731548 0.291408 0.723846 0.212424
H35   H     H_    0.614650 0.194511 0.653625 0.247064
C47   C     C_3   0.301950 0.476756 0.396180 -0.353455
C48   C     C_3   0.210132 0.356774 0.376470 -0.775643
H36   H     H_    0.255833 0.298555 0.388296 0.220581
H37   H     H_    0.133974 0.317362 0.417965 0.278932
H38   H     H_    0.173179 0.362275 0.307283 0.224933
H39   H     H_    0.275635 0.547152 0.366638 0.206892
H40   H     H_    0.378590 0.494553 0.360128 0.180730
C49   C     C_3   0.813922 0.289136 0.084140 -0.400605
C50   C     C_3   0.678594 0.212135 0.064856 -0.884991
H41   H     H_    0.622828 0.229841 0.102317 0.258324
H42   H     H_    0.648959 0.224113 0.994597 0.244344
H43   H     H_    0.661658 0.120641 0.085327 0.244198
H44   H     H_    0.863227 0.249359 0.061217 0.178897
H45   H     H_    0.833169 0.281619 0.155867 0.207805
N5    N     N_2   0.768505 0.456302 0.059904 -0.398578
H46   H     H_    0.683602 0.413771 0.029069 0.261468
C51   C     C_3   0.793414 0.575199 0.057077 -0.735229
H47   H     H_    0.708351 0.580642 0.063278 0.217445
H48   H     H_    0.826014 0.626323 0.994029 0.220153
H49   H     H_    0.856708 0.610471 0.113442 0.242730

loop_
_geom_bond_atom_site_label_1
_geom_bond_atom_site_label_2
_ccdc_geom_bond_type
Cu1   O5    S    
C22   H4    S    
C5    C42   S    
C47   H40   S    
C16   C24   A    
C19   C20   A    
C45   H29   S    
C20   H12   S    
C3    C6    S    
C50   H42   S    
C48   H36   S    
C36   N1    A    
C7    C8    T    
N3    H23   S    
C10   C22   A    
C26   C27   A    
C30   C35   A    
C28   C29   A    
C45   H28   S    
C38   C42   S    
C27   H16   S    
C9    C22   A    
C15   C16   A    
C11   C24   A    
C18   C19   A    
C7    C42   S    
Cu2   O8    S    
C2    C38   S    
N5    H46   S    
C50   H41   S    
C11   H8    S    
C49   C50   S    
C25   C37   A    
C38   H11   S    
C44   C45   S    
C6    C41   T    
Cu2   O2    S    
C49   H44   S    
C16   C20   A    
C34   O7    A    
C25   C32   A    
C1    O1    A    
C44   H30   S    
C12   O4    A    
Cu1   O1    S    
C47   H39   S    
C34   C41   S    
C25   H13   S    
C23   O5    A    
C51   H48   S    
C51   H47   S    
C48   H37   S    
C39   C42   S    
N3    C43   S    
C10   C21   A    
Cu1   O7    S    
C44   H31   S    
C45   H27   S    
C5    H21   S    
C39   C40   S    
C43   H25   S    
C40   N5    S    
C46   H35   S    
C2    H2    S    
C5    H20   S    
Cu1   Cu2   S    
C29   C30   A    
C19   H5    S    
N4    C46   S    
C31   C32   A    
C8    C12   S    
C47   C48   S    
C46   H34   S    
C17   C18   A    
C35   H17   S    
Cu2   O6    S    
C26   H14   S    
C12   O3    A    
C3    C40   S    
Cu2   N2    S    
C23   O6    A    
C3    C4    S    
C21   H7    S    
C48   H38   S    
C13   H10   S    
C28   H15   S    
C15   C17   A    
C39   H18   S    
Cu1   O3    S    
C14   C15   A    
C9    H6    S    
C4    C5    S    
C43   H26   S    
C38   N3    S    
C10   C23   S    
C39   H19   S    
C1    O2    A    
C49   H45   S    
C26   N2    A    
C32   C33   A    
C2    C3    S    
C29   C31   A    
C33   N4    S    
C40   C49   S    
C4    H22   S    
C11   C13   A    
N4    H32   S    
C37   N1    A    
C46   H33   S    
C33   C35   A    
Cu2   O4    S    
C51   H49   S    
N5    C51   S    
C2    H1    S    
C43   H24   S    
C9    C18   A    
C14   H9    S    
C1    C24   S    
Cu1   N1    S    
C27   C28   A    
C31   C36   A    
C37   C44   S    
C13   C14   A    
C50   H43   S    
C30   N2    A    
C34   O8    A    
C36   C47   S    
C4    H3    S    
C17   C21   A    
