data_mof_unit_67546.cif
_audit_creation_date              2012-12-10T16:47:31-0500
_audit_creation_method            fapswitch 2.2
_symmetry_space_group_name_H-M    P1
_symmetry_Int_Tables_number       1
_space_group_crystal_system       triclinic
_cell_length_a                    10.671713
_cell_length_b                    8.880824
_cell_length_c                    7.505411
_cell_angle_alpha                 103.171805
_cell_angle_beta                  95.754332
_cell_angle_gamma                 93.197397
_cell_volume                      686.837797615

loop_
_atom_site_label
_atom_site_type_symbol
_atom_type_description
_atom_site_fract_x
_atom_site_fract_y
_atom_site_fract_z
_atom_type_partial_charge
C1    C     C_R   0.494126 0.200433 0.453655 0.840744
C2    C     C_R   0.505874 0.799567 0.546349 0.840863
C3    C     C_R   0.259474 0.499675 0.500069 0.879397
C4    C     C_R   0.740525 0.500323 0.499930 0.879393
C5    C     C_3   0.053078 0.497695 0.669386 0.140342
C6    C     C_3   0.946921 0.502300 0.330612 0.140321
C7    C     C_3   0.955957 0.371303 0.546590 0.096198
C8    C     C_3   0.044042 0.628692 0.453409 0.096215
C9    C     C_3   0.877473 0.499694 0.499596 -0.255614
C10   C     C_3   0.122526 0.500301 0.500403 -0.255628
C11   C     C_3   0.973178 0.625921 0.622142 0.111619
C12   C     C_3   0.026821 0.374074 0.377856 0.111624
C13   C     C_2   0.495148 0.033995 0.427066 -0.262379
C14   C     C_2   0.504841 0.966007 0.572956 -0.262300
Cu1   Cu    Cu3+1 0.514140 0.517380 0.684380 1.047983
Cu2   Cu    Cu3+1 0.485860 0.482620 0.315620 1.047970
H1    H     H_    0.404993 0.372789 0.946977 0.230328
H2    H     H_    0.594992 0.627229 0.053025 0.230362
N1    N     N_2   0.464560 0.456420 0.038510 -0.188995
N2    N     N_2   0.535440 0.543580 0.961490 -0.188965
O1    O     O_R   0.509190 0.286130 0.619780 -0.611689
O2    O     O_R   0.490810 0.713870 0.380220 -0.611626
O3    O     O_R   0.485310 0.256770 0.308360 -0.546757
O4    O     O_R   0.514690 0.743230 0.691640 -0.546660
O5    O     O_R   0.328790 0.514640 0.655680 -0.577700
O6    O     O_R   0.671210 0.485360 0.344320 -0.577715
O7    O     O_R   0.304910 0.485280 0.344260 -0.547473
O8    O     O_R   0.695090 0.514720 0.655740 -0.547483
I1    I     I_    0.873376 0.167031 0.606192 -0.184635
I2    I     I_    0.126621 0.832965 0.393811 -0.184479
I3    I     I_    0.152337 0.505390 0.934228 -0.173877
I4    I     I_    0.847659 0.494611 0.065774 -0.173967
I5    I     I_    0.921767 0.821049 0.816677 -0.124629
I6    I     I_    0.078232 0.178946 0.183322 -0.124635
C15   C     C_2   0.495472 0.947622 0.232574 0.547630
H3    H     H_    0.576907 0.886688 0.191121 0.075012
O9    O     O_2   0.404855 0.945715 0.118757 -0.495580
C16   C     C_2   0.504534 0.052377 0.767464 0.547636
H4    H     H_    0.423213 0.113526 0.808883 0.074960
O10   O     O_2   0.595018 0.054003 0.881354 -0.495810

loop_
_geom_bond_atom_site_label_1
_geom_bond_atom_site_label_2
_ccdc_geom_bond_type
C2    O2    A    
C6    I4    S    
C1    O1    A    
C7    I1    S    
C11   I5    S    
C14   C16   S    
C4    O6    A    
N1    N2    D    
C3    O5    A    
C8    I2    S    
Cu2   O7    S    
C3    O7    A    
C5    C10   S    
C3    C10   S    
C13   C14   D    
Cu2   O6    S    
C9    C11   S    
Cu1   O8    S    
C16   H4    S    
C10   C12   S    
C6    C9    S    
Cu2   N1    S    
C6    C12   S    
Cu1   O4    S    
H1    N1    S    
C5    C11   S    
Cu2   O3    S    
H2    N2    S    
C8    C11   S    
C2    O4    A    
C7    C12   S    
C2    C14   S    
Cu1   O5    S    
C1    C13   S    
C12   I6    S    
Cu1   Cu2   S    
C7    C9    S    
Cu1   O1    S    
C8    C10   S    
C4    O8    A    
C5    C7    S    
C6    C8    S    
C1    O3    A    
C15   O9    D    
C4    C9    S    
C16   O10   D    
C13   C15   S    
C15   H3    S    
Cu2   O2    S    
Cu1   N2    S    
C5    I3    S    
