data_mof_unit_31043.cif
_audit_creation_date              2013-03-05T16:14:27-0500
_audit_creation_method            fapswitch 2.2
_symmetry_space_group_name_H-M    P1
_symmetry_Int_Tables_number       1
_space_group_crystal_system       triclinic
_cell_length_a                    8.217806
_cell_length_b                    17.503402
_cell_length_c                    26.865771
_cell_angle_alpha                 99.736802
_cell_angle_beta                  92.462206
_cell_angle_gamma                 80.933062
_cell_volume                      3760.57672851

loop_
_atom_site_label
_atom_site_type_symbol
_atom_site_description
_atom_site_fract_x
_atom_site_fract_y
_atom_site_fract_z
_atom_type_partial_charge
P1    P     P_3+3 0.071770 0.565500 0.613330 0.497063
O1    O     O_2   0.906370 0.542040 0.619810 -0.366961
O2    O     O_3   0.138370 0.541980 0.559630 -0.410754
O3    O     O_3   0.686580 0.398330 0.583860 -0.383891
O4    O     O_2   0.849607 0.442413 0.668338 -0.389644
O5    O     O_3   0.036015 0.667800 0.629556 -0.523710
O6    O     O_3   0.687750 0.332686 0.675181 -0.506897
H1    H     H_    0.677923 0.262310 0.605534 0.121534
C1    C     C_3   0.607637 0.206312 0.664646 -1.004091
H2    H     H_    0.734789 0.180298 0.673752 0.269185
H3    H     H_    0.534520 0.220920 0.699736 0.270666
P2    P     P_3+3 0.664870 0.318630 0.453960 0.522203
P3    P     P_3+3 0.154841 0.256412 0.551520 0.472984
O7    O     O_2   0.844570 0.306830 0.467970 -0.323488
O8    O     O_3   0.101900 0.357890 0.557750 -0.380671
O9    O     O_2   0.072728 0.218920 0.502583 -0.339300
O10   O     O_3   0.664103 0.299631 0.387761 -0.521743
O11   O     O_3   0.062264 0.226032 0.600805 -0.490538
C2    C     C_3   0.145387 0.252017 0.645878 0.389174
H4    H     H_    0.125196 0.317261 0.654459 0.072877
H5    H     H_    0.278965 0.230884 0.642915 0.015417
C3    C     C_3   0.083896 0.220545 0.690220 -0.410097
H6    H     H_    0.957508 0.251262 0.699204 0.210105
C4    C     C_3   0.222092 0.299321 0.412172 0.389063
H7    H     H_    0.338590 0.321361 0.423879 0.080190
H8    H     H_    0.136066 0.313882 0.444183 0.155475
C5    C     C_3   0.256059 0.210687 0.396671 -0.809571
H9    H     H_    0.351703 0.194712 0.367177 0.263790
H10   H     H_    0.299656 0.182300 0.429650 0.223662
H11   H     H_    0.141497 0.188499 0.381460 0.288555
Ba1   Ba    Ba6+2 0.860160 0.462360 0.521850 1.580189
C6    C     C_3   0.971936 0.701224 0.587796 0.412826
H12   H     H_    0.856745 0.678962 0.574653 0.081996
H13   H     H_    0.060894 0.687537 0.556535 0.132400
C7    C     C_3   0.936507 0.789807 0.603635 -0.863144
H14   H     H_    0.842724 0.805156 0.633703 0.273159
H15   H     H_    0.889598 0.818455 0.571037 0.206185
H16   H     H_    0.051330 0.812437 0.618135 0.286305
C8    C     C_3   0.686001 0.367356 0.369140 0.423686
H17   H     H_    0.808854 0.382612 0.380746 0.067924
H18   H     H_    0.590028 0.417606 0.382865 0.133174
C9    C     C_3   0.672909 0.351519 0.311804 -0.914918
H19   H     H_    0.776588 0.306343 0.296189 0.256780
H20   H     H_    0.676725 0.406209 0.296522 0.224290
H21   H     H_    0.554280 0.330604 0.299788 0.280424
P4    P     P_3+3 0.117940 0.434440 0.386660 0.490341
O12   O     O_2   0.283330 0.457940 0.380160 -0.344778
O13   O     O_3   0.051340 0.457960 0.440360 -0.420070
O14   O     O_3   0.503130 0.601610 0.416130 -0.383665
O15   O     O_3   0.153664 0.332151 0.370722 -0.568112
P5    P     P_3+3 0.051544 0.743345 0.442727 0.455147
O16   O     O_3   0.616890 0.595000 0.528820 -0.393068
O17   O     O_3   0.087820 0.642040 0.442240 -0.371783
O18   O     O_2   0.175254 0.780572 0.480522 -0.390041
O19   O     O_3   0.101830 0.764817 0.384449 -0.546351
Ba2   Ba    Ba6+2 0.329680 0.537570 0.478140 1.592953
P6    P     P_3+3 0.681193 0.419076 0.650157 0.485328
C10   C     C_3   0.609289 0.279771 0.641495 0.479789
H22   H     H_    0.480336 0.306568 0.634608 0.004332
H23   H     H_    0.553068 0.161879 0.637515 0.216533
O20   O     O_3   0.572820 0.404940 0.471170 -0.425006
C11   C     C_3   0.492682 0.667545 0.635642 0.254836
H24   H     H_    0.374940 0.649134 0.619922 0.097656
H25   H     H_    0.591469 0.615850 0.631770 0.065779
C12   C     C_3   0.469699 0.700713 0.691714 -0.105127
H26   H     H_    0.448672 0.653253 0.712177 0.065746
H27   H     H_    0.583203 0.723128 0.707882 0.144139
P7    P     P_3+3 0.531475 0.694209 0.545826 0.459228
O21   O     O_2   0.345130 0.693150 0.532000 -0.357332
O22   O     O_3   0.539688 0.725035 0.611143 -0.545653
H28   H     H_    0.162247 0.234782 0.724306 0.149395
C13   C     C_3   0.988551 0.741421 0.346265 0.912291
H29   H     H_    0.913787 0.699539 0.357008 -0.079889
C14   C     C_3   0.871090 0.813328 0.334535 -1.075271
H30   H     H_    0.941485 0.858894 0.326394 0.301094
H31   H     H_    0.791963 0.796423 0.301248 0.232586
H32   H     H_    0.790630 0.838948 0.366987 0.237692
P8    P     P_3+3 0.523088 0.601439 0.351562 0.501766
C15   C     C_3   0.480191 0.751028 0.376852 0.469061
H33   H     H_    0.617156 0.740546 0.378125 -0.018008
O23   O     O_2   0.421779 0.539721 0.322897 -0.293916
O24   O     O_3   0.415413 0.692678 0.342370 -0.452392
H34   H     H_    0.433555 0.752371 0.415186 0.140423
H35   H     H_    0.470051 0.877238 0.391136 0.219831
C16   C     C_3   0.426906 0.831699 0.361882 -0.860092
H36   H     H_    0.291179 0.845304 0.358332 0.300254
H37   H     H_    0.481241 0.834899 0.325396 0.244432
C17   C     C_R   0.097500 0.465866 0.185670 0.580694
O25   O     O_2   0.209170 0.457161 0.216656 -0.540491
N1    N     N_R   0.935221 0.485437 0.201316 -0.163791
C18   C     C_R   0.811100 0.492936 0.164872 0.523675
C19   C     C_2   0.780442 0.567127 0.273386 0.152103
C20   C     C_3   0.744548 0.587367 0.330261 0.032390
C21   C     C_1   0.973429 0.481829 0.342378 0.303686
C22   C     C_2   0.985136 0.456430 0.292957 -0.214389
C23   C     C_2   0.893546 0.503105 0.255430 0.110510
C24   C     C_R   0.011989 0.479609 0.098857 -0.068840
C25   C     C_R   0.135787 0.457058 0.133852 -0.088298
C26   C     C_R   0.296475 0.428948 0.116648 -0.032891
C27   C     C_R   0.847523 0.502226 0.115073 -0.163084
C28   C     C_2   0.858295 0.538854 0.362506 -0.418118
H38   H     H_    0.058661 0.400165 0.279347 0.168490
H39   H     H_    0.394273 0.411241 0.142574 0.193396
C29   C     C_2   0.359667 0.487734 0.640155 -0.472389
C30   C     C_R   0.251658 0.443672 0.978226 0.027027
C31   C     C_R   0.982924 0.523056 0.966069 0.058877
C32   C     C_R   0.138659 0.485121 0.947108 0.092162
C33   C     C_R   0.398677 0.400707 0.956182 -0.215574
C34   C     C_R   0.434294 0.400309 0.905708 -0.082781
C35   C     C_R   0.328366 0.445359 0.875576 -0.054515
C36   C     C_R   0.182262 0.489306 0.896741 -0.070288
C37   C     C_R   0.080056 0.537823 0.867714 -0.059743
C38   C     C_R   0.129523 0.545075 0.819087 0.534298
N2    N     N_R   0.267667 0.497496 0.796641 -0.164343
C39   C     C_R   0.364372 0.446361 0.824521 0.512943
C40   C     C_2   0.467028 0.494582 0.729269 -0.161000
C41   C     C_3   0.507590 0.496367 0.674688 0.123292
C42   C     C_1   0.211824 0.516460 0.657483 0.301216
C43   C     C_2   0.174523 0.511480 0.704340 -0.194065
C44   C     C_2   0.308154 0.500515 0.744065 0.112355
O26   O     O_2   0.480573 0.400585 0.804852 -0.587103
C45   C     C_R   0.214493 0.447383 0.030210 0.032381
C46   C     C_R   0.053653 0.479914 0.047815 0.093909
C47   C     C_R   0.934891 0.513373 0.014873 0.000030
C48   C     C_R   0.334021 0.421996 0.065738 -0.181309
H40   H     H_    0.567908 0.492753 0.756640 0.172886
H41   H     H_    0.547565 0.365434 0.890579 0.167985
H42   H     H_    0.486247 0.364572 0.976739 0.134713
H43   H     H_    0.460713 0.400617 0.055725 0.137648
O27   O     O_2   0.669394 0.490781 0.175854 -0.585335
C49   C     C_R   0.725772 0.533209 0.081327 0.239453
C50   C     C_R   0.882442 0.571221 0.935907 -0.209127
C51   C     C_R   0.931427 0.579378 0.888255 -0.072610
O28   O     O_2   0.050324 0.594932 0.797215 -0.576771
C52   C     C_R   0.771853 0.536945 0.031848 -0.241816
H44   H     H_    0.767858 0.606374 0.949085 0.131786
H45   H     H_    0.850521 0.617918 0.867154 0.167762
H46   H     H_    0.047083 0.515597 0.714101 0.199549
H47   H     H_    0.678173 0.557412 0.006101 0.149037
H48   H     H_    0.846055 0.554304 0.403152 0.167396
H49   H     H_    0.375584 0.460230 0.600933 0.170088
C53   C     C_2   0.456835 0.279583 0.516702 -0.459829
C54   C     C_3   0.383479 0.230527 0.548379 0.092525
C55   C     C_2   0.439968 0.144132 0.534499 -0.235881
C56   C     C_2   0.556363 0.115965 0.499369 -0.006558
C57   C     C_2   0.622846 0.171163 0.471315 0.215734
C58   C     C_1   0.574448 0.248256 0.483777 0.156220
C59   C     C_R   0.779630 0.861105 0.469503 -0.280105
C60   C     C_R   0.843265 0.781543 0.464957 0.217860
C61   C     C_R   0.612369 0.759066 0.509837 0.291070
C62   C     C_R   0.545797 0.838426 0.514238 -0.250814
C63   C     C_R   0.627320 0.890177 0.493331 0.108539
C64   C     C_2   0.631451 0.032026 0.491069 -0.053526
C65   C     C_2   0.551106 0.973768 0.498725 -0.179409
C66   C     C_R   0.755988 0.730377 0.483131 -0.508932
H50   H     H_    0.423333 0.987665 0.510177 0.147057
H51   H     H_    0.850485 0.898652 0.454498 0.157162
H52   H     H_    0.757814 0.019542 0.478724 0.152297
H53   H     H_    0.395783 0.106206 0.557134 0.135465
H54   H     H_    0.433675 0.860138 0.535257 0.165774
H55   H     H_    0.418766 0.342546 0.525002 0.177486
H56   H     H_    0.807295 0.669047 0.480577 0.161571
N3    N     N_R   0.329573 0.763853 0.699025 0.282024
O29   O     O_R   0.335952 0.830181 0.684007 -0.361624
O30   O     O_R   0.201391 0.755838 0.723331 -0.335545
N4    N     N_R   0.080173 0.703488 0.300975 0.234421
O31   O     O_R   0.114419 0.627455 0.291428 -0.387543
O32   O     O_R   0.150546 0.744769 0.274674 -0.381169
N5    N     N_2   0.736863 0.625094 0.241500 -0.138146
H57   H     H_    0.830649 0.654031 0.233972 0.177613
C67   C     C_3   0.573983 0.669802 0.242825 -0.689195
H58   H     H_    0.549304 0.694232 0.207293 0.215012
H59   H     H_    0.567974 0.719936 0.273889 0.236347
H60   H     H_    0.479441 0.632133 0.246056 0.313374
N6    N     N_2   0.562532 0.566034 0.098862 -0.083423
H61   H     H_    0.560086 0.597562 0.134863 0.222027
C68   C     C_3   0.442109 0.603606 0.066133 -0.910276
H62   H     H_    0.322527 0.621386 0.085787 0.266257
H63   H     H_    0.421101 0.562481 0.031164 0.254875
H64   H     H_    0.483494 0.656833 0.056730 0.248945
N7    N     N_R   0.707690 0.139420 0.424874 0.242140
O33   O     O_R   0.643195 0.090047 0.391007 -0.396987
O34   O     O_R   0.859927 0.148654 0.420265 -0.347296
N8    N     N_2   0.081518 0.136548 0.678874 -0.065568
H65   H     H_    0.004028 0.118321 0.702145 0.196516
C69   C     C_3   0.240523 0.086922 0.674566 -0.737125
H66   H     H_    0.222864 0.024388 0.668705 0.253584
H67   H     H_    0.315755 0.099257 0.709534 0.234310
H68   H     H_    0.306948 0.095942 0.641522 0.227745

loop_
_geom_bond_atom_site_label_1
_geom_bond_atom_site_label_2
_geom_bond_distance
_ccdc_geom_bond_type
C26   H39   1.083301 S    
C67   H58   1.108750 S    
C51   H45   1.083561 S    
C39   O26   1.221506 D    
C5    H10   1.107146 S    
N5    H57   1.030783 S    
Ba1   O20   2.906645 S    
O5    C6    1.397291 S    
C22   C23   1.506642 S    
C4    C5    1.520901 S    
P1    Ba1   3.383021 S    
Ba1   O16   2.800712 S    
C53   H55   1.084591 S    
N2    C39   1.394670 Am   
C27   C49   1.426339 A    
C46   C47   1.414096 A    
N6    C68   1.449351 S    
C18   O27   1.221344 D    
N7    O33   1.300974 A    
O14   P8    1.748860 S    
C52   H47   1.072671 S    
C30   C32   1.419043 A    
C14   H31   1.109629 S    
P3    O11   1.751265 S    
P2    C58   1.839703 S    
C7    H15   1.107069 S    
C4    H8    1.107089 S    
O11   C2    1.407244 S    
C29   H49   1.086116 S    
C49   C52   1.412483 A    
C37   C51   1.402705 A    
C31   C32   1.418464 A    
C32   C36   1.431162 A    
P8    C20   1.897572 S    
C54   C55   1.498062 S    
C24   C25   1.411205 A    
C19   C23   1.371055 D    
C33   C34   1.398143 A    
C11   O22   1.401201 S    
P1    O1    1.505602 D    
O10   C8    1.401242 S    
C64   H52   1.081490 S    
C42   C43   1.328516 D    
C3    N8    1.453211 S    
H1    C10   1.112435 S    
C35   C36   1.405780 A    
C34   H41   1.083407 S    
N3    O29   1.301082 A    
C21   C28   1.321990 D    
P7    O21   1.562398 D    
C68   H63   1.107739 S    
C14   H32   1.105539 S    
P2    O10   1.753065 S    
C30   C45   1.430981 A    
C11   H25   1.110180 S    
C62   C63   1.407313 A    
C4    H7    1.101718 S    
C2    C3    1.529501 S    
Ba1   Ba2   4.529072 S    
C1    H2    1.106692 S    
O7    Ba1   2.878156 S    
O6    C10   1.395416 S    
C65   H50   1.085493 S    
O19   C13   1.408061 S    
C11   C12   1.528430 S    
C22   H38   1.085495 S    
C59   H51   1.078833 S    
C56   C64   1.484718 S    
N7    O34   1.300157 A    
C40   H40   1.084539 S    
C5    H11   1.110246 S    
N4    O32   1.302045 A    
N5    C67   1.438685 S    
C9    H20   1.108770 S    
C57   N7    1.438657 S    
C37   C38   1.416351 A    
C67   H60   1.110173 S    
C28   H48   1.084732 S    
C56   C57   1.499336 S    
C8    C9    1.520498 S    
C29   C42   1.312443 D    
C45   C46   1.421388 A    
C16   H37   1.107867 S    
C66   H56   1.081564 S    
C4    O15   1.395451 S    
Ba1   O13   2.732688 S    
C30   C33   1.414370 A    
P4    O13   1.531770 S    
C14   H30   1.110811 S    
C57   C58   1.334389 D    
C36   C37   1.406293 A    
C6    C7    1.521550 S    
C7    H16   1.110419 S    
H35   C16   1.109949 S    
C45   C48   1.413745 A    
C26   C48   1.395986 A    
C20   C28   1.508084 S    
C8    H17   1.103419 S    
Ba2   O21   2.878535 S    
C50   C51   1.394821 A    
C12   H27   1.111538 S    
C10   H22   1.110435 S    
C16   H36   1.106661 S    
N1    C23   1.477767 S    
C33   H42   1.078646 S    
P1    O5    1.750368 S    
O1    Ba1   2.802690 S    
P1    O2    1.531770 S    
C9    H21   1.110887 S    
C6    H13   1.107544 S    
O3    P6    1.757603 S    
C31   C50   1.415406 A    
C11   H24   1.111550 S    
C48   H43   1.078687 S    
C67   H59   1.100529 S    
O2    Ba2   2.733300 S    
P8    O24   1.750311 S    
N6    H61   1.028623 S    
P4    C21   1.848124 S    
C19   N5    1.429911 S    
C50   H44   1.078404 S    
C68   H64   1.111007 S    
C12   N3    1.459766 S    
C55   C56   1.349179 D    
C59   C60   1.395044 A    
C55   H53   1.083423 S    
O2    Ba1   2.919901 S    
C1    H3    1.110791 S    
P5    C60   1.823555 S    
C68   H62   1.110835 S    
C13   C14   1.529804 S    
P2    O7    1.499165 D    
C12   H26   1.109076 S    
C38   O28   1.221479 D    
P3    O8    1.741944 S    
P2    Ba1   3.420563 S    
N4    O31   1.299536 A    
C18   C27   1.424558 A    
C9    H19   1.110556 S    
P4    Ba2   3.383542 S    
C3    H28   1.112655 S    
C15   C16   1.526223 S    
C24   C27   1.413085 A    
P6    C41   1.862994 S    
C38   N2    1.391733 Am   
O17   Ba2   2.740561 S    
O13   Ba2   2.920709 S    
P4    O15   1.749539 S    
P4    O12   1.505937 D    
C1    C10   1.522168 S    
C17   N1    1.388501 Am   
C47   C52   1.409946 A    
C2    H5    1.103498 S    
C3    H6    1.108028 S    
C43   H46   1.078971 S    
C13   N4    1.461551 S    
C53   C58   1.326511 D    
C59   C63   1.411828 A    
C63   C65   1.483668 S    
C13   H29   1.107670 S    
O16   P7    1.758370 S    
C15   O24   1.411960 S    
C43   C44   1.511277 S    
O8    Ba1   2.739965 S    
O14   Ba2   2.720802 S    
C29   C41   1.508256 S    
C61   C62   1.397594 A    
O4    P6    1.540615 D    
C61   C66   1.387085 A    
C1    H23   1.107853 S    
C62   H54   1.083519 S    
P5    O18   1.544476 D    
C2    H4    1.113258 S    
C64   C65   1.346434 D    
C24   C46   1.428662 A    
C34   C35   1.404937 A    
C6    H12   1.101631 S    
C15   H34   1.109496 S    
P2    O20   1.581731 S    
P8    O23   1.549241 D    
N1    C18   1.389869 Am   
C69   H68   1.107794 S    
C49   N6    1.439235 S    
C19   C20   1.539471 S    
N8    C69   1.447949 S    
C40   C41   1.524159 S    
P5    O19   1.751268 S    
P1    C42   1.839633 S    
P3    C54   1.864150 S    
C60   C66   1.391149 A    
C21   C22   1.329512 D    
C17   C25   1.417947 A    
O3    Ba1   2.721356 S    
P7    C61   1.824788 S    
C15   H33   1.111494 S    
C40   C44   1.364281 D    
C17   O25   1.221278 D    
C8    H18   1.108261 S    
P7    O22   1.748130 S    
C25   C26   1.403637 A    
P3    O9    1.544681 D    
C31   C47   1.429834 A    
C5    H9    1.110470 S    
C53   C54   1.509749 S    
Ba2   O20   2.799964 S    
N3    O30   1.300897 A    
N8    H65   1.031452 S    
C7    H14   1.110628 S    
P5    O17   1.749021 S    
C69   H66   1.110713 S    
C69   H67   1.111289 S    
C35   C39   1.419118 A    
O6    P6    1.748252 S    
N2    C44   1.476414 S    
O16   Ba2   2.905811 S    
O12   Ba2   2.803032 S    
