data_mof_unit_29952.cif
_audit_creation_date              2012-12-11T15:54:35-0500
_audit_creation_method            fapswitch 2.2
_symmetry_space_group_name_H-M    P1
_symmetry_Int_Tables_number       1
_space_group_crystal_system       triclinic
_cell_length_a                    6.931005
_cell_length_b                    14.529758
_cell_length_c                    16.09373
_cell_angle_alpha                 89.963352
_cell_angle_beta                  89.974215
_cell_angle_gamma                 90.015514
_cell_volume                      1620.73180735

loop_
_atom_site_label
_atom_site_type_symbol
_atom_type_description
_atom_site_fract_x
_atom_site_fract_y
_atom_site_fract_z
_atom_type_partial_charge
O1    O     O_R   0.638180 0.333920 0.163320 -0.540925
O2    O     O_R   0.361820 0.666080 0.836680 -0.540925
O3    O     O_R   0.308470 0.344960 0.336080 -0.543175
O4    O     O_R   0.691530 0.655040 0.663920 -0.543175
O5    O     O_R   0.138140 0.166110 0.336680 -0.534965
O6    O     O_R   0.861860 0.833890 0.663320 -0.534965
C1    C     C_R   0.477496 0.367098 0.365125 0.688042
C2    C     C_R   0.522503 0.632902 0.634875 0.688042
O7    O     O_R   0.308460 0.344950 0.163930 -0.543759
O8    O     O_R   0.691540 0.655050 0.836070 -0.543759
O9    O     O_R   0.138140 0.166100 0.163310 -0.542889
O10   O     O_R   0.861860 0.833900 0.836690 -0.542890
C3    C     C_R   0.477546 0.367207 0.134997 0.685202
C4    C     C_R   0.522454 0.632792 0.865003 0.685201
O11   O     O_R   0.638180 0.333930 0.336700 -0.543449
O12   O     O_R   0.361820 0.666070 0.663300 -0.543449
O13   O     O_3   0.471670 0.191340 0.250000 -0.365493
O14   O     O_3   0.528330 0.808660 0.750000 -0.365493
V1    V     V_3+5 0.196830 0.260900 0.250000 1.401473
V2    V     V_3+5 0.803170 0.739100 0.750000 1.401472
O15   O     O_R   0.808420 0.155070 0.163920 -0.543316
O16   O     O_R   0.191580 0.844930 0.836080 -0.543316
C5    C     C_R   0.977505 0.132713 0.135055 0.676588
C6    C     C_R   0.022495 0.867287 0.864945 0.676589
O17   O     O_R   0.808420 0.155080 0.336070 -0.537303
O18   O     O_R   0.191580 0.844920 0.663930 -0.537303
C7    C     C_R   0.977256 0.133053 0.364631 0.698689
C8    C     C_R   0.022744 0.866947 0.635369 0.698690
V3    V     V_3+5 0.696830 0.239130 0.250000 1.408858
V4    V     V_3+5 0.303170 0.760870 0.750000 1.408858
O19   O     O_3   0.971850 0.308690 0.250010 -0.372267
O20   O     O_3   0.028150 0.691310 0.749990 -0.372267
H1    H     H_    0.282735 0.847973 0.267021 0.114811
H2    H     H_    0.717264 0.152027 0.732979 0.114811
C9    C     C_R   0.829548 0.174436 0.528841 -0.141517
C10   C     C_R   0.170452 0.825564 0.471159 -0.141517
C11   C     C_R   0.758729 0.196944 0.607257 -0.123444
C12   C     C_R   0.241270 0.803056 0.392743 -0.123444
C13   C     C_R   0.771163 0.133928 0.671983 -0.120417
C14   C     C_R   0.228836 0.866072 0.328017 -0.120417
C15   C     C_R   0.854457 0.047895 0.658805 -0.131272
C16   C     C_R   0.145542 0.952105 0.341195 -0.131272
C17   C     C_R   0.925874 0.022537 0.579609 0.069594
C18   C     C_R   0.074126 0.977463 0.420391 0.069594
C19   C     C_R   0.913176 0.087202 0.513189 0.069391
C20   C     C_R   0.086823 0.912798 0.486811 0.069391
C21   C     C_R   0.012651 0.935263 0.566481 -0.186702
C22   C     C_R   0.987349 0.064737 0.433519 -0.186702
H3    H     H_    0.819140 0.226609 0.481109 0.107748
H4    H     H_    0.180860 0.773391 0.518891 0.107748
H5    H     H_    0.863652 0.002110 0.711672 0.105414
H6    H     H_    0.136348 0.997889 0.288328 0.105414
C23   C     C_R   0.179724 0.972648 0.969197 -0.155915
C24   C     C_R   0.820276 0.027352 0.030803 -0.155915
H7    H     H_    0.320696 0.952480 0.946663 0.115965
H8    H     H_    0.679304 0.047520 0.053337 0.115965
C25   C     C_R   0.168578 0.036068 0.034537 -0.156373
C26   C     C_R   0.831422 0.963932 0.965462 -0.156373
H9    H     H_    0.301518 0.062960 0.060137 0.118589
H10   H     H_    0.698482 0.937040 0.939863 0.118590
C27   C     C_R   0.988691 0.064328 0.066266 -0.045403
C28   C     C_R   0.011308 0.935672 0.933734 -0.045402
C29   C     C_R   0.321349 0.478228 0.464740 -0.157370
C30   C     C_R   0.678651 0.521772 0.535260 -0.157370
H11   H     H_    0.181256 0.462674 0.438517 0.117372
H12   H     H_    0.818744 0.537326 0.561483 0.117372
C31   C     C_R   0.332520 0.542025 0.529764 -0.159781
C32   C     C_R   0.667480 0.457975 0.470236 -0.159781
H13   H     H_    0.200504 0.573830 0.551440 0.116429
H14   H     H_    0.799496 0.426170 0.448560 0.116429
C33   C     C_R   0.511309 0.564625 0.566010 -0.046768
C34   C     C_R   0.488691 0.435375 0.433990 -0.046768
C35   C     C_R   0.320605 0.475244 0.032946 -0.157756
C36   C     C_R   0.679395 0.524756 0.967053 -0.157756
H15   H     H_    0.179904 0.457241 0.057272 0.116869
H16   H     H_    0.820096 0.542759 0.942728 0.116869
C37   C     C_R   0.331705 0.538832 0.967710 -0.152514
C38   C     C_R   0.668295 0.461168 0.032290 -0.152514
H17   H     H_    0.199014 0.568015 0.943959 0.118766
H18   H     H_    0.800986 0.431985 0.056041 0.118766
C39   C     C_R   0.511255 0.564455 0.933829 -0.046532
C40   C     C_R   0.488745 0.435545 0.066171 -0.046532
H19   H     H_    0.695137 0.263978 0.617954 0.119506
H20   H     H_    0.304863 0.736022 0.382046 0.119506

loop_
_geom_bond_atom_site_label_1
_geom_bond_atom_site_label_2
_ccdc_geom_bond_type
C7    C22   S    
C26   C28   A    
V4    O20   S    
C29   H11   S    
C8    C21   S    
O13   V3    S    
O4    C2    A    
V1    O19   S    
C13   C15   A    
O9    V1    S    
C36   H16   S    
C30   C32   A    
C9    C11   A    
O3    C1    A    
C24   C26   A    
C38   H18   S    
C25   H9    S    
C26   H10   S    
C30   C33   A    
O7    C3    A    
O5    C7    A    
O7    V1    S    
O6    C8    A    
O8    V2    S    
C9    H3    S    
O3    V1    S    
O14   V4    S    
C31   C33   A    
C14   C16   A    
C2    O12   A    
V3    O19   S    
C15   C17   A    
C16   C18   A    
C18   C20   A    
O11   V3    S    
C24   H8    S    
C23   H7    S    
O17   V3    S    
C29   C31   A    
H1    C14   S    
H2    C13   S    
O8    C4    A    
C1    C34   S    
C23   C25   A    
C1    O11   A    
O15   V3    S    
C3    C40   S    
C31   H13   S    
C30   H12   S    
C23   C28   A    
C38   C40   A    
C37   C39   A    
C32   C34   A    
O10   V2    S    
O1    V3    S    
C37   H17   S    
C10   C20   A    
C17   C19   A    
O18   V4    S    
O15   C5    A    
O16   C6    A    
O1    C3    A    
C35   H15   S    
C36   C39   A    
C9    C19   A    
C35   C40   A    
C10   H4    S    
V2    O20   S    
C19   C22   A    
C20   C21   A    
C2    C33   S    
C6    C28   S    
O16   V4    S    
C12   H20   S    
C25   C27   A    
O5    V1    S    
C24   C27   A    
O17   C7    A    
O6    V2    S    
O10   C6    A    
O18   C8    A    
O2    V4    S    
C10   C12   A    
C11   C13   A    
C12   C14   A    
C17   C21   A    
O9    C5    A    
O13   V1    S    
O14   V2    S    
O2    C4    A    
O4    V2    S    
C5    C27   S    
C29   C34   A    
C32   H14   S    
C36   C38   A    
C35   C37   A    
C11   H19   S    
C4    C39   S    
O12   V4    S    
C15   H5    S    
C18   C22   A    
C16   H6    S    
