data_mof_unit_28312.cif
_audit_creation_date              2012-12-10T17:09:15-0500
_audit_creation_method            fapswitch 2.2
_symmetry_space_group_name_H-M    P1
_symmetry_Int_Tables_number       1
_space_group_crystal_system       triclinic
_cell_length_a                    18.464694
_cell_length_b                    18.369998
_cell_length_c                    11.661096
_cell_angle_alpha                 90.000035
_cell_angle_beta                  76.017129
_cell_angle_gamma                 90.0
_cell_volume                      3838.19525414

loop_
_atom_site_label
_atom_site_type_symbol
_atom_type_description
_atom_site_fract_x
_atom_site_fract_y
_atom_site_fract_z
_atom_type_partial_charge
C1    C     C_R   0.398828 0.099772 0.521580 0.824748
C2    C     C_R   0.601172 0.900228 0.478420 0.824748
C3    C     C_R   0.601172 0.099772 0.478420 0.824748
C4    C     C_R   0.398828 0.900228 0.521580 0.824750
C5    C     C_R   0.898828 0.599772 0.521580 0.824750
C6    C     C_R   0.101172 0.400228 0.478420 0.824748
C7    C     C_R   0.101173 0.599772 0.478420 0.824748
C8    C     C_R   0.898828 0.400228 0.521580 0.824749
C9    C     C_R   0.535723 1.000000 0.961385 0.068644
C10   C     C_R   0.464277 0.000000 0.038615 0.068644
C11   C     C_R   0.035723 0.500000 0.961385 0.068644
C12   C     C_R   0.964277 0.500000 0.038615 0.068644
C13   C     C_R   0.410960 0.000000 0.866665 0.083539
C14   C     C_R   0.589040 1.000000 0.133335 0.083538
C15   C     C_R   0.910960 0.500000 0.866665 0.083538
C16   C     C_R   0.089039 0.500000 0.133335 0.083539
C17   C     C_R   0.401598 0.000000 0.990154 -0.338514
C18   C     C_R   0.598402 1.000000 0.009846 -0.338514
C19   C     C_R   0.901598 0.500000 0.990154 -0.338513
C20   C     C_R   0.098402 0.500000 0.009846 -0.338514
C21   C     C_R   0.542441 1.000000 0.837582 0.022251
C22   C     C_R   0.457559 0.000000 0.162418 0.022249
C23   C     C_R   0.042441 0.500000 0.837582 0.022249
C24   C     C_R   0.957559 0.500000 0.162418 0.022251
C25   C     C_R   0.658027 0.156229 0.465739 -0.107742
C26   C     C_R   0.341971 0.843772 0.534261 -0.107740
C27   C     C_R   0.341972 0.156229 0.534261 -0.107740
C28   C     C_R   0.658028 0.843771 0.465739 -0.107740
C29   C     C_R   0.158030 0.656227 0.465739 -0.107740
C30   C     C_R   0.841972 0.343771 0.534261 -0.107742
C31   C     C_R   0.841972 0.656229 0.534261 -0.107740
C32   C     C_R   0.158028 0.343771 0.465739 -0.107740
C33   C     C_R   0.255783 0.759779 0.658080 0.187988
C34   C     C_R   0.744200 0.240237 0.341927 0.187991
C35   C     C_R   0.744202 0.759765 0.341925 0.187991
C36   C     C_R   0.255798 0.240236 0.658075 0.187991
C37   C     C_R   0.755799 0.259764 0.658073 0.187989
C38   C     C_R   0.244218 0.740220 0.341920 0.187988
C39   C     C_R   0.244201 0.259764 0.341925 0.187991
C40   C     C_R   0.755797 0.740235 0.658076 0.187990
C41   C     C_R   0.309821 0.814167 0.645354 -0.189923
C42   C     C_R   0.690164 0.185847 0.354652 -0.189923
C43   C     C_R   0.690166 0.814155 0.354650 -0.189925
C44   C     C_R   0.309834 0.185846 0.645350 -0.189924
C45   C     C_R   0.809835 0.314154 0.645348 -0.189922
C46   C     C_R   0.190180 0.685833 0.354646 -0.189924
C47   C     C_R   0.190166 0.314154 0.354650 -0.189924
C48   C     C_R   0.809833 0.685845 0.645350 -0.189924
C49   C     C_R   0.320193 0.819394 0.434426 -0.266575
C50   C     C_R   0.679816 0.180598 0.565570 -0.266576
C51   C     C_R   0.679816 0.819402 0.565572 -0.266572
C52   C     C_R   0.320184 0.180598 0.434428 -0.266572
C53   C     C_R   0.820183 0.319403 0.434429 -0.266576
C54   C     C_R   0.179808 0.680606 0.565574 -0.266575
C55   C     C_R   0.179816 0.319402 0.565572 -0.266572
C56   C     C_R   0.820184 0.680598 0.434428 -0.266572
C57   C     C_R   0.266291 0.765094 0.443433 0.114920
C58   C     C_R   0.733716 0.234900 0.556564 0.114923
C59   C     C_R   0.733715 0.765100 0.556565 0.114919
C60   C     C_R   0.266284 0.234899 0.443435 0.114919
C61   C     C_R   0.766283 0.265101 0.443435 0.114923
C62   C     C_R   0.233710 0.734905 0.556567 0.114921
C63   C     C_R   0.233716 0.265101 0.556565 0.114919
C64   C     C_R   0.766284 0.734899 0.443435 0.114919
Cu1   Cu    Cu3+1 0.507800 0.000000 0.383250 0.937898
Cu2   Cu    Cu3+1 0.492200 0.000000 0.616750 0.937899
Cu3   Cu    Cu3+1 0.007800 0.500000 0.383250 0.937899
Cu4   Cu    Cu3+1 0.992200 0.500000 0.616750 0.937898
H1    H     H_    0.637695 1.000000 0.169641 0.123047
H2    H     H_    0.362305 0.000000 0.830359 0.123044
H3    H     H_    0.137695 0.500000 0.169641 0.123044
H4    H     H_    0.862305 0.500000 0.830359 0.123047
H5    H     H_    0.402783 0.000000 0.222571 0.117223
H6    H     H_    0.597216 1.000000 0.777429 0.117221
H7    H     H_    0.902783 0.500000 0.222571 0.117221
H8    H     H_    0.097216 0.500000 0.777429 0.117224
H9    H     H_    0.654276 0.156723 0.650475 0.176608
H10   H     H_    0.345743 0.843259 0.349516 0.176611
H11   H     H_    0.345725 0.156723 0.349522 0.176607
H12   H     H_    0.654275 0.843277 0.650478 0.176607
H13   H     H_    0.154257 0.656740 0.650484 0.176610
H14   H     H_    0.845724 0.343278 0.349525 0.176608
H15   H     H_    0.845725 0.656724 0.349522 0.176607
H16   H     H_    0.154275 0.343277 0.650478 0.176607
H17   H     H_    0.672923 0.166648 0.277457 0.160240
H18   H     H_    0.327054 0.833374 0.722552 0.160237
H19   H     H_    0.327074 0.166646 0.722546 0.160239
H20   H     H_    0.672926 0.833355 0.277454 0.160238
H21   H     H_    0.172947 0.666625 0.277447 0.160237
H22   H     H_    0.827076 0.333353 0.722543 0.160240
H23   H     H_    0.827073 0.666645 0.722546 0.160238
H24   H     H_    0.172925 0.333354 0.277454 0.160239
H25   H     H_    0.345769 0.000000 0.047163 0.136573
H26   H     H_    0.654230 0.999999 0.952837 0.136573
H27   H     H_    0.845769 0.500000 0.047163 0.136573
H28   H     H_    0.154230 0.499999 0.952837 0.136573
N1    N     N_R   0.519530 0.000000 0.207810 -0.180434
N2    N     N_R   0.480470 0.000000 0.792190 -0.180433
N3    N     N_R   0.019530 0.500000 0.207810 -0.180433
N4    N     N_R   0.980470 0.500000 0.792190 -0.180434
O1    O     O_R   0.430030 0.075530 0.417420 -0.590486
O2    O     O_R   0.569970 0.924470 0.582580 -0.590485
O3    O     O_R   0.569970 0.075530 0.582580 -0.590486
O4    O     O_R   0.430030 0.924470 0.417420 -0.590487
O5    O     O_R   0.930030 0.575530 0.417420 -0.590486
O6    O     O_R   0.069970 0.424470 0.582580 -0.590486
O7    O     O_R   0.069970 0.575530 0.582580 -0.590487
O8    O     O_R   0.930030 0.424470 0.417420 -0.590486
O9    O     O_R   0.416860 0.075510 0.614610 -0.592644
O10   O     O_R   0.583140 0.924490 0.385390 -0.592644
O11   O     O_R   0.583140 0.075510 0.385390 -0.592643
O12   O     O_R   0.416860 0.924490 0.614610 -0.592643
O13   O     O_R   0.916860 0.575510 0.614610 -0.592644
O14   O     O_R   0.083140 0.424490 0.385390 -0.592644
O15   O     O_R   0.083140 0.575510 0.385390 -0.592643
O16   O     O_R   0.916860 0.424490 0.614610 -0.592644
C65   C     C_3   0.723028 0.229487 0.780070 -0.903353
H29   H     H_    0.734472 0.170189 0.781411 0.231305
H30   H     H_    0.747278 0.255656 0.848183 0.233013
H31   H     H_    0.661850 0.239070 0.805117 0.236784
C66   C     C_3   0.277004 0.770483 0.219917 -0.903343
H32   H     H_    0.265563 0.829782 0.218554 0.231304
H33   H     H_    0.338182 0.760897 0.194890 0.236782
H34   H     H_    0.252762 0.744306 0.151802 0.233012
C67   C     C_3   0.276974 0.229487 0.219926 -0.903349
H35   H     H_    0.265527 0.170189 0.218583 0.231304
H36   H     H_    0.252725 0.255658 0.151813 0.233012
H37   H     H_    0.338151 0.239069 0.194881 0.236782
C68   C     C_3   0.723024 0.770510 0.780075 -0.903347
H38   H     H_    0.734471 0.829808 0.781419 0.231304
H39   H     H_    0.661846 0.760929 0.805118 0.236782
H40   H     H_    0.747272 0.744338 0.848188 0.233011
C69   C     C_3   0.222998 0.729515 0.780082 -0.903347
H41   H     H_    0.161821 0.739102 0.805111 0.236783
H42   H     H_    0.234439 0.670216 0.781442 0.231304
H43   H     H_    0.247242 0.755690 0.848196 0.233012
C70   C     C_3   0.776970 0.270515 0.219930 -0.903355
H44   H     H_    0.838148 0.260933 0.194882 0.236783
H45   H     H_    0.752720 0.244345 0.151818 0.233013
H46   H     H_    0.765524 0.329813 0.218589 0.231305
C71   C     C_3   0.776976 0.729489 0.219925 -0.903348
H47   H     H_    0.765529 0.670191 0.218581 0.231304
H48   H     H_    0.752727 0.755661 0.151813 0.233012
H49   H     H_    0.838153 0.739071 0.194882 0.236782
C72   C     C_3   0.223025 0.270512 0.780074 -0.903349
H50   H     H_    0.234471 0.329810 0.781418 0.231304
H51   H     H_    0.161848 0.260929 0.805119 0.236783
H52   H     H_    0.247275 0.244341 0.848187 0.233012

loop_
_geom_bond_atom_site_label_1
_geom_bond_atom_site_label_2
_ccdc_geom_bond_type
C6    C32   S    
C40   C68   S    
C7    C29   S    
C24   N3    A    
C47   H24   S    
C14   C18   A    
C30   C45   A    
C34   C42   A    
Cu1   O1    S    
C15   N4    A    
C72   H50   S    
C57   C62   A    
C46   H21   S    
C5    O5    A    
C10   C22   A    
C15   C19   A    
C41   H18   S    
C70   H45   S    
C59   C64   A    
C56   H15   S    
C60   C63   A    
C39   C67   S    
C43   H20   S    
Cu3   O14   S    
C65   H30   S    
C28   C51   A    
Cu3   O8    S    
C13   H2    S    
C2    O2    A    
C10   C17   A    
C49   C57   A    
C49   H10   S    
C68   H39   S    
C7    O15   A    
C13   N2    A    
Cu2   O2    S    
C25   C50   A    
C6    O14   A    
C66   H34   S    
Cu3   O15   S    
C52   C60   A    
C1    O9    A    
C51   H12   S    
C53   C61   A    
C27   C44   A    
Cu1   O11   S    
C3    O11   A    
C33   C62   A    
C48   H23   S    
C55   C63   A    
C69   H43   S    
C56   C64   A    
C35   C64   A    
Cu4   O7    S    
C31   C56   A    
C44   H19   S    
C35   C43   A    
C9    C10   A    
C23   H8    S    
C32   C55   A    
C37   C58   A    
Cu3   N3    S    
Cu4   O13   S    
C68   H40   S    
C1    C27   S    
C58   C61   A    
C23   N4    A    
C20   H28   S    
C40   C59   A    
C69   H42   S    
C16   H3    S    
Cu4   O6    S    
C8    O8    A    
C72   H51   S    
C70   H46   S    
C11   C20   A    
C66   H33   S    
Cu3   Cu4   S    
C50   C58   A    
C3    C25   S    
C65   H31   S    
Cu3   O5    S    
C54   C62   A    
C21   H6    S    
C34   C61   A    
C53   H14   S    
Cu4   N4    S    
C15   H4    S    
C67   H37   S    
C38   C57   A    
C36   C72   S    
C16   C20   A    
C6    O6    A    
C37   C65   S    
C16   N3    A    
C42   H17   S    
C30   C53   A    
C67   H36   S    
C45   H22   S    
C66   H32   S    
C35   C71   S    
Cu4   O16   S    
C31   C48   A    
C67   H35   S    
C18   H26   S    
C32   C47   A    
C7    O7    A    
C26   C49   A    
C17   H25   S    
C37   C45   A    
C52   H11   S    
C50   H9    S    
C1    O1    A    
C72   H52   S    
C19   H27   S    
C27   C52   A    
C14   N1    A    
C39   C47   A    
C68   H38   S    
C3    O3    A    
C40   C48   A    
C2    O10   A    
C28   C43   A    
C5    O13   A    
Cu2   O3    S    
C36   C63   A    
C25   C42   A    
C4    C26   S    
C11   C12   A    
C24   H7    S    
C71   H49   S    
C70   H44   S    
C12   C24   A    
C34   C70   S    
C22   H5    S    
C13   C17   A    
C29   C46   A    
C33   C41   A    
Cu2   N2    S    
C71   H48   S    
C8    C30   S    
C65   H29   S    
C21   N2    A    
C9    C21   A    
C69   H41   S    
C39   C60   A    
C4    O4    A    
C12   C19   A    
C11   C23   A    
C14   H1    S    
Cu2   O9    S    
C4    O12   A    
Cu1   O10   S    
C38   C46   A    
C38   C66   S    
C36   C44   A    
C8    O16   A    
Cu1   N1    S    
C33   C69   S    
C9    C18   A    
C51   C59   A    
Cu1   Cu2   S    
C29   C54   A    
C22   N1    A    
C2    C28   S    
Cu1   O4    S    
Cu2   O12   S    
C55   H16   S    
C71   H47   S    
C54   H13   S    
C26   C41   A    
C5    C31   S    
