data_mof_unit_58167.cif
_audit_creation_date              2012-12-10T20:53:06-0500
_audit_creation_method            fapswitch 2.2
_symmetry_space_group_name_H-M    P1
_symmetry_Int_Tables_number       1
_space_group_crystal_system       triclinic
_cell_length_a                    18.356956
_cell_length_b                    18.365047
_cell_length_c                    18.354346
_cell_angle_alpha                 59.87386
_cell_angle_beta                  59.92348
_cell_angle_gamma                 59.879773
_cell_volume                      4364.70249531

loop_
_atom_site_label
_atom_site_type_symbol
_atom_type_description
_atom_site_fract_x
_atom_site_fract_y
_atom_site_fract_z
_atom_type_partial_charge
C1    C     C_R   0.389919 0.110132 0.110184 0.480089
C2    C     C_R   0.377063 0.805797 0.782916 -0.101147
C3    C     C_R   0.039801 0.530091 0.905662 0.011751
C4    C     C_R   0.445901 0.965665 0.088877 0.010453
C5    C     C_R   0.554100 0.034334 0.911124 0.010453
C6    C     C_R   0.946091 0.945845 0.553852 0.006117
C7    C     C_R   0.053912 0.054153 0.446150 0.006116
C8    C     C_R   0.945961 0.553870 0.945922 0.011003
C9    C     C_R   0.054039 0.446131 0.054078 0.011000
C10   C     C_R   0.553813 0.946053 0.945879 0.007237
C11   C     C_R   0.446187 0.053947 0.054121 0.007237
C12   C     C_R   0.191989 0.214262 0.622880 -0.099807
C13   C     C_R   0.807959 0.785560 0.377298 -0.099775
C14   C     C_R   0.179581 0.575206 0.285496 -0.067261
C15   C     C_R   0.820307 0.424958 0.714509 -0.067148
C16   C     C_R   0.581165 0.284201 0.175222 -0.069967
C17   C     C_R   0.418932 0.715753 0.824690 -0.069946
C18   C     C_R   0.282411 0.173252 0.581501 -0.067751
C19   C     C_R   0.717555 0.826603 0.418689 -0.067636
C20   C     C_R   0.089275 0.585142 0.314994 0.059223
C21   C     C_R   0.610081 0.889867 0.889817 0.480091
C22   C     C_R   0.910669 0.414866 0.685001 0.059263
C23   C     C_R   0.585816 0.314220 0.086508 0.058829
C24   C     C_R   0.414198 0.685770 0.913425 0.058855
C25   C     C_R   0.313703 0.084297 0.586394 0.058131
C26   C     C_R   0.686280 0.915614 0.413628 0.058176
C27   C     C_R   0.042283 0.637613 0.254204 -0.081339
C28   C     C_R   0.957698 0.362241 0.745778 -0.081429
C29   C     C_R   0.632662 0.253465 0.040022 -0.079538
C30   C     C_R   0.367261 0.746548 0.959894 -0.079562
C31   C     C_R   0.253867 0.036769 0.633225 -0.080534
C32   C     C_R   0.110068 0.110241 0.389917 0.478226
C33   C     C_R   0.746117 0.963160 0.366625 -0.080637
C34   C     C_R   0.085228 0.679631 0.164789 -0.104835
C35   C     C_R   0.914736 0.320227 0.835191 -0.104883
C36   C     C_R   0.674545 0.163527 0.081934 -0.102792
C37   C     C_R   0.325367 0.836469 0.917948 -0.102834
C38   C     C_R   0.163561 0.077949 0.674671 -0.102537
C39   C     C_R   0.836403 0.921948 0.325167 -0.102608
C40   C     C_R   0.175152 0.669472 0.135666 -0.100859
C41   C     C_R   0.824758 0.330546 0.864324 -0.100836
C42   C     C_R   0.669776 0.133888 0.170297 -0.100335
C43   C     C_R   0.889935 0.889756 0.610083 0.478229
C44   C     C_R   0.330216 0.866070 0.829566 -0.100352
C45   C     C_R   0.132629 0.166620 0.669479 -0.100335
C46   C     C_R   0.867318 0.833224 0.330522 -0.100344
C47   C     C_R   0.988039 0.591021 0.464682 -0.163240
C48   C     C_R   0.011944 0.408979 0.535320 -0.163206
C49   C     C_R   0.591185 0.464496 0.987513 -0.165243
C50   C     C_R   0.408812 0.535509 0.012482 -0.165203
C51   C     C_R   0.464279 0.986262 0.591469 -0.163582
C52   C     C_R   0.535720 0.013712 0.408534 -0.163573
C53   C     C_R   0.944171 0.552503 0.555030 0.016904
C54   C     C_R   0.110158 0.389890 0.110205 0.481882
C55   C     C_R   0.055809 0.447498 0.444970 0.016923
C56   C     C_R   0.552399 0.555136 0.944678 0.015613
C57   C     C_R   0.447601 0.444866 0.055312 0.015630
C58   C     C_R   0.555164 0.944607 0.552382 0.016202
C59   C     C_R   0.444835 0.055367 0.447622 0.016210
C60   C     C_R   0.956002 0.460256 0.590795 -0.036532
C61   C     C_R   0.043968 0.539746 0.409204 -0.036561
C62   C     C_R   0.459935 0.591128 0.957268 -0.037870
C63   C     C_R   0.540067 0.408873 0.042711 -0.037881
C64   C     C_R   0.591382 0.958388 0.459643 -0.037870
C65   C     C_R   0.889842 0.610110 0.889795 0.481885
C66   C     C_R   0.408614 0.041570 0.540365 -0.037886
C67   C     C_R   0.110999 0.390412 0.389769 0.499895
C68   C     C_R   0.888996 0.609587 0.610232 0.499868
C69   C     C_R   0.390435 0.389747 0.110771 0.497382
C70   C     C_R   0.609565 0.610253 0.889226 0.497361
C71   C     C_R   0.389727 0.110793 0.390436 0.498585
C72   C     C_R   0.610273 0.889200 0.609564 0.498567
C73   C     C_R   0.931269 0.176107 0.389264 -0.091562
C74   C     C_R   0.068727 0.823896 0.610744 -0.091564
C75   C     C_R   0.919227 0.440822 0.188363 -0.095366
C76   C     C_R   0.222350 0.617284 0.195922 -0.100158
C77   C     C_R   0.080769 0.559186 0.811641 -0.095357
C78   C     C_R   0.393917 0.929458 0.178037 -0.091352
C79   C     C_R   0.606084 0.070541 0.821963 -0.091354
C80   C     C_R   0.845065 0.208538 0.387773 -0.124093
C81   C     C_R   0.154927 0.791468 0.612238 -0.124094
C82   C     C_R   0.826566 0.465244 0.227107 -0.128007
C83   C     C_R   0.173431 0.534764 0.772896 -0.128001
C84   C     C_R   0.394797 0.842199 0.211596 -0.121901
C85   C     C_R   0.605205 0.157800 0.788405 -0.121902
C86   C     C_R   0.791693 0.154906 0.441116 -0.129397
C87   C     C_R   0.777522 0.382883 0.804081 -0.100101
C88   C     C_R   0.208298 0.845102 0.558899 -0.129430
C89   C     C_R   0.772971 0.518533 0.173465 -0.120965
C90   C     C_R   0.227028 0.481470 0.826537 -0.120961
C91   C     C_R   0.447910 0.788845 0.157909 -0.127467
C92   C     C_R   0.552095 0.211153 0.842093 -0.127476
C93   C     C_R   0.824250 0.068539 0.496201 -0.098542
C94   C     C_R   0.175741 0.931469 0.503814 -0.098577
C95   C     C_R   0.811731 0.547907 0.080769 -0.090925
C96   C     C_R   0.188268 0.452096 0.919233 -0.090923
C97   C     C_R   0.500507 0.822434 0.070426 -0.095665
C98   C     C_R   0.623022 0.194140 0.216961 -0.101146
C99   C     C_R   0.499497 0.177564 0.929575 -0.095678
C100  C     C_R   0.912289 0.033314 0.497866 0.009552
C101  C     C_R   0.087711 0.966687 0.502140 0.009548
C102  C     C_R   0.905709 0.524221 0.039806 0.010900
C103  C     C_R   0.094290 0.475783 0.960195 0.010899
C104  C     C_R   0.500060 0.911329 0.034308 0.010899
C105  C     C_R   0.499942 0.088670 0.965692 0.010897
C106  C     C_R   0.966605 0.087898 0.443606 0.010833
C107  C     C_R   0.033397 0.912100 0.556397 0.010833
C108  C     C_R   0.960197 0.469914 0.094340 0.011751
H1    H     H_    0.275531 0.819460 0.559628 0.103743
H2    H     H_    0.338344 0.563281 0.020717 0.142722
H3    H     H_    0.436328 0.977094 0.662164 0.143206
H4    H     H_    0.563671 0.022881 0.337839 0.143187
H5    H     H_    0.969221 0.221332 0.347881 0.120873
H6    H     H_    0.030776 0.778670 0.652125 0.120874
H7    H     H_    0.958188 0.399235 0.232808 0.104552
H8    H     H_    0.041808 0.600775 0.767196 0.104558
H9    H     H_    0.352633 0.967600 0.223103 0.121540
H10   H     H_    0.647365 0.032401 0.776898 0.121540
H11   H     H_    0.819330 0.275826 0.345520 0.111112
H12   H     H_    0.724451 0.180556 0.440395 0.103751
H13   H     H_    0.180661 0.724181 0.654492 0.111115
H14   H     H_    0.796230 0.442770 0.299084 0.100619
H15   H     H_    0.203767 0.557237 0.700918 0.100623
H16   H     H_    0.354536 0.815697 0.279792 0.111051
H17   H     H_    0.645465 0.184303 0.720208 0.111050
H18   H     H_    0.779228 0.030374 0.537712 0.122363
H19   H     H_    0.220762 0.969636 0.462307 0.122362
H20   H     H_    0.767327 0.589372 0.041765 0.108943
H21   H     H_    0.232674 0.410629 0.958235 0.108940
H22   H     H_    0.541824 0.777591 0.032051 0.120082
H23   H     H_    0.298981 0.462669 0.796220 0.104947
H24   H     H_    0.458181 0.222407 0.967951 0.120080
H25   H     H_    0.208141 0.701887 0.066354 0.108453
H26   H     H_    0.791756 0.298136 0.933635 0.108468
H27   H     H_    0.702107 0.064200 0.202568 0.108564
H28   H     H_    0.297873 0.935745 0.797270 0.108592
H29   H     H_    0.062633 0.198379 0.701326 0.107317
H30   H     H_    0.937299 0.801442 0.298666 0.107343
H31   H     H_    0.292083 0.609222 0.173200 0.097565
H32   H     H_    0.707747 0.391068 0.826813 0.097570
H33   H     H_    0.618914 0.171078 0.285527 0.096392
H34   H     H_    0.701021 0.537328 0.203778 0.104953
H35   H     H_    0.381230 0.828832 0.714336 0.096410
H36   H     H_    0.167958 0.283061 0.618407 0.098373
H37   H     H_    0.831978 0.716721 0.381895 0.098396
H38   H     H_    0.216685 0.534618 0.331672 0.089189
H39   H     H_    0.783174 0.465668 0.668346 0.089113
H40   H     H_    0.544747 0.330349 0.211959 0.089487
H41   H     H_    0.455418 0.669588 0.787965 0.089450
H42   H     H_    0.327821 0.210810 0.545046 0.090935
H43   H     H_    0.672146 0.789029 0.455276 0.090872
H44   H     H_    0.972830 0.645216 0.275909 0.096625
H45   H     H_    0.551080 0.279132 0.815663 0.102425
H46   H     H_    0.027193 0.354517 0.724068 0.096585
H47   H     H_    0.636116 0.275673 0.971774 0.094785
H48   H     H_    0.363745 0.724371 0.028156 0.094783
H49   H     H_    0.276979 0.968409 0.636696 0.094031
H50   H     H_    0.723021 0.031562 0.363025 0.094031
H51   H     H_    0.048872 0.719853 0.118013 0.110159
H52   H     H_    0.951121 0.279888 0.881956 0.110141
H53   H     H_    0.710481 0.116773 0.046000 0.111299
H54   H     H_    0.289357 0.883239 0.953872 0.111288
H55   H     H_    0.117497 0.041258 0.710457 0.111888
H56   H     H_    0.448926 0.720866 0.184339 0.102430
H57   H     H_    0.882467 0.958656 0.289246 0.111875
H58   H     H_    0.980295 0.661338 0.437111 0.141764
H59   H     H_    0.019692 0.338660 0.562891 0.141746
H60   H     H_    0.661652 0.436724 0.979282 0.142724
O1    O     O_3   0.250000 0.250000 0.250000 -0.441748
O2    O     O_R   0.865800 0.694910 0.573470 -0.546167
O3    O     O_R   0.305090 0.426530 0.134200 -0.547014
O4    O     O_R   0.694910 0.573470 0.865800 -0.547030
O5    O     O_R   0.426530 0.134200 0.305090 -0.545508
O6    O     O_R   0.573470 0.865800 0.694910 -0.545513
O7    O     O_R   0.134190 0.426530 0.134200 -0.541909
O8    O     O_R   0.865810 0.573470 0.865800 -0.541885
O9    O     O_R   0.426530 0.134200 0.134190 -0.545391
O10   O     O_R   0.573470 0.865800 0.865810 -0.545380
O11   O     O_R   0.134200 0.134190 0.426530 -0.545089
O12   O     O_3   0.750000 0.750000 0.750000 -0.441750
O13   O     O_R   0.865800 0.865810 0.573470 -0.545061
O14   O     O_R   0.426530 0.305080 0.134210 -0.532982
O15   O     O_R   0.573470 0.694920 0.865790 -0.532985
O16   O     O_R   0.305080 0.134210 0.426530 -0.533267
O17   O     O_R   0.694920 0.865790 0.573470 -0.533270
O18   O     O_R   0.134210 0.426530 0.305080 -0.530242
O19   O     O_R   0.865790 0.573470 0.694920 -0.530239
O20   O     O_R   0.305080 0.134200 0.134200 -0.541696
O21   O     O_R   0.694920 0.865800 0.865800 -0.541700
O22   O     O_R   0.134200 0.134200 0.305080 -0.545814
O23   O     O_R   0.865800 0.865800 0.694920 -0.545824
O24   O     O_R   0.134200 0.305080 0.134200 -0.541360
O25   O     O_R   0.865800 0.694920 0.865800 -0.541369
O26   O     O_R   0.134200 0.305090 0.426530 -0.546156
Zn1   Zn    Zn3+2 0.206620 0.206630 0.380140 0.926268
Zn2   Zn    Zn3+2 0.793380 0.793370 0.619860 0.926271
Zn3   Zn    Zn3+2 0.206630 0.380140 0.206620 0.929163
Zn4   Zn    Zn3+2 0.793370 0.619860 0.793380 0.929162
Zn5   Zn    Zn3+2 0.380140 0.206620 0.206630 0.926199
Zn6   Zn    Zn3+2 0.619860 0.793380 0.793370 0.926194
Zn7   Zn    Zn3+2 0.206620 0.206620 0.206620 0.920690
Zn8   Zn    Zn3+2 0.793380 0.793380 0.793380 0.920686

loop_
_geom_bond_atom_site_label_1
_geom_bond_atom_site_label_2
_ccdc_geom_bond_type
C44   H28   S    
C48   C55   A    
O2    Zn2   S    
C25   C31   A    
C27   H44   S    
C49   C63   A    
O5    Zn5   S    
C36   C42   A    
C1    C11   S    
C13   H37   S    
C87   H32   S    
C58   C72   S    
O1    Zn1   S    
O11   Zn1   S    
C94   H19   S    
C9    C108  A    
C29   C36   A    
C33   C39   A    
C82   C89   A    
C54   O24   A    
C99   H24   S    
C34   C40   A    
C23   C29   A    
O1    Zn3   S    
C86   C93   A    
C97   H22   S    
O12   Zn8   S    
C42   C98   A    
C59   C66   A    
C22   C60   S    
C13   C46   A    
C1    O20   A    
C52   H4    S    
C89   H34   S    
C74   H6    S    
C79   H10   S    
C4    C104  A    
O20   Zn7   S    
C50   H2    S    
C73   H5    S    
C69   O3    A    
C20   C61   S    
C19   C26   A    
C53   C68   S    
C26   C64   S    
C93   H18   S    
O7    Zn3   S    
C38   C45   A    
C80   C86   A    
C74   C107  A    
C35   H52   S    
C1    O9    A    
C95   H20   S    
C85   C92   A    
C15   C22   A    
C94   C101  A    
C2    C44   A    
C11   C105  A    
C19   H43   S    
O24   Zn7   S    
O18   Zn3   S    
O4    Zn4   S    
C92   H45   S    
O23   Zn8   S    
C72   O6    A    
C5    C79   A    
C77   H8    S    
O12   Zn2   S    
C95   C102  A    
C9    C103  A    
C69   O14   A    
C29   H47   S    
C48   C60   A    
C34   H51   S    
C30   H48   S    
O26   Zn1   S    
C80   H11   S    
C43   O23   A    
C8    C65   S    
C27   C34   A    
C22   C28   A    
C71   O5    A    
C2    C17   A    
C28   H46   S    
C2    H35   S    
C18   C25   A    
C68   O2    A    
C41   C87   A    
C41   H26   S    
C53   C60   A    
C57   C63   A    
C65   O25   A    
C10   C21   S    
C58   C64   A    
C99   C105  A    
C88   C94   A    
C17   C24   A    
C13   C19   A    
O19   Zn4   S    
C97   C104  A    
C14   C20   A    
C25   C66   S    
C78   H9    S    
C28   C35   A    
C49   H60   S    
C3    C8    A    
C52   C64   A    
C47   H58   S    
C5    C105  A    
C39   H57   S    
O1    Zn7   S    
C43   O13   A    
C51   H3    S    
O25   Zn8   S    
C12   H36   S    
C30   C37   A    
C81   H13   S    
C42   H27   S    
C51   C66   A    
C6    C100  A    
C54   O7    A    
C89   C95   A    
C4    C78   A    
O12   Zn6   S    
C52   C59   A    
C78   C84   A    
C26   C33   A    
C21   O21   A    
C6    C107  A    
C45   H29   S    
C7    C106  A    
C32   O22   A    
C75   C82   A    
C51   C58   A    
C91   C97   A    
C4    C11   A    
C102  C108  A    
C93   C100  A    
C31   H49   S    
C39   C46   A    
C90   H23   S    
C70   O4    A    
C21   O10   A    
C84   C91   A    
C16   C23   A    
C56   C70   S    
C6    C43   S    
C65   O8    A    
O9    Zn5   S    
C36   H53   S    
C50   C62   A    
C56   C62   A    
C91   H56   S    
C75   H7    S    
C88   H1    S    
C74   C81   A    
C67   O26   A    
C79   C85   A    
C33   H50   S    
C15   C87   A    
C76   H31   S    
C3    C103  A    
C83   C90   A    
O10   Zn6   S    
C38   H55   S    
C24   C62   S    
C7    C32   S    
C14   C76   A    
C85   H17   S    
C50   C57   A    
C84   H16   S    
C71   O16   A    
C17   H41   S    
O14   Zn5   S    
O8    Zn4   S    
C12   C45   A    
C47   C61   A    
C55   C67   S    
C67   O18   A    
O22   Zn7   S    
C90   C96   A    
C20   C27   A    
O21   Zn8   S    
O13   Zn2   S    
O16   Zn1   S    
C40   H25   S    
C14   H38   S    
O6    Zn6   S    
O15   Zn6   S    
C31   C38   A    
O1    Zn5   S    
C16   H40   S    
C57   C69   S    
C37   C44   A    
C10   C104  A    
C5    C10   A    
O3    Zn3   S    
C49   C56   A    
C15   H39   S    
C16   C98   A    
C73   C106  A    
C48   H59   S    
C98   H33   S    
C47   C53   A    
C55   C61   A    
C23   C63   S    
C73   C80   A    
C35   C41   A    
C24   C30   A    
C72   O17   A    
C81   C88   A    
O12   Zn4   S    
C100  C106  A    
C68   O19   A    
C40   C76   A    
C70   O15   A    
C75   C108  A    
C7    C101  A    
C96   C103  A    
C12   C18   A    
C101  C107  A    
C77   C83   A    
C46   H30   S    
C37   H54   S    
C86   H12   S    
C9    C54   S    
O17   Zn2   S    
C32   O11   A    
C83   H15   S    
C18   H42   S    
C8    C102  A    
C82   H14   S    
C92   C99   A    
C59   C71   S    
C96   H21   S    
C3    C77   A    
