data_mof_unit_37982.cif
_audit_creation_date              2012-12-11T14:36:17-0500
_audit_creation_method            fapswitch 2.2
_symmetry_space_group_name_H-M    P1
_symmetry_Int_Tables_number       1
_space_group_crystal_system       triclinic
_cell_length_a                    13.477301
_cell_length_b                    13.494102
_cell_length_c                    27.516041
_cell_angle_alpha                 90.743638
_cell_angle_beta                  90.146481
_cell_angle_gamma                 60.016472
_cell_volume                      4334.05589192

loop_
_atom_site_label
_atom_site_type_symbol
_atom_type_description
_atom_site_fract_x
_atom_site_fract_y
_atom_site_fract_z
_atom_type_partial_charge
C1    C     C_R   0.620463 0.101711 0.570047 0.549065
C2    C     C_1   0.651808 0.698394 0.657271 -0.009047
C3    C     C_3   0.059786 0.209078 0.736875 -0.110700
C4    C     C_R   0.599911 0.779089 0.568616 0.547012
C5    C     C_3   0.110438 0.106890 0.771500 0.271432
C6    C     C_1   0.096621 0.201488 0.901804 0.001551
C7    C     C_1   0.229378 0.138471 0.617514 -0.003785
C8    C     C_3   0.097833 0.273274 0.772883 -0.138330
C9    C     C_3   0.147172 0.169860 0.807136 0.082968
C10   C     C_3   0.216087 0.220322 0.747137 -0.114123
C11   C     C_3   0.178046 0.155893 0.711972 0.009225
C12   C     C_1   0.632726 0.728755 0.615660 0.002913
C13   C     C_3   0.264976 0.117000 0.781962 -0.125732
C14   C     C_3   0.227831 0.051930 0.745946 -0.071057
C15   C     C_1   0.124343 0.182590 0.859589 -0.007904
C16   C     C_R   0.277772 0.121899 0.569698 0.547938
C17   C     C_1   0.201053 0.147873 0.659603 -0.044468
C18   C     C_3   0.624705 0.285891 0.738643 -0.126981
C19   C     C_3   0.555235 0.261445 0.776969 -0.141955
C20   C     C_1   0.692988 0.210161 0.902245 0.009586
C21   C     C_1   0.636701 0.135764 0.617624 -0.003534
C22   C     C_3   0.734912 0.218349 0.769478 -0.123928
C23   C     C_3   0.722791 0.547401 0.766506 -0.136644
C24   C     C_3   0.665175 0.193798 0.807009 0.084684
C25   C     C_3   0.763445 0.106184 0.741717 -0.079281
C26   C     C_3   0.653126 0.173810 0.711860 0.009672
C27   C     C_3   0.692678 0.084610 0.779344 0.282993
C28   C     C_R   0.622278 0.099510 0.431181 0.544459
C29   C     C_3   0.583036 0.149353 0.749245 -0.086863
C30   C     C_1   0.676765 0.201700 0.859690 0.004718
C31   C     C_1   0.645660 0.156895 0.659556 -0.043767
C32   C     C_R   0.735687 0.701508 0.359567 -0.129969
C33   C     C_R   0.748123 0.683533 0.309259 0.015378
C34   C     C_3   0.681886 0.645488 0.804559 -0.006819
C35   C     C_R   0.764997 0.660087 0.207620 0.005926
C36   C     C_R   0.856852 0.652019 0.234865 -0.123420
C37   C     C_R   0.848050 0.664673 0.285418 -0.103365
C38   C     C_R   0.775483 0.638830 0.157576 -0.133231
C39   C     C_R   0.685042 0.639580 0.131744 -0.004848
C40   C     C_R   0.601709 0.775998 0.430277 0.544624
C41   C     C_R   0.549537 0.713665 0.355456 -0.127624
C42   C     C_R   0.557324 0.703502 0.305415 0.011824
C43   C     C_R   0.656372 0.689545 0.282007 0.061537
C44   C     C_R   0.464865 0.712905 0.278430 -0.128936
C45   C     C_3   0.608992 0.618049 0.738093 -0.099813
C46   C     C_R   0.470045 0.709226 0.228039 -0.129073
C47   C     C_R   0.569309 0.692147 0.204403 0.014169
C48   C     C_R   0.663261 0.681700 0.231309 0.063433
C49   C     C_R   0.579194 0.676494 0.154493 -0.128989
C50   C     C_R   0.634081 0.721579 0.382318 -0.005348
C51   C     C_R   0.213926 0.057524 0.357478 -0.129292
C52   C     C_R   0.278024 0.120714 0.430934 0.545877
C53   C     C_R   0.190253 0.070226 0.307638 0.024890
C54   C     C_R   0.152135 0.093896 0.206951 0.018400
C55   C     C_R   0.163687 0.997188 0.230631 -0.122560
C56   C     C_3   0.666185 0.673713 0.709298 0.065706
C57   C     C_R   0.183971 0.984803 0.280588 -0.118881
C58   C     C_R   0.124835 0.110342 0.157632 -0.131907
C59   C     C_R   0.107458 0.210380 0.135126 -0.009369
C60   C     C_R   0.195836 0.245940 0.360747 -0.129305
C61   C     C_R   0.179290 0.256675 0.310990 -0.037976
C62   C     C_R   0.177262 0.168447 0.284055 0.049175
C63   C     C_R   0.171969 0.351483 0.287693 -0.070892
C64   C     C_3   0.779668 0.603438 0.736907 -0.143206
C65   C     C_R   0.164813 0.359266 0.237362 0.234560
C66   C     C_R   0.154632 0.274904 0.210052 0.006051
C67   C     C_3   0.569484 0.714886 0.776717 0.050810
C68   C     C_R   0.162227 0.178655 0.233596 0.030005
C69   C     C_R   0.128208 0.288715 0.160736 -0.133815
C70   C     C_R   0.221208 0.143655 0.383663 0.000972
C71   C     C_R   0.563150 0.236459 0.362483 -0.134687
C72   C     C_R   0.569752 0.253963 0.312869 0.012771
C73   C     C_R   0.580497 0.284413 0.212475 0.020322
C74   C     C_R   0.496653 0.372952 0.241395 -0.113883
C75   C     C_R   0.490270 0.357200 0.291173 -0.116058
C76   C     C_3   0.739299 0.700928 0.775837 -0.104236
C77   C     C_R   0.592443 0.300872 0.163117 -0.133941
C78   C     C_3   0.626453 0.768966 0.747777 0.247723
C79   C     C_R   0.679438 0.211794 0.135407 -0.002064
C80   C     C_R   0.733476 0.048622 0.355318 -0.098856
C81   C     C_R   0.738433 0.061826 0.305536 0.051665
C82   C     C_R   0.655436 0.164941 0.284107 0.017058
C83   C     C_R   0.822474 0.972100 0.276752 0.242834
C84   C     C_R   0.821163 0.985363 0.226354 -0.120525
C85   C     C_R   0.740720 0.088161 0.205161 -0.021057
C86   C     C_R   0.658271 0.178967 0.233879 0.048120
C87   C     C_R   0.746788 0.103594 0.155858 -0.123420
C88   C     C_1   0.698340 0.604151 0.899550 0.000852
C89   C     C_1   0.690219 0.627029 0.857068 -0.046444
C90   C     C_R   0.643058 0.132364 0.383426 -0.025746
C91   C     C_R   0.049151 0.236247 0.949741 0.543723
C92   C     C_R   0.711715 0.562415 0.948058 0.546367
C93   C     C_R   0.722391 0.225789 0.950728 0.544306
C94   C     C_R   0.048215 0.245285 0.088461 0.547155
C95   C     C_R   0.707537 0.575987 0.086033 0.547377
C96   C     C_R   0.718320 0.233974 0.089325 0.546584
C97   C     C_2   0.453031 0.779740 0.799468 0.230559
Cr1   Cr    Cr6+3 0.417550 0.169090 0.500530 1.026063
Cr2   Cr    Cr6+3 0.669180 0.913420 0.499920 1.032842
Cr3   Cr    Cr6+3 0.413260 0.917540 0.499520 1.028618
Cr4   Cr    Cr6+3 0.909170 0.177380 0.020380 1.038710
Cr5   Cr    Cr6+3 0.912710 0.429210 0.018220 1.028507
Cr6   Cr    Cr6+3 0.657170 0.432570 0.019030 1.029840
H1    H     H_    0.792191 0.734705 0.791906 0.134292
H2    H     H_    0.856900 0.612032 0.139791 0.130545
H3    H     H_    0.866119 0.556559 0.720009 0.115919
H4    H     H_    0.801572 0.706383 0.380381 0.129631
H5    H     H_    0.935544 0.635194 0.217131 0.151553
H6    H     H_    0.919550 0.658749 0.305885 0.143702
H7    H     H_    0.508247 0.680015 0.134322 0.129575
H8    H     H_    0.397919 0.716311 0.207634 0.103386
H9    H     H_    0.388156 0.724451 0.296289 0.100644
H10   H     H_    0.471440 0.727145 0.372761 0.132386
H11   H     H_    0.109985 0.049152 0.137692 0.122909
H12   H     H_    0.348749 0.079929 0.800775 0.106555
H13   H     H_    0.232724 0.978642 0.375099 0.121608
H14   H     H_    0.156457 0.931469 0.210559 0.103606
H15   H     H_    0.193552 0.909118 0.298136 0.109999
H16   H     H_    0.112695 0.366229 0.143064 0.144610
H17   H     H_    0.176907 0.417725 0.308475 0.127875
H18   H     H_    0.199478 0.313794 0.380792 0.130864
H19   H     H_    0.539461 0.384340 0.147290 0.123626
H20   H     H_    0.493464 0.301497 0.384223 0.122832
H21   H     H_    0.436327 0.454300 0.225561 0.118581
H22   H     H_    0.424002 0.426106 0.312784 0.109896
H23   H     H_    0.260022 0.267791 0.736415 0.121838
H24   H     H_    0.812322 0.033562 0.134358 0.133037
H25   H     H_    0.885137 0.916630 0.203836 0.091532
H26   H     H_    0.795421 0.968587 0.371601 0.193802
H27   H     H_    0.556155 0.583761 0.722311 0.130651
H28   H     H_    0.763418 0.455020 0.774947 0.114791
H29   H     H_    0.975662 0.245391 0.718383 0.100700
H30   H     H_    0.279475 0.961036 0.734178 0.161585
H31   H     H_    0.754199 0.922926 0.774608 0.328622
H32   H     H_    0.554898 0.925730 0.768736 0.316022
H33   H     H_    0.207206 0.425612 0.185106 0.316554
H34   H     H_    0.044979 0.364302 0.784400 0.115420
H35   H     H_    0.434135 0.848142 0.825436 0.099026
H36   H     H_    0.957475 0.819941 0.273127 0.319159
H37   H     H_    0.044242 0.014092 0.755060 0.318933
H38   H     H_    0.470034 0.325166 0.791859 0.123102
H39   H     H_    0.596903 0.369317 0.721119 0.119737
H40   H     H_    0.521107 0.120188 0.740662 0.136432
H41   H     H_    0.848503 0.041405 0.727094 0.113694
H42   H     H_    0.797198 0.246936 0.778312 0.127809
O1    O     O_R   0.301710 0.195650 0.554160 -0.507176
O2    O     O_R   0.635520 0.542770 0.964420 -0.502866
O3    O     O_R   0.665950 0.325030 0.970100 -0.498782
O4    O     O_R   0.522390 0.158990 0.550460 -0.494934
O5    O     O_R   0.816620 0.158530 0.074540 -0.521683
O6    O     O_R   0.004460 0.188870 0.069750 -0.500495
O7    O     O_R   0.025800 0.341780 0.072300 -0.522361
O8    O     O_R   0.807650 0.528950 0.067500 -0.501479
O9    O     O_R   0.633420 0.550490 0.071810 -0.520911
O10   O     O_R   0.664000 0.332180 0.069640 -0.500193
O11   O     O_3   0.826350 0.346390 0.019210 -0.248775
O12   O     O_R   0.658900 0.818120 0.449760 -0.500473
O13   O     O_R   0.694390 0.003530 0.554040 -0.502932
O14   O     O_R   0.657700 0.819660 0.549320 -0.493019
O15   O     O_R   0.501930 0.803280 0.552920 -0.505084
O16   O     O_R   0.318170 0.023580 0.549580 -0.491650
O17   O     O_R   0.303010 0.193990 0.446760 -0.522289
O18   O     O_R   0.523600 0.157450 0.450900 -0.499273
O19   O     O_R   0.695690 0.001860 0.446640 -0.522088
O20   O     O_3   0.728015 0.979784 0.801606 -0.696825
O21   O     O_3   0.575013 0.885195 0.736872 -0.713314
O22   O     O_3   0.166636 0.450931 0.216700 -0.737336
O23   O     O_R   0.503220 0.801620 0.445520 -0.524478
O24   O     O_2   0.379215 0.756103 0.788969 -0.495279
O25   O     O_3   0.904457 0.872733 0.298431 -0.734903
O26   O     O_3   0.055212 0.047406 0.785513 -0.673839
O27   O     O_R   0.319370 0.022040 0.450020 -0.501794
O28   O     O_3   0.499990 0.000010 0.499990 -0.245328
O29   O     O_R   0.818720 0.150820 0.967160 -0.493142
O30   O     O_R   0.006410 0.181720 0.970200 -0.486300
O31   O     O_R   0.027890 0.334070 0.964920 -0.509176
O32   O     O_R   0.809600 0.521790 0.967960 -0.494753

loop_
_geom_bond_atom_site_label_1
_geom_bond_atom_site_label_2
_ccdc_geom_bond_type
C76   H1    S    
C56   C78   S    
C66   C68   A    
C20   C93   S    
C63   C65   A    
C1    C21   S    
C23   C45   S    
Cr2   O14   S    
C27   C29   S    
C41   C42   A    
Cr4   O5    S    
C74   H21   S    
C35   C36   A    
C18   C26   S    
C24   C27   S    
C2    C12   T    
C52   O27   A    
C87   H24   S    
C81   C82   A    
Cr6   O2    S    
C47   C49   A    
C20   C30   T    
C85   C86   A    
C21   C31   T    
H36   O25   S    
C83   C84   A    
C71   H20   S    
C36   C37   A    
C76   C78   S    
C55   H14   S    
C38   C39   A    
C11   C14   S    
C4    O14   A    
C54   C68   A    
Cr5   O31   S    
C6    C91   S    
C29   H40   S    
C83   O25   S    
C93   O29   A    
C97   O24   D    
C93   O3    A    
C16   O1    A    
C18   C19   S    
C73   C74   A    
C61   C63   A    
C9    C13   S    
C77   H19   S    
Cr1   O17   S    
C6    C15   T    
C54   C55   A    
C52   O17   A    
C88   C92   S    
C45   C56   S    
C8    C9    S    
C7    C17   T    
C22   C25   S    
C45   C67   S    
C56   C64   S    
C1    O4    A    
Cr3   O16   S    
C59   C94   S    
C4    C12   S    
C43   C48   A    
C37   H6    S    
C85   C87   A    
C45   H27   S    
C19   H38   S    
C13   C14   S    
C92   O2    A    
Cr4   O29   S    
C61   C62   A    
C67   C78   S    
C42   C44   A    
C84   H25   S    
C72   C75   A    
C35   C48   A    
C79   C87   A    
C81   C83   A    
C44   C46   A    
Cr6   O3    S    
Cr1   O18   S    
C24   C30   S    
C77   C79   A    
C5    O26   S    
C78   O21   S    
C74   C75   A    
C23   H28   S    
C3    H29   S    
C33   C43   A    
C40   O12   A    
C18   H39   S    
C35   C38   A    
C52   C70   S    
C84   C85   A    
C3    C8    S    
C92   O32   A    
Cr1   O28   S    
C53   C57   A    
Cr1   O1    S    
Cr4   O11   S    
C46   H8    S    
C25   C26   S    
C82   C86   A    
C69   H16   S    
C33   C37   A    
C60   C61   A    
C95   O8    A    
C41   C50   A    
C5    C9    S    
C53   C62   A    
Cr3   O15   S    
Cr6   O9    S    
C75   H22   S    
C47   C48   A    
Cr2   O28   S    
C22   H42   S    
C60   C70   A    
C23   C34   S    
C96   O5    A    
C64   C76   S    
H31   O20   S    
C91   O30   A    
C88   C89   T    
Cr5   O8    S    
C32   C50   A    
C5    C14   S    
C13   H12   S    
C96   O10   A    
C27   O20   S    
C44   H9    S    
Cr6   O10   S    
C23   C64   S    
C51   C70   A    
C59   C69   A    
H37   O26   S    
Cr2   O12   S    
C22   C24   S    
Cr4   O30   S    
C25   H41   S    
C42   C43   A    
C19   C29   S    
Cr5   O11   S    
C97   H35   S    
Cr3   O27   S    
C28   O19   A    
C54   C58   A    
C46   C47   A    
C11   C17   S    
C80   H26   S    
C39   C49   A    
C18   C22   S    
C49   H7    S    
C7    C16   S    
C41   H10   S    
C80   C81   A    
C3    C5    S    
C10   C13   S    
C34   C67   S    
C64   H3    S    
C14   H30   S    
C79   C96   S    
C16   O16   A    
C25   C27   S    
C65   O22   S    
C51   H13   S    
C94   O6    A    
C62   C68   A    
Cr3   O23   S    
C95   O9    A    
C32   C33   A    
C38   H2    S    
C55   C57   A    
C19   C24   S    
C9    C15   S    
C34   C89   S    
C71   C72   A    
C2    C56   S    
C63   H17   S    
C32   H4    S    
C1    O13   A    
C4    O15   A    
C71   C90   A    
C40   C50   S    
H32   O21   S    
Cr4   O6    S    
C91   O31   A    
C39   C95   S    
C80   C90   A    
C60   H18   S    
C58   C59   A    
C73   C86   A    
C40   O23   A    
H33   O22   S    
C3    C11   S    
C10   C11   S    
C67   C97   S    
Cr2   O19   S    
C66   C69   A    
Cr6   O11   S    
C26   C31   S    
C36   H5    S    
C26   C29   S    
C8    C10   S    
C65   C66   A    
Cr2   O13   S    
Cr5   O7    S    
Cr3   O28   S    
C58   H11   S    
Cr5   O32   S    
C73   C77   A    
C8    H34   S    
C28   C90   S    
C51   C53   A    
C10   H23   S    
C94   O7    A    
C72   C82   A    
C28   O18   A    
C34   C76   S    
C57   H15   S    
Cr1   O4    S    
