data_mof_unit_37163.cif
_audit_creation_date              2012-12-10T17:55:07-0500
_audit_creation_method            fapswitch 2.2
_symmetry_space_group_name_H-M    P1
_symmetry_Int_Tables_number       1
_space_group_crystal_system       triclinic
_cell_length_a                    8.811011
_cell_length_b                    10.829366
_cell_length_c                    9.557752
_cell_angle_alpha                 89.797766
_cell_angle_beta                  97.484766
_cell_angle_gamma                 91.142146
_cell_volume                      904.027827295

loop_
_atom_site_label
_atom_site_type_symbol
_atom_type_description
_atom_site_fract_x
_atom_site_fract_y
_atom_site_fract_z
_atom_type_partial_charge
C1    C     C_R   0.499800 0.262196 0.500080 0.795200
C2    C     C_R   0.500200 0.737804 0.499920 0.795200
C3    C     C_R   0.204657 0.498217 0.464667 0.834376
C4    C     C_R   0.795343 0.501783 0.535333 0.834376
C5    C     C_2   0.040806 0.483056 0.447744 -0.257930
C6    C     C_2   0.959194 0.516944 0.552255 -0.257931
C7    C     C_R   0.496744 0.064247 0.372570 -0.158516
C8    C     C_R   0.503256 0.935753 0.627430 -0.158516
C9    C     C_R   0.496983 0.936501 0.372449 -0.165243
C10   C     C_R   0.503017 0.063499 0.627551 -0.165243
C11   C     C_R   0.500217 0.871720 0.499868 -0.021293
C12   C     C_R   0.499783 0.128280 0.500132 -0.021293
C13   C     C_R   0.402586 0.422692 0.064979 0.482068
C14   C     C_R   0.597414 0.577308 0.935021 0.482068
C15   C     C_R   0.402812 0.422757 0.914721 -0.107032
C16   C     C_R   0.597188 0.577243 0.085279 -0.107033
Cu1   Cu    Cu3+1 0.500000 0.500020 0.640660 1.021901
Cu2   Cu    Cu3+1 0.500000 0.499980 0.359340 1.021901
H1    H     H_    0.494077 0.112552 0.272863 0.172558
H2    H     H_    0.505923 0.887448 0.727137 0.172558
H3    H     H_    0.494442 0.888788 0.272730 0.160564
H4    H     H_    0.505558 0.111212 0.727270 0.160564
N1    N     N_R   0.500040 0.500030 0.852080 -0.204103
N2    N     N_R   0.499960 0.499970 0.147920 -0.204102
O1    O     O_R   0.499990 0.319660 0.618740 -0.595472
O2    O     O_R   0.500010 0.680340 0.381260 -0.595472
O3    O     O_R   0.499990 0.319630 0.381170 -0.543820
O4    O     O_R   0.500010 0.680370 0.618830 -0.543820
O5    O     O_R   0.274840 0.500010 0.591370 -0.581269
O6    O     O_R   0.725160 0.499990 0.408630 -0.581268
O7    O     O_R   0.274830 0.499980 0.353800 -0.532192
O8    O     O_R   0.725170 0.500020 0.646200 -0.532192
C17   C     C_1   0.974070 0.418364 0.320457 0.348079
N3    N     N_1   0.921558 0.366867 0.219109 -0.268668
C18   C     C_1   0.025930 0.581633 0.679543 0.348079
N4    N     N_1   0.078442 0.633130 0.780893 -0.268668
O9    O     O_3   0.306821 0.346320 0.131729 -0.694073
H5    H     H_    0.239950 0.295422 0.062646 0.306413
O10   O     O_3   0.693179 0.653680 0.868271 -0.694073
H6    H     H_    0.760050 0.704578 0.937353 0.306413
C19   C     C_1   0.300451 0.340511 0.827431 0.307219
N5    N     N_1   0.217711 0.274099 0.758454 -0.298767
C20   C     C_1   0.699550 0.659489 0.172569 0.307220
N6    N     N_1   0.782289 0.725900 0.241546 -0.298767

loop_
_geom_bond_atom_site_label_1
_geom_bond_atom_site_label_2
_ccdc_geom_bond_type
C14   N1    A    
C1    O1    A    
C20   N6    T    
O9    H5    S    
Cu2   O6    S    
Cu1   O5    S    
C19   N5    T    
C13   O9    S    
C18   N4    T    
Cu2   O2    S    
Cu1   O1    S    
C15   N1    A    
Cu1   Cu2   S    
C16   N2    A    
C4    O8    A    
C10   H4    S    
C3    O7    A    
C9    C11   A    
C16   C20   S    
C9    H3    S    
Cu1   N1    S    
C1    C12   S    
C10   C12   A    
C8    H2    S    
C8    C11   A    
Cu2   N2    S    
C2    C11   S    
C4    C6    S    
C17   N3    T    
C7    H1    S    
C13   C15   A    
C5    C6    D    
C14   C16   A    
C7    C12   A    
C1    O3    A    
C3    O5    A    
C6    C18   S    
C15   C19   S    
C2    O2    A    
O10   H6    S    
C7    C9    A    
Cu1   O8    S    
C2    O4    A    
Cu2   O7    S    
C14   O10   S    
Cu1   O4    S    
C8    C10   A    
C4    O6    A    
Cu2   O3    S    
C13   N2    A    
C3    C5    S    
C5    C17   S    
