data_mof_unit_39852.cif
_audit_creation_date              2013-03-05T16:07:32-0500
_audit_creation_method            fapswitch 2.2
_symmetry_space_group_name_H-M    P1
_symmetry_Int_Tables_number       1
_space_group_crystal_system       triclinic
_cell_length_a                    10.923313
_cell_length_b                    10.82343
_cell_length_c                    9.600971
_cell_angle_alpha                 90.043824
_cell_angle_beta                  90.784679
_cell_angle_gamma                 90.080352
_cell_volume                      1134.99293708

loop_
_atom_site_label
_atom_site_type_symbol
_atom_site_description
_atom_site_fract_x
_atom_site_fract_y
_atom_site_fract_z
_atom_type_partial_charge
O1    O     O_R   0.499990 0.319660 0.618740 -0.597086
O2    O     O_R   0.500010 0.680340 0.381260 -0.597087
O3    O     O_R   0.499990 0.319630 0.381170 -0.595332
O4    O     O_R   0.500010 0.680370 0.618830 -0.595325
C1    C     C_R   0.499959 0.262342 0.499933 0.810801
C2    C     C_R   0.500041 0.737658 0.500067 0.810814
O5    O     O_R   0.319650 0.500020 0.618780 -0.597173
O6    O     O_R   0.680350 0.499980 0.381220 -0.597174
O7    O     O_R   0.319640 0.500000 0.381210 -0.565003
O8    O     O_R   0.680360 0.500000 0.618790 -0.564991
C3    C     C_R   0.262340 0.501466 0.498667 0.822742
C4    C     C_R   0.737660 0.498533 0.501333 0.822764
Cu1   Cu    Cu3+1 0.500000 0.500020 0.640660 0.966014
Cu2   Cu    Cu3+1 0.500000 0.499980 0.359340 0.966005
H1    H     H_    0.255114 0.569408 0.869487 0.177454
H2    H     H_    0.744888 0.430583 0.130514 0.177455
C5    C     C_R   0.201025 0.655929 0.058060 -0.071033
C6    C     C_R   0.798975 0.344062 0.941939 -0.071036
H3    H     H_    0.231455 0.746460 0.025324 0.161977
H4    H     H_    0.768544 0.253531 0.974674 0.161978
C7    C     C_R   0.150506 0.640277 0.189000 -0.142961
C8    C     C_R   0.849494 0.359714 0.810998 -0.142950
H5    H     H_    0.141203 0.719538 0.257016 0.161444
H6    H     H_    0.858796 0.280454 0.742981 0.161451
C9    C     C_R   0.113134 0.522831 0.232880 -0.011368
C10   C     C_R   0.886865 0.477161 0.767119 -0.011377
C11   C     C_R   0.124231 0.419613 0.143480 0.336389
C12   C     C_R   0.875766 0.580376 0.856518 0.336419
C13   C     C_R   0.174567 0.436977 0.010371 -0.100853
C14   C     C_R   0.825435 0.563013 0.989629 -0.100854
C15   C     C_R   0.213223 0.554990 0.969393 -0.215263
C16   C     C_R   0.786779 0.445000 0.030607 -0.215264
C17   C     C_R   0.932162 0.507307 0.377348 -0.168518
C18   C     C_R   0.067838 0.492692 0.622652 -0.168542
H7    H     H_    0.881043 0.513895 0.281583 0.150856
H8    H     H_    0.118956 0.486101 0.718417 0.150861
C19   C     C_R   0.871735 0.497309 0.503836 -0.063815
C20   C     C_R   0.128264 0.502690 0.496164 -0.063816
C21   C     C_R   0.941323 0.489378 0.628425 0.069801
C22   C     C_R   0.058676 0.510620 0.371575 0.069829
C23   C     C_R   0.494218 0.063767 0.373499 -0.137264
C24   C     C_R   0.505783 0.936233 0.626501 -0.137247
H9    H     H_    0.489504 0.111596 0.274565 0.144151
H10   H     H_    0.510497 0.888404 0.725435 0.144154
C25   C     C_R   0.494221 0.935976 0.373549 -0.154268
C26   C     C_R   0.505780 0.064024 0.626451 -0.154265
H11   H     H_    0.489416 0.887939 0.274642 0.143403
H12   H     H_    0.510585 0.112061 0.725358 0.143403
C27   C     C_R   0.500023 0.871646 0.500054 -0.018286
C28   C     C_R   0.499977 0.128354 0.499946 -0.018288
C29   C     C_R   0.483556 0.393099 0.073532 -0.033476
C30   C     C_R   0.516445 0.606901 0.926468 -0.033469
H13   H     H_    0.469333 0.306725 0.126995 0.130472
H14   H     H_    0.530668 0.693275 0.873005 0.130479
C31   C     C_R   0.484428 0.393039 0.925770 -0.022241
C32   C     C_R   0.515574 0.606961 0.074230 -0.022240
H15   H     H_    0.471249 0.306533 0.871688 0.132121
H16   H     H_    0.528754 0.693467 0.128312 0.132120
N1    N     N_R   0.500030 0.500030 0.852070 -0.166028
N2    N     N_R   0.499970 0.499970 0.147930 -0.166025
N3    N     N_R   0.087342 0.298453 0.188838 0.108722
O9    O     O_R   0.118260 0.258690 0.312255 -0.356424
O10   O     O_R   0.025042 0.226066 0.105980 -0.347116
N4    N     N_R   0.912639 0.701536 0.811151 0.108726
O11   O     O_R   0.881621 0.741324 0.687779 -0.356430
O12   O     O_R   0.974981 0.773914 0.893980 -0.347122
C33   C     C_1   0.192425 0.333916 0.917367 0.293427
N5    N     N_1   0.206633 0.251371 0.842623 -0.246322
C34   C     C_1   0.807586 0.666076 0.082633 0.293415
N6    N     N_1   0.793387 0.748622 0.157379 -0.246317

loop_
_geom_bond_atom_site_label_1
_geom_bond_atom_site_label_2
_geom_bond_distance
_ccdc_geom_bond_type
C23   C28   1.401052 A    
C3    C20   1.464498 S    
C20   C22   1.411181 A    
O7    Cu2   1.984145 S    
H1    C15   1.079744 S    
Cu1   N1    2.029737 S    
C30   N1    1.369302 A    
C31   N1    1.369204 A    
C9    C11   1.414654 A    
Cu2   N2    2.029737 S    
C26   C28   1.401183 A    
C10   C12   1.414636 A    
C4    C19   1.464494 S    
C25   C27   1.401183 A    
O6    C4    1.304719 A    
N4    O11   1.301334 A    
C12   C14   1.410729 A    
C6    C16   1.392159 A    
C19   C21   1.411177 A    
C13   C33   1.443438 S    
Cu1   Cu2   2.700946 S    
C23   H9    1.082754 S    
O5    C3    1.304719 A    
O7    C3    1.297326 A    
N4    O12   1.300970 A    
O2    C2    1.298038 A    
O3    Cu2   1.963384 S    
C24   H10   1.082753 S    
O1    C1    1.298037 A    
O8    C4    1.297325 A    
O4    C2    1.298345 A    
C17   H7    1.071625 S    
C5    C15   1.392154 A    
C32   H16   1.078798 S    
C17   C19   1.394321 A    
C18   H8    1.071628 S    
C34   N6    1.157469 T    
C31   H15   1.078798 S    
C9    C22   1.471818 S    
C24   C26   1.383139 A    
N3    O9    1.301365 A    
O2    Cu2   1.963265 S    
C8    H6    1.083464 S    
C10   C21   1.471819 S    
C17   C22   1.384242 A    
O1    Cu1   1.963265 S    
C24   C27   1.401053 A    
C30   C32   1.418823 A    
C18   C21   1.384245 A    
C14   C16   1.402998 A    
C26   H12   1.082883 S    
C12   N4    1.440774 S    
C1    C28   1.450201 S    
O5    Cu1   1.978325 S    
C14   C34   1.443440 S    
C32   N2    1.369204 A    
C11   C13   1.410740 A    
C6    H4    1.082495 S    
C13   C15   1.402996 A    
C29   H13   1.078932 S    
C8    C10   1.401460 A    
C25   H11   1.082883 S    
O4    Cu1   1.963384 S    
N3    O10   1.300974 A    
C23   C25   1.383139 A    
H2    C16   1.079744 S    
C18   C20   1.394324 A    
C7    C9    1.401461 A    
C29   N2    1.369303 A    
O6    Cu2   1.978324 S    
C29   C31   1.418823 A    
C5    H3    1.082496 S    
C6    C8    1.390235 A    
C7    H5    1.083464 S    
C5    C7    1.390228 A    
C2    C27   1.450201 S    
C33   N5    1.157465 T    
C30   H14   1.078932 S    
O3    C1    1.298346 A    
O8    Cu1   1.984144 S    
C11   N3    1.440793 S    
