data_mof_unit_36718.cif
_audit_creation_date              2012-12-11T15:15:49-0500
_audit_creation_method            fapswitch 2.2
_symmetry_space_group_name_H-M    P1
_symmetry_Int_Tables_number       1
_space_group_crystal_system       monoclinic
_cell_length_a                    20.579929
_cell_length_b                    22.790422
_cell_length_c                    6.933803
_cell_angle_alpha                 90.0
_cell_angle_beta                  86.759767
_cell_angle_gamma                 90.0
_cell_volume                      3246.92968848

loop_
_atom_site_label
_atom_site_type_symbol
_atom_type_description
_atom_site_fract_x
_atom_site_fract_y
_atom_site_fract_z
_atom_type_partial_charge
O1    O     O_R   0.387100 0.552640 0.378490 -0.536258
O2    O     O_R   0.612900 0.052640 0.621510 -0.536258
O3    O     O_R   0.249610 0.559600 0.072250 -0.545331
O4    O     O_R   0.750390 0.059600 0.927750 -0.545331
O5    O     O_R   0.249120 0.447360 0.902040 -0.541285
O6    O     O_R   0.750880 0.947360 0.097960 -0.541285
C1    C     C_R   0.226565 0.573076 0.244121 0.689012
C2    C     C_R   0.773435 0.073076 0.755879 0.689012
O7    O     O_R   0.386610 0.559560 0.048860 -0.536215
O8    O     O_R   0.613390 0.059560 0.951140 -0.536215
O9    O     O_R   0.387100 0.447320 0.878470 -0.537912
O10   O     O_R   0.612900 0.947320 0.121530 -0.537912
C3    C     C_R   0.408122 0.574556 0.213659 0.693492
C4    C     C_R   0.591878 0.074556 0.786340 0.693492
O11   O     O_R   0.249120 0.552680 0.402050 -0.543677
O12   O     O_R   0.750880 0.052680 0.597950 -0.543676
O13   O     O_3   0.318110 0.463180 0.223790 -0.370561
O14   O     O_3   0.681890 0.963180 0.776210 -0.370561
V1    V     V_3+5 0.318110 0.506830 0.948930 1.416238
V2    V     V_3+5 0.681890 0.006830 0.051070 1.416238
O15   O     O_R   0.386610 0.440400 0.548840 -0.539312
O16   O     O_R   0.613390 0.940400 0.451160 -0.539312
C5    C     C_R   0.407919 0.425252 0.713912 0.709874
C6    C     C_R   0.592081 0.925252 0.286088 0.709874
O17   O     O_R   0.249610 0.440440 0.572240 -0.548015
O18   O     O_R   0.750390 0.940440 0.427760 -0.548015
C7    C     C_R   0.226485 0.427183 0.744443 0.700633
C8    C     C_R   0.773515 0.927183 0.255557 0.700633
V3    V     V_3+5 0.318110 0.493170 0.448930 1.409540
V4    V     V_3+5 0.681890 0.993170 0.551070 1.409540
O19   O     O_3   0.318110 0.536820 0.723940 -0.368324
O20   O     O_3   0.681890 0.036820 0.276060 -0.368324
C9    C     C_R   0.170009 0.387246 0.761025 -0.107891
C10   C     C_R   0.829991 0.887247 0.238975 -0.107891
C11   C     C_R   0.129556 0.380946 0.605529 -0.143504
C12   C     C_R   0.870444 0.880946 0.394471 -0.143505
C13   C     C_R   0.073791 0.345847 0.622416 0.188360
C14   C     C_R   0.926209 0.845847 0.377584 0.188360
C15   C     C_R   0.058944 0.315097 0.796513 0.113876
C16   C     C_R   0.941056 0.815097 0.203487 0.113876
C17   C     C_R   0.099336 0.321469 0.951302 -0.136758
C18   C     C_R   0.900664 0.821469 0.048698 -0.136758
C19   C     C_R   0.154242 0.357350 0.934267 -0.178887
C20   C     C_R   0.845758 0.857350 0.065733 -0.178887
C21   C     C_R   0.914792 0.165444 0.902710 -0.130100
C22   C     C_R   0.085208 0.665444 0.097290 -0.130100
C23   C     C_R   0.861027 0.128330 0.911391 -0.174234
C24   C     C_R   0.138973 0.628330 0.088609 -0.174234
C25   C     C_R   0.853179 0.137210 0.565176 -0.158559
C26   C     C_R   0.146821 0.637210 0.434824 -0.158559
C27   C     C_R   0.907033 0.174806 0.557076 -0.148857
C28   C     C_R   0.092967 0.674806 0.442924 -0.148857
C29   C     C_R   0.937082 0.190289 0.726528 0.158695
C30   C     C_R   0.062918 0.690288 0.273472 0.158696
C31   C     C_2   0.000276 0.278243 0.824457 0.170172
C32   C     C_2   0.999724 0.778242 0.175543 0.170172
C33   C     C_2   0.994080 0.229685 0.714595 -0.273150
C34   C     C_2   0.005920 0.729685 0.285405 -0.273150
C35   C     C_R   0.829343 0.113912 0.743066 -0.051318
C36   C     C_R   0.170657 0.613912 0.256934 -0.051318
H1    H     H_    0.140044 0.404796 0.472155 0.143201
H2    H     H_    0.859955 0.904796 0.527845 0.143202
H3    H     H_    0.845201 0.109969 0.050245 0.126087
H4    H     H_    0.154799 0.609969 0.949754 0.126087
H5    H     H_    0.830231 0.126583 0.432855 0.123948
H6    H     H_    0.169768 0.626583 0.567145 0.123948
H7    H     H_    0.031836 0.219642 0.603603 0.114255
H8    H     H_    0.968163 0.719642 0.396396 0.114255
H9    H     H_    0.088280 0.298488 0.085843 0.133937
H10   H     H_    0.911720 0.798488 0.914157 0.133937
H11   H     H_    0.939853 0.173221 0.033143 0.104131
H12   H     H_    0.060147 0.673221 0.966857 0.104131
H13   H     H_    0.184382 0.361625 0.056619 0.135030
H14   H     H_    0.815618 0.861626 0.943381 0.135030
H15   H     H_    0.924590 0.192691 0.419021 0.098636
H16   H     H_    0.075410 0.692691 0.580979 0.098636
C37   C     C_R   0.577217 0.362561 0.677937 0.000489
C38   C     C_R   0.422783 0.862561 0.322063 0.000489
H17   H     H_    0.533749 0.448409 0.691558 0.122685
H18   H     H_    0.466250 0.948409 0.308442 0.122685
C39   C     C_R   0.461100 0.381394 0.712539 -0.095618
C40   C     C_R   0.538900 0.881394 0.287461 -0.095619
C41   C     C_R   0.477401 0.097672 0.872140 -0.159388
C42   C     C_R   0.522599 0.597672 0.127860 -0.159388
C43   C     C_R   0.426906 0.136924 0.912521 -0.142758
C44   C     C_R   0.573094 0.636924 0.087479 -0.142758
C45   C     C_R   0.434801 0.196370 0.871016 -0.111086
C46   C     C_R   0.565199 0.696370 0.128984 -0.111086
C47   C     C_R   0.492806 0.218241 0.777625 0.100337
C48   C     C_R   0.507194 0.718241 0.222375 0.100337
C49   C     C_R   0.545613 0.177980 0.746246 0.039936
C50   C     C_R   0.454387 0.677980 0.253754 0.039936
C51   C     C_R   0.501644 0.279462 0.730415 0.048991
C52   C     C_R   0.498355 0.779462 0.269585 0.048991
C53   C     C_R   0.566300 0.300569 0.684195 -0.001568
C54   C     C_R   0.433700 0.800569 0.315805 -0.001568
C55   C     C_R   0.617136 0.258878 0.644646 -0.019668
C56   C     C_R   0.382864 0.758878 0.355354 -0.019668
C57   C     C_R   0.605974 0.199120 0.675306 -0.238315
C58   C     C_R   0.394026 0.699120 0.324694 -0.238315
C59   C     C_R   0.448693 0.320449 0.723974 0.135929
C60   C     C_R   0.551307 0.820449 0.276026 0.135930
C61   C     C_R   0.524787 0.401466 0.694898 -0.246619
C62   C     C_R   0.475213 0.901466 0.305103 -0.246619
C63   C     C_R   0.537384 0.117290 0.792338 -0.080227
C64   C     C_R   0.462616 0.617290 0.207662 -0.080227
H19   H     H_    0.470601 0.051961 0.911552 0.108262
H20   H     H_    0.529399 0.551961 0.088447 0.108262
H21   H     H_    0.396039 0.224572 0.925319 0.153113
H22   H     H_    0.603961 0.724572 0.074681 0.153113
H23   H     H_    0.381859 0.121459 0.983192 0.124669
H24   H     H_    0.618141 0.621459 0.016807 0.124669
H25   H     H_    0.645796 0.168845 0.643553 0.122052
H26   H     H_    0.354204 0.668845 0.356447 0.122052
C65   C     C_R   0.681195 0.273981 0.550220 0.119881
C66   C     C_R   0.686400 0.288081 0.352730 -0.123906
C67   C     C_R   0.747304 0.300511 0.262134 -0.132678
C68   C     C_R   0.803060 0.299248 0.367954 -0.098756
C69   C     C_R   0.798185 0.284504 0.563727 -0.089740
C70   C     C_R   0.737716 0.270608 0.653937 -0.123077
H27   H     H_    0.643424 0.289404 0.269564 0.106424
H28   H     H_    0.751387 0.311227 0.110163 0.105136
H29   H     H_    0.850059 0.309462 0.298219 0.117576
H30   H     H_    0.841342 0.283588 0.645191 0.112505
H31   H     H_    0.734668 0.258273 0.804945 0.100635
C71   C     C_R   0.318805 0.773981 0.449780 0.119881
C72   C     C_R   0.313600 0.788081 0.647270 -0.123907
C73   C     C_R   0.252696 0.800511 0.737866 -0.132677
C74   C     C_R   0.196940 0.799248 0.632046 -0.098756
C75   C     C_R   0.201815 0.784504 0.436273 -0.089739
C76   C     C_R   0.262284 0.770608 0.346063 -0.123077
H32   H     H_    0.356576 0.789404 0.730436 0.106424
H33   H     H_    0.248612 0.811226 0.889837 0.105136
H34   H     H_    0.149941 0.809462 0.701781 0.117576
H35   H     H_    0.158658 0.783588 0.354809 0.112505
H36   H     H_    0.265332 0.758273 0.195055 0.100635
C77   C     C_R   0.642422 0.389801 0.675304 0.120093
C78   C     C_R   0.678089 0.388767 0.841937 -0.136944
C79   C     C_R   0.739172 0.415679 0.841275 -0.129569
C80   C     C_R   0.764636 0.444083 0.674996 -0.083400
C81   C     C_R   0.728678 0.446355 0.509992 -0.104726
C82   C     C_R   0.667372 0.419907 0.510589 -0.120734
H37   H     H_    0.658564 0.367060 0.971507 0.100661
H38   H     H_    0.766771 0.414534 0.969544 0.110451
H39   H     H_    0.812064 0.464614 0.674368 0.107931
H40   H     H_    0.748274 0.468637 0.381688 0.106023
H41   H     H_    0.639827 0.421976 0.382167 0.103364
C83   C     C_R   0.357578 0.889801 0.324696 0.120093
C84   C     C_R   0.321911 0.888767 0.158063 -0.136944
C85   C     C_R   0.260828 0.915679 0.158725 -0.129568
C86   C     C_R   0.235364 0.944083 0.325004 -0.083401
C87   C     C_R   0.271322 0.946355 0.490008 -0.104726
C88   C     C_R   0.332628 0.919907 0.489411 -0.120733
H42   H     H_    0.341436 0.867060 0.028493 0.100661
H43   H     H_    0.233229 0.914534 0.030455 0.110451
H44   H     H_    0.187935 0.964614 0.325632 0.107931
H45   H     H_    0.251725 0.968637 0.618312 0.106023
H46   H     H_    0.360173 0.921976 0.617833 0.103364
N1    N     N_3   0.383139 0.300420 0.707188 -0.696037
H47   H     H_    0.353626 0.319094 0.818639 0.209458
H48   H     H_    0.366816 0.315117 0.575501 0.232659
N2    N     N_3   0.616861 0.800420 0.292812 -0.696037
H49   H     H_    0.646374 0.819094 0.181361 0.209458
H50   H     H_    0.633184 0.815117 0.424499 0.232659
N3    N     N_3   0.951735 0.296169 0.969843 -0.662403
H51   H     H_    0.952670 0.267897 0.087964 0.215950
H52   H     H_    0.905764 0.294987 0.913418 0.228575
N4    N     N_3   0.048265 0.796169 0.030157 -0.662403
H53   H     H_    0.047330 0.767897 0.912036 0.215950
H54   H     H_    0.094236 0.794987 0.086582 0.228575
N5    N     N_3   0.031490 0.344790 0.465113 -0.672220
H55   H     H_    0.984666 0.356650 0.517336 0.241121
H56   H     H_    0.029815 0.302206 0.410355 0.215560
N6    N     N_3   0.968510 0.844790 0.534887 -0.672220
H57   H     H_    0.015334 0.856650 0.482664 0.241121
H58   H     H_    0.970185 0.802206 0.589645 0.215559

loop_
_geom_bond_atom_site_label_1
_geom_bond_atom_site_label_2
_ccdc_geom_bond_type
C19   H13   S    
V4    O20   S    
C77   C82   A    
N3    H51   S    
C37   C77   S    
C48   C52   A    
C21   H11   S    
C67   C68   A    
O13   V3    S    
C49   C63   A    
C75   H35   S    
C67   H28   S    
O4    C2    A    
V1    O19   S    
C73   C74   A    
C84   C85   A    
C15   C17   A    
C39   C59   A    
C69   H30   S    
C7    C9    S    
N5    H56   S    
O9    V1    S    
C71   C72   A    
C25   H5    S    
O10   V2    S    
H18   C62   S    
C41   H19   S    
C11   C13   A    
C42   C44   A    
N2    H49   S    
O3    C1    A    
C78   H37   S    
C2    C35   S    
C23   H3    S    
N6    H57   S    
C44   C46   A    
N4    H54   S    
C24   H4    S    
O12   V4    S    
C65   C66   A    
C18   H10   S    
C66   C67   A    
C88   H46   S    
O7    C3    A    
C68   C69   A    
C6    C40   S    
O13   V1    S    
O5    C7    A    
C38   C54   A    
O7    V1    S    
C4    C63   S    
C15   C31   S    
O8    V2    S    
C16   C32   S    
C54   C56   A    
C26   C28   A    
C86   C87   A    
N1    H48   S    
O3    V1    S    
O14   V4    S    
C55   C65   S    
C5    C39   S    
C22   H12   S    
C38   C83   S    
C24   C36   A    
C46   H22   S    
C16   C18   A    
C8    C10   S    
N3    H52   S    
C17   C19   A    
H17   C61   S    
C18   C20   A    
C33   H7    S    
V2    O20   S    
C12   H2    S    
C55   C57   A    
C28   C30   A    
O11   V3    S    
N2    H50   S    
C42   C64   A    
C21   C23   A    
O15   C5    A    
O17   V3    S    
C13   C15   A    
O6    C8    A    
C23   C35   A    
C66   H27   S    
C43   C45   A    
C38   C62   A    
C9    C19   A    
C20   H14   S    
C10   C20   A    
C83   C84   A    
C76   H36   S    
O8    C4    A    
C51   C59   A    
C29   C33   S    
C70   H31   S    
C1    O11   A    
C25   C27   A    
O15   V3    S    
C37   C53   A    
C41   C63   A    
C27   C29   A    
C44   H24   S    
C84   H42   S    
C13   N5    S    
C26   H6    S    
C79   H38   S    
C48   C50   A    
N1    H47   S    
C60   N2    S    
C22   C30   A    
O1    V3    S    
C40   C60   A    
C58   H26   S    
C11   H1    S    
C86   H44   S    
C80   C81   A    
C69   C70   A    
C52   C54   A    
C72   H32   S    
N5    H55   S    
C52   C60   A    
C81   H40   S    
C45   H21   S    
C34   H8    S    
N4    H53   S    
C41   C43   A    
C46   C48   A    
O18   V4    S    
C56   C58   A    
C85   H43   S    
C31   C33   D    
C28   H16   S    
C30   C34   S    
O16   C6    A    
C37   C61   A    
C47   C49   A    
C83   C88   A    
C31   N3    S    
C72   C73   A    
C1    C36   S    
C50   C58   A    
C17   H9    S    
C74   C75   A    
C39   C61   A    
C50   C64   A    
C87   H45   S    
O16   V4    S    
C82   H41   S    
C27   H15   S    
C3    C64   S    
C43   H23   S    
C80   H39   S    
C57   H25   S    
C79   C80   A    
C53   C55   A    
O5    V1    S    
O17   C7    A    
O6    V2    S    
C77   C78   A    
O10   C6    A    
O18   C8    A    
C25   C35   A    
O2    V4    S    
C26   C36   A    
C45   C47   A    
C75   C76   A    
V3    O19   S    
C81   C82   A    
C12   C14   A    
C14   C16   A    
C9    C11   A    
C51   C53   A    
C71   C76   A    
O9    C5    A    
C42   H20   S    
C10   C12   A    
C32   C34   D    
O14   V2    S    
C68   H29   S    
C47   C51   A    
O2    C4    A    
N6    H58   S    
C14   N6    S    
C78   C79   A    
C21   C29   A    
C74   H34   S    
O4    V2    S    
C22   C24   A    
C56   C71   S    
O1    C3    A    
C87   C88   A    
C59   N1    S    
C2    O12   A    
C65   C70   A    
C32   N4    S    
C40   C62   A    
C85   C86   A    
C49   C57   A    
C73   H33   S    
