data_mof_unit_14293.cif
_audit_creation_date              2012-12-11T15:20:36-0500
_audit_creation_method            fapswitch 2.2
_symmetry_space_group_name_H-M    P1
_symmetry_Int_Tables_number       1
_space_group_crystal_system       triclinic
_cell_length_a                    21.581309
_cell_length_b                    7.249988
_cell_length_c                    19.907887
_cell_angle_alpha                 89.996818
_cell_angle_beta                  87.707158
_cell_angle_gamma                 89.997248
_cell_volume                      3112.37846411

loop_
_atom_site_label
_atom_site_type_symbol
_atom_type_description
_atom_site_fract_x
_atom_site_fract_y
_atom_site_fract_z
_atom_type_partial_charge
O1    O     O_R   0.688010 0.379840 0.189360 -0.543498
O2    O     O_R   0.311990 0.620160 0.810640 -0.538736
O3    O     O_R   0.811990 0.879840 0.310640 -0.543583
O4    O     O_R   0.188010 0.120160 0.689360 -0.538649
O5    O     O_R   0.808630 0.708850 0.184280 -0.518373
O6    O     O_R   0.191370 0.291150 0.815720 -0.523750
O7    O     O_R   0.691370 0.208850 0.315720 -0.518411
O8    O     O_R   0.308630 0.791150 0.684280 -0.523802
C1    C     C_R   0.830669 0.541106 0.166972 0.705434
C2    C     C_R   0.169639 0.459028 0.833389 0.722381
C3    C     C_R   0.669335 0.041105 0.333033 0.705682
C4    C     C_R   0.330360 0.959029 0.666610 0.722448
O9    O     O_R   0.688260 0.709510 0.181570 -0.517852
O10   O     O_R   0.311740 0.290490 0.818430 -0.530195
O11   O     O_R   0.811740 0.209510 0.318430 -0.518103
O12   O     O_R   0.188260 0.790490 0.681570 -0.530372
O13   O     O_R   0.690760 0.880550 0.307920 -0.527075
O14   O     O_R   0.309240 0.119450 0.692080 -0.521677
O15   O     O_R   0.809240 0.380550 0.192080 -0.527007
O16   O     O_R   0.190760 0.619450 0.807920 -0.521686
C5    C     C_R   0.668803 0.540907 0.165568 0.740282
C6    C     C_R   0.330910 0.459080 0.834894 0.753650
C7    C     C_R   0.831195 0.040892 0.334434 0.740443
C8    C     C_R   0.169090 0.959089 0.665108 0.753617
O17   O     O_3   0.750960 0.546580 0.291460 -0.369411
O18   O     O_3   0.249040 0.453420 0.708540 -0.380771
O19   O     O_3   0.749040 0.046580 0.208540 -0.369189
O20   O     O_3   0.250960 0.953420 0.791460 -0.380836
V1    V     V_3+5 0.749820 0.821150 0.242310 1.448125
V2    V     V_3+5 0.250180 0.178850 0.757690 1.395684
V3    V     V_3+5 0.750180 0.321150 0.257690 1.447796
V4    V     V_3+5 0.249820 0.678850 0.742310 1.395396
C9    C     C_R   0.064247 0.058089 0.632757 -0.232198
C10   C     C_R   0.939286 0.965582 0.363071 -0.229908
C11   C     C_R   0.435642 0.558785 0.867351 -0.232214
C12   C     C_R   0.560818 0.464672 0.136841 -0.229753
C13   C     C_R   0.120253 0.969365 0.614849 -0.163501
C14   C     C_R   0.880552 0.031417 0.383879 -0.171368
C15   C     C_R   0.379744 0.469347 0.885160 -0.163517
C16   C     C_R   0.619447 0.531463 0.116120 -0.171308
C17   C     C_R   0.129527 0.894757 0.549558 0.393043
C18   C     C_R   0.869121 0.084746 0.451459 0.417730
C19   C     C_R   0.370555 0.394130 0.950374 0.393147
C20   C     C_R   0.630770 0.585879 0.048636 0.417955
C21   C     C_R   0.083402 0.922867 0.501121 -0.066879
C22   C     C_R   0.918776 0.087564 0.496271 -0.054793
C23   C     C_R   0.416676 0.422167 0.998824 -0.066882
C24   C     C_R   0.581104 0.588538 0.003835 -0.054804
C25   C     C_R   0.025685 0.002530 0.521322 -0.050943
C26   C     C_R   0.977314 0.015344 0.475234 -0.055274
C27   C     C_R   0.474300 0.502540 0.978699 -0.050829
C28   C     C_R   0.522676 0.515369 0.024781 -0.055237
C29   C     C_R   0.016321 0.070800 0.587331 0.004867
C30   C     C_R   0.987531 0.955300 0.408257 0.004565
C31   C     C_R   0.483556 0.571586 0.912783 0.004832
C32   C     C_R   0.512563 0.454471 0.091671 0.004530
C33   C     C_R   0.093725 0.876440 0.432848 -0.255427
C34   C     C_R   0.911333 0.161327 0.561462 -0.254590
C35   C     C_R   0.406431 0.375061 0.067047 -0.255351
C36   C     C_R   0.588414 0.663154 0.938760 -0.254396
C37   C     C_R   0.046376 0.890064 0.387262 0.632164
C38   C     C_R   0.959360 0.153136 0.606451 0.622138
C39   C     C_R   0.453798 0.388540 0.112613 0.632171
C40   C     C_R   0.540393 0.654817 0.893767 0.622046
H1    H     H_    0.057737 0.113889 0.683078 0.186009
H2    H     H_    0.947179 0.922607 0.311267 0.185824
H3    H     H_    0.442075 0.615122 0.817100 0.186087
H4    H     H_    0.553004 0.420973 0.188576 0.185899
H5    H     H_    0.138600 0.830067 0.413787 0.175388
H6    H     H_    0.868127 0.225862 0.578045 0.179442
H7    H     H_    0.361607 0.328283 0.086099 0.175244
H8    H     H_    0.631506 0.728491 0.922267 0.179446
C41   C     C_1   0.382542 0.969072 0.614414 -0.183580
C42   C     C_1   0.617141 0.031105 0.385235 -0.187242
C43   C     C_1   0.117455 0.469070 0.885583 -0.183630
C44   C     C_1   0.882858 0.531101 0.114765 -0.186870
C45   C     C_1   0.426137 0.979838 0.571619 0.022639
C46   C     C_1   0.573616 0.020238 0.428102 0.019439
C47   C     C_1   0.073859 0.479834 0.928377 0.022669
C48   C     C_1   0.926380 0.520231 0.071895 0.019225
C49   C     C_1   0.478016 0.993909 0.521152 0.020757
C50   C     C_1   0.521796 0.006077 0.478628 0.017504
C51   C     C_1   0.021979 0.493902 0.978843 0.020831
C52   C     C_1   0.978199 0.506069 0.021367 0.017371
O21   O     O_3   0.186462 0.813876 0.532715 -0.578063
C53   C     C_3   0.179639 0.627983 0.511752 0.034063
H9    H     H_    0.202361 0.614602 0.460904 0.160913
H10   H     H_    0.130607 0.580613 0.508352 0.114491
C54   C     C_3   0.212205 0.498872 0.559508 -0.259168
H11   H     H_    0.258130 0.556773 0.571632 0.215029
H12   H     H_    0.183061 0.485757 0.606469 0.210670
C55   C     C_3   0.221578 0.307735 0.528636 -0.777435
H13   H     H_    0.176351 0.249242 0.514672 0.233694
H14   H     H_    0.242972 0.214698 0.565424 0.238939
H15   H     H_    0.252859 0.315818 0.483062 0.235503
O22   O     O_3   0.809362 0.135045 0.472362 -0.578477
C56   C     C_3   0.781919 0.994780 0.513606 0.023777
H16   H     H_    0.739785 0.054770 0.538973 0.164521
H17   H     H_    0.812284 0.949321 0.554309 0.133467
C57   C     C_3   0.762487 0.826480 0.472626 -0.327063
H18   H     H_    0.732998 0.872218 0.431637 0.197165
H19   H     H_    0.804194 0.756719 0.450114 0.197651
C58   C     C_3   0.726361 0.687421 0.516363 -0.759157
H20   H     H_    0.755268 0.637667 0.557614 0.238623
H21   H     H_    0.713393 0.567376 0.485239 0.240247
H22   H     H_    0.683298 0.751348 0.538175 0.229966
O23   O     O_3   0.313671 0.312854 0.967152 -0.577996
C59   C     C_3   0.320596 0.126931 0.988036 0.034109
H23   H     H_    0.298015 0.113387 0.038945 0.160866
H24   H     H_    0.369653 0.079632 0.991241 0.114444
C60   C     C_3   0.287906 0.997891 0.940371 -0.258808
H25   H     H_    0.241986 0.055951 0.928308 0.215093
H26   H     H_    0.316986 0.984606 0.893371 0.210624
C61   C     C_3   0.278489 0.806845 0.971312 -0.777472
H27   H     H_    0.323716 0.748221 0.985229 0.233673
H28   H     H_    0.257003 0.713823 0.934586 0.238817
H29   H     H_    0.247268 0.815129 0.016936 0.235493
O24   O     O_3   0.690422 0.637525 0.027841 -0.578283
C62   C     C_3   0.718197 0.498322 0.986369 0.024058
H30   H     H_    0.760373 0.559196 0.961403 0.164680
H31   H     H_    0.688072 0.453528 0.945371 0.133370
C63   C     C_3   0.737603 0.329268 0.026973 -0.327924
H32   H     H_    0.766513 0.374378 0.068514 0.197270
H33   H     H_    0.695858 0.258094 0.048698 0.197567
C64   C     C_3   0.774524 0.192207 0.983175 -0.759637
H34   H     H_    0.746266 0.143399 0.941277 0.238718
H35   H     H_    0.787342 0.071371 0.013975 0.240104
H36   H     H_    0.817687 0.257491 0.962286 0.230100
F1    F     F_    0.058316 0.838822 0.322412 -0.675914
F2    F     F_    0.949694 0.224176 0.669117 -0.683358
F3    F     F_    0.441941 0.336558 0.177401 -0.675968
F4    F     F_    0.549939 0.726665 0.831206 -0.683414

loop_
_geom_bond_atom_site_label_1
_geom_bond_atom_site_label_2
_ccdc_geom_bond_type
C34   C38   A    
O1    C5    A    
O19   V1    S    
O13   V1    S    
C38   F2    S    
O3    C7    A    
C60   H25   S    
C48   C52   S    
O15   V3    S    
C10   H2    S    
C56   H16   S    
C9    H1    S    
O21   C53   S    
O7    C3    A    
C21   C33   A    
C26   C30   A    
C18   O22   S    
O9    V1    S    
C49   C50   T    
C14   C18   A    
C18   C22   A    
O4    C8    A    
C53   H10   S    
C36   H8    S    
O1    V3    S    
C59   H23   S    
O2    V4    S    
C29   C38   A    
C33   C37   A    
O3    V1    S    
O24   C62   S    
C55   H13   S    
C1    O15   A    
C23   C27   A    
C40   F4    S    
C2    O16   A    
O2    C6    A    
C64   H36   S    
O23   C59   S    
O14   V2    S    
C1    C44   S    
C21   C25   A    
C54   H12   S    
C16   C20   A    
C37   F1    S    
O11   C7    A    
O12   C8    A    
C4    C41   S    
O22   C56   S    
O10   V2    S    
C57   H19   S    
C56   H17   S    
C24   C36   A    
O5    V1    S    
C62   H31   S    
C9    C29   A    
O7    V3    S    
C11   C31   A    
C27   C28   A    
O8    V4    S    
C12   C16   A    
C58   H21   S    
C53   H9    S    
C34   H6    S    
C15   C19   A    
C53   C54   S    
C57   C58   S    
C9    C13   A    
C58   H22   S    
C11   C15   A    
O5    C1    A    
C12   C32   A    
C2    C43   S    
C46   C50   S    
C51   C52   T    
C20   O24   S    
O8    C4    A    
C31   C40   A    
C55   H14   S    
C8    C13   S    
C32   C39   A    
O9    C5    A    
C60   H26   S    
C19   O23   S    
C54   C55   S    
O11   V3    S    
O6    V2    S    
C10   C30   A    
C39   F3    S    
C64   H34   S    
C25   C26   A    
C63   H33   S    
C56   C57   S    
O16   V4    S    
C62   C63   S    
C3    O13   A    
C17   C21   A    
C10   C14   A    
O17   V3    S    
C44   C48   T    
C3    C42   S    
O6    C2    A    
C61   H28   S    
C62   H30   S    
C12   H4    S    
C61   H27   S    
O18   V4    S    
C30   C37   A    
O12   V4    S    
C7    C14   S    
C17   O21   S    
C22   C26   A    
C35   C39   A    
C59   C60   S    
C36   C40   A    
O10   C6    A    
C63   C64   S    
O20   V2    S    
C63   H32   S    
C47   C51   S    
C5    C16   S    
C19   C23   A    
C25   C29   A    
C6    C15   S    
C57   H18   S    
C59   H24   S    
C60   C61   S    
C27   C31   A    
C55   H15   S    
C13   C17   A    
O4    V2    S    
C61   H29   S    
C11   H3    S    
C23   C35   A    
C28   C32   A    
C24   C28   A    
C45   C49   S    
C42   C46   T    
C4    O14   A    
C58   H20   S    
C64   H35   S    
C41   C45   T    
C33   H5    S    
C54   H11   S    
C43   C47   T    
C22   C34   A    
C20   C24   A    
C35   H7    S    
