data_mof_unit_40503.cif
_audit_creation_date              2013-03-05T16:06:47-0500
_audit_creation_method            fapswitch 2.2
_symmetry_space_group_name_H-M    P1
_symmetry_Int_Tables_number       1
_space_group_crystal_system       triclinic
_cell_length_a                    6.936242
_cell_length_b                    14.575282
_cell_length_c                    16.15865
_cell_angle_alpha                 90.49015
_cell_angle_beta                  89.98669
_cell_angle_gamma                 89.931437
_cell_volume                      1633.54108458

loop_
_atom_site_label
_atom_site_type_symbol
_atom_site_description
_atom_site_fract_x
_atom_site_fract_y
_atom_site_fract_z
_atom_type_partial_charge
O1    O     O_R   0.505830 0.583360 0.413880 -0.583816
O2    O     O_R   0.175830 0.595460 0.585520 -0.577255
O3    O     O_R   0.005520 0.416640 0.586120 -0.603883
C1    C     C_R   0.344409 0.617420 0.614510 0.961857
O4    O     O_R   0.176120 0.594390 0.414490 -0.607036
O5    O     O_R   0.005810 0.415570 0.413870 -0.579704
C2    C     C_R   0.345412 0.617232 0.386591 1.011761
O6    O     O_R   0.505540 0.584430 0.586130 -0.606369
O7    O     O_3   0.339200 0.441330 0.500000 -0.241473
V1    V     V_3+5 0.064350 0.510880 0.500000 1.218991
O8    O     O_R   0.676100 0.404540 0.414480 -0.585445
C3    C     C_R   0.845916 0.379734 0.387954 1.004350
O9    O     O_R   0.675810 0.405610 0.585510 -0.604164
C4    C     C_R   0.845260 0.383421 0.613472 1.047419
V2    V     V_3+5 0.564340 0.489120 0.500000 1.220517
O10   O     O_3   0.839360 0.558670 0.500000 -0.264365
C5    C     C_2   0.712656 0.210436 0.786022 0.690627
C6    C     C_2   0.878923 0.185236 0.824481 -0.652953
H1    H     H_    0.013442 0.218654 0.809022 0.148497
C7    C     C_2   0.709434 0.286710 0.723933 -0.271464
C8    C     C_2   0.860746 0.311840 0.677374 -0.477876
H2    H     H_    0.573126 0.321792 0.714653 0.160028
H3    H     H_    0.999559 0.278623 0.684546 0.161755
C9    C     C_R   0.755083 0.256348 0.184231 0.083171
C10   C     C_R   0.883798 0.182708 0.185142 -0.223222
C11   C     C_R   0.012042 0.177015 0.252290 -0.305422
H4    H     H_    0.115388 0.121243 0.254246 0.159975
C12   C     C_R   0.999047 0.238216 0.320575 0.376462
C13   C     C_R   0.860362 0.310631 0.320152 -0.444274
C14   C     C_R   0.745212 0.319328 0.249223 0.063396
C15   C     C_3   0.531048 0.327299 0.241052 0.492465
C16   C     C_3   0.542948 0.258093 0.169955 -0.577800
H5    H     H_    0.454624 0.302471 0.297115 0.097974
H6    H     H_    0.505685 0.287017 0.108545 0.218860
H7    H     H_    0.472408 0.191639 0.184382 0.180110
C17   C     C_R   0.500626 0.751556 0.687612 0.060413
C18   C     C_R   0.351621 0.687140 0.681899 -0.181465
C19   C     C_R   0.204365 0.693007 0.741937 -0.092221
H8    H     H_    0.084077 0.645919 0.739600 0.094271
C20   C     C_R   0.217363 0.755648 0.808870 -0.074497
H9    H     H_    0.105859 0.755410 0.855703 0.108797
C21   C     C_R   0.378384 0.813946 0.818028 -0.212080
C22   C     C_R   0.513567 0.813599 0.753423 -0.098662
C23   C     C_3   0.730929 0.806739 0.754418 0.348732
C24   C     C_3   0.714000 0.739856 0.680830 0.108849
H10   H     H_    0.782987 0.772575 0.811378 0.027453
H11   H     H_    0.763272 0.668903 0.693985 0.008983
C25   C     C_R   0.531453 0.708823 0.282204 0.210935
C26   C     C_R   0.358205 0.690404 0.323367 -0.264828
C27   C     C_R   0.199483 0.747224 0.305144 -0.339662
H12   H     H_    0.065662 0.737364 0.338234 0.175696
C28   C     C_R   0.209456 0.814471 0.241781 0.606911
C29   C     C_R   0.378717 0.820908 0.192105 -0.397920
C30   C     C_R   0.540557 0.771344 0.217927 0.150568
C31   C     C_3   0.676571 0.712691 0.169227 -0.451598
C32   C     C_3   0.668633 0.644786 0.239981 -0.487899
H13   H     H_    0.820301 0.744837 0.161751 0.238448
H14   H     H_    0.611227 0.685944 0.111001 0.179356
H15   H     H_    0.807253 0.638620 0.273947 0.195931
H16   H     H_    0.600802 0.578692 0.222299 0.240947
O11   O     O_R   0.229930 0.912420 0.917160 -0.585098
O12   O     O_R   0.559420 0.902500 0.088780 -0.595461
O13   O     O_R   0.729660 0.081330 0.089380 -0.598851
C33   C     C_R   0.390242 0.882318 0.118912 0.981800
O14   O     O_R   0.559650 0.901420 0.917750 -0.604683
O15   O     O_R   0.729880 0.080250 0.917130 -0.548181
C34   C     C_R   0.390842 0.879502 0.888689 0.932960
O16   O     O_R   0.229700 0.913500 0.089410 -0.553204
O17   O     O_3   0.396250 0.055540 0.003280 -0.264981
V3    V     V_3+5 0.671130 0.986010 0.003260 1.196272
O18   O     O_R   0.059600 0.091310 0.917720 -0.596428
C35   C     C_R   0.889830 0.113972 0.889767 1.066690
O19   O     O_R   0.059370 0.092380 0.088750 -0.602510
C36   C     C_R   0.890646 0.114247 0.117419 0.983867
V4    V     V_3+5 0.171120 0.007820 0.003230 1.202562
O20   O     O_3   0.896130 0.938240 0.003240 -0.274390
O21   O     O_3   0.539802 0.171112 0.811874 -0.603907
C37   C     C_3   0.414129 0.154202 0.744708 -0.234585
H17   H     H_    0.491131 0.128240 0.688697 0.132180
H18   H     H_    0.330153 0.216794 0.729944 0.139861
H19   H     H_    0.309707 0.100514 0.763160 0.176955
O22   O     O_3   0.843874 0.885831 0.735849 -0.572413
C38   C     C_3   0.734129 0.964526 0.717313 -0.055766
H20   H     H_    0.644224 0.985617 0.771019 0.129115
H21   H     H_    0.643815 0.953155 0.661341 0.152572
H22   H     H_    0.834327 0.021708 0.703783 0.137211
N1    N     N_R   0.790962 0.775760 0.603013 0.282337
O23   O     O_R   0.678407 0.790487 0.540010 -0.400909
O24   O     O_R   0.976272 0.784150 0.593631 -0.349490
O25   O     O_3   0.049484 0.867387 0.222177 -0.631533
C39   C     C_3   0.979506 0.914437 0.292760 -0.167292
H23   H     H_    0.886176 0.971571 0.271828 0.157986
H24   H     H_    0.097829 0.945122 0.330524 0.161733
H25   H     H_    0.888242 0.868749 0.330972 0.160116
N2    N     N_R   0.108856 0.217465 0.393321 0.219347
O26   O     O_R   0.237716 0.274592 0.420918 -0.404890
O27   O     O_R   0.107075 0.134368 0.422094 -0.411764
O28   O     O_3   0.479576 0.415745 0.213895 -0.622749
C40   C     C_3   0.278297 0.426746 0.220155 -0.267746
H26   H     H_    0.232432 0.426863 0.286017 0.168768
H27   H     H_    0.199927 0.372716 0.184481 0.154519
H28   H     H_    0.238460 0.494277 0.193925 0.162827

loop_
_geom_bond_atom_site_label_1
_geom_bond_atom_site_label_2
_geom_bond_distance
_ccdc_geom_bond_type
C19   C20   1.412383 A    
C31   C32   1.519600 S    
C3    C13   1.485133 S    
O19   C36   1.296972 A    
C28   O25   1.388782 S    
N2    O26   1.298717 A    
C1    O6    1.298207 A    
O15   V3    2.005868 S    
C29   C30   1.399839 A    
O11   V4    1.999849 S    
O16   V4    2.006463 S    
C25   C30   1.389027 A    
C11   H4    1.083833 S    
C13   C14   1.403662 A    
C12   N2    1.435022 S    
C33   O16   1.294822 A    
C4    C8    1.477992 S    
C12   C13   1.427271 A    
C24   N1    1.466816 S    
C6    H1    1.083190 S    
C23   O22   1.428515 S    
O5    C3    1.294629 A    
C19   H8    1.081450 S    
C29   C33   1.491495 S    
C37   H18   1.109507 S    
O14   V3    2.000205 S    
O28   C40   1.408617 S    
C5    C7    1.503992 S    
O12   V3    2.005510 S    
C10   C36   1.475345 S    
C15   O28   1.410853 S    
O12   C33   1.305228 A    
O8    V2    1.999587 S    
O15   C35   1.293351 A    
C40   H26   1.110703 S    
O14   C34   1.300819 A    
C27   C28   1.425150 A    
C15   H5    1.112857 S    
O1    V2    2.004881 S    
O7    V1    2.158112 S    
C20   C21   1.411212 A    
O9    C4    1.300775 A    
O19   V4    1.999382 S    
C23   H10   1.110421 S    
C27   H12   1.081451 S    
C24   H11   1.111049 S    
C8    H3    1.083877 S    
C6    C35   1.488654 S    
C16   H7    1.112128 S    
C9    C10   1.395457 A    
C2    C26   1.485880 S    
C39   H23   1.109310 S    
O4    C2    1.302380 A    
C37   H17   1.114017 S    
C10   C11   1.406144 A    
O21   C37   1.412400 S    
C32   H16   1.107915 S    
C16   H6    1.111846 S    
O2    C1    1.299129 A    
V4    O20   2.161317 S    
C9    C16   1.489672 S    
C18   C19   1.410546 A    
C39   H24   1.114630 S    
O11   C34   1.297024 A    
C38   H20   1.109599 S    
O13   V3    2.000012 S    
C40   H28   1.109671 S    
C5    O21   1.395001 S    
C5    C6    1.361748 D    
C17   C24   1.493495 S    
C28   C29   1.425692 A    
C1    C18   1.483951 S    
O3    C4    1.292342 A    
C20   H9    1.081964 S    
C38   H21   1.111682 S    
C7    H2    1.085387 S    
O22   C38   1.410203 S    
O6    V2    1.999596 S    
C31   H13   1.109081 S    
C22   C23   1.510962 S    
V3    O20   1.708163 S    
C21   C34   1.485167 S    
C21   C22   1.403023 A    
O2    V1    2.000224 S    
C23   C24   1.535760 S    
C25   C32   1.492876 S    
C30   C31   1.492106 S    
C17   C18   1.399680 A    
C40   H27   1.114151 S    
O1    C2    1.295722 A    
C15   C16   1.524480 S    
O5    V1    2.000039 S    
O8    C3    1.303057 A    
N2    O27   1.301105 A    
O13   C36   1.296203 A    
C11   C12   1.415703 A    
C32   H15   1.111156 S    
O9    V2    2.003878 S    
O7    V2    1.710692 S    
O4    V1    2.005559 S    
O3    V1    2.005867 S    
V1    O10   1.708218 S    
C39   H25   1.110520 S    
O18   V4    2.003833 S    
C37   H19   1.109536 S    
O25   C39   1.411474 S    
C14   C15   1.495852 S    
C25   C26   1.400719 A    
O17   V4    1.710209 S    
O17   V3    2.158157 S    
C9    C14   1.390507 A    
O18   C35   1.304467 A    
C38   H22   1.108997 S    
C7    C8    1.344230 D    
N1    O23   1.302187 A    
C26   C27   1.409523 A    
C31   H14   1.112182 S    
N1    O24   1.300261 A    
C17   C22   1.393000 A    
V2    O10   2.161294 S    
