data_mof_unit_8374.cif
_audit_creation_date              2012-12-10T20:30:13-0500
_audit_creation_method            fapswitch 2.2
_symmetry_space_group_name_H-M    P1
_symmetry_Int_Tables_number       1
_space_group_crystal_system       triclinic
_cell_length_a                    9.932281
_cell_length_b                    10.619579
_cell_length_c                    13.131008
_cell_angle_alpha                 92.088747
_cell_angle_beta                  70.438693
_cell_angle_gamma                 91.192177
_cell_volume                      1304.15526573

loop_
_atom_site_label
_atom_site_type_symbol
_atom_type_description
_atom_site_fract_x
_atom_site_fract_y
_atom_site_fract_z
_atom_type_partial_charge
C1    C     C_R   0.501215 0.739584 0.500270 0.956540
C2    C     C_R   0.370445 0.504127 0.821046 -0.100850
C3    C     C_R   0.384933 0.937097 0.560544 -0.088790
C4    C     C_R   0.420498 0.496515 0.703628 0.889185
C5    C     C_R   0.504786 0.871747 0.496246 -0.124453
C6    C     C_R   0.615808 0.933539 0.417255 0.452155
C7    C     C_R   0.614318 0.064538 0.417213 -0.281928
C8    C     C_R   0.497705 0.128655 0.489480 -0.061259
C9    C     C_R   0.377770 0.064381 0.553121 0.076385
C10   C     C_3   0.297559 0.083844 0.671021 -0.509177
C11   C     C_3   0.313399 0.943242 0.681186 0.353359
C12   C     C_R   0.445988 0.514275 0.978862 0.109276
C13   C     C_R   0.895097 0.561423 0.580667 0.205175
C14   C     C_R   0.955541 0.428807 0.427820 -0.189560
C15   C     C_R   0.098908 0.426382 0.426441 0.456336
C16   C     C_R   0.499555 0.260587 0.497852 0.907926
C17   C     C_R   0.036923 0.561332 0.580831 0.117687
C18   C     C_3   0.032258 0.698484 0.610306 -0.514563
C19   C     C_3   0.879209 0.698453 0.610183 -0.416832
C20   C     C_R   0.579716 0.499969 0.296425 0.870582
C21   C     C_R   0.756187 0.358148 0.022678 -0.194978
C22   C     C_R   0.629927 0.484971 0.180085 -0.065448
C23   C     C_R   0.458530 0.460351 0.876387 0.059562
C24   C     C_R   0.252758 0.580218 0.874586 -0.118604
C25   C     C_R   0.231549 0.624175 0.979384 -0.096035
C26   C     C_R   0.329428 0.595955 0.029891 -0.088760
C27   C     C_3   0.715385 0.863390 0.243027 0.069018
C28   C     C_3   0.836396 0.785261 0.165099 -0.304179
C29   C     C_3   0.828548 0.781970 0.050804 -0.948376
C30   C     C_R   0.549645 0.483140 0.026056 0.104078
C31   C     C_R   0.657428 0.393395 0.973831 0.148335
C32   C     C_R   0.660937 0.335121 0.876460 -0.217903
C33   C     C_R   0.561247 0.366334 0.829304 -0.161533
C34   C     C_R   0.545624 0.534137 0.126320 -0.191415
C35   C     C_R   0.740589 0.401983 0.127024 -0.203349
H1    H     H_    0.807580 0.364275 0.168716 0.168855
H2    H     H_    0.739583 0.263768 0.837413 0.153336
H3    H     H_    0.864984 0.755264 0.545083 0.240158
H4    H     H_    0.838811 0.290179 0.983354 0.148118
H5    H     H_    0.469750 0.604849 0.169470 0.139570
H6    H     H_    0.183664 0.613537 0.832761 0.146201
H7    H     H_    0.308681 0.638406 0.109247 0.144915
H8    H     H_    0.143300 0.686147 0.019725 0.147006
H9    H     H_    0.564747 0.315562 0.755433 0.172028
H10   H     H_    0.638170 0.979632 0.754988 0.375730
H11   H     H_    0.411845 0.239632 0.250429 0.367386
H12   H     H_    0.704125 0.115560 0.363296 0.168484
H13   H     H_    0.722035 0.960189 0.211497 0.151329
H14   H     H_    0.611454 0.818785 0.245996 0.115316
H15   H     H_    0.940957 0.826528 0.163188 0.238878
H16   H     H_    0.829641 0.687526 0.193928 0.231018
H17   H     H_    0.722375 0.746941 0.051101 0.270242
H18   H     H_    0.911487 0.718073 0.997496 0.260477
H19   H     H_    0.847100 0.877819 0.017329 0.270599
H20   H     H_    0.355412 0.146186 0.712805 0.224568
H21   H     H_    0.185250 0.111880 0.685691 0.170092
H22   H     H_    0.210143 0.890938 0.708775 0.060337
H23   H     H_    0.922764 0.376712 0.367605 0.197882
H24   H     H_    0.106543 0.755556 0.545389 0.227493
H25   H     H_    0.040245 0.716154 0.692046 0.195539
H26   H     H_    0.799257 0.716185 0.691788 0.223010
N1    N     N_R   0.856940 0.500860 0.500710 -0.141269
N2    N     N_R   0.142580 0.500820 0.500710 -0.169385
O1    O     O_R   0.385310 0.683210 0.499990 -0.650746
O2    O     O_2   0.473651 0.776315 0.740367 -0.343664
O3    O     O_3   0.578541 0.003284 0.711597 -0.567480
O4    O     O_2   0.122670 0.232696 0.285309 -0.316726
O5    O     O_2   0.257591 0.423212 0.219508 -0.348504
O6    O     O_3   0.354932 0.268587 0.324713 -0.528963
O7    O     O_3   0.729419 0.867044 0.346684 -0.626461
O8    O     O_R   0.614650 0.683240 0.500000 -0.555877
O9    O     O_R   0.328390 0.499940 0.653610 -0.627894
O10   O     O_R   0.557730 0.499980 0.653620 -0.593907
O11   O     O_R   0.385350 0.316760 0.500000 -0.554288
O12   O     O_R   0.614690 0.316790 0.500010 -0.630360
O13   O     O_R   0.442270 0.500020 0.346380 -0.539125
O14   O     O_R   0.671610 0.500060 0.346390 -0.634695
O15   O     O_2   0.354823 0.941241 0.873583 -0.293410
S1    S     S_3+6 0.431008 0.912201 0.755586 -0.007753
S2    S     S_3+6 0.210805 0.336815 0.312893 0.034785
Zn1   Zn    Zn3+2 0.346870 0.499980 0.499990 1.005561
Zn2   Zn    Zn3+2 0.653130 0.500020 0.500010 0.983989

loop_
_geom_bond_atom_site_label_1
_geom_bond_atom_site_label_2
_ccdc_geom_bond_type
C27   H13   S    
O5    S2    D    
O2    S1    D    
C16   O12   A    
C35   H1    S    
C25   H8    S    
C7    C8    A    
C22   C35   A    
C21   C31   A    
C12   C23   A    
C1    O8    A    
C20   O14   A    
N2    Zn1   S    
C1    C5    S    
C28   C29   S    
C30   C31   A    
C28   H16   S    
C29   H19   S    
C14   N1    A    
C20   O13   A    
C18   C19   S    
H11   O6    S    
C28   H15   S    
C13   N1    A    
C31   C32   A    
C8    C9    A    
C23   C33   A    
C10   H21   S    
C9    C10   S    
O9    Zn1   S    
O8    Zn2   S    
N1    Zn2   S    
C8    C16   S    
C24   H6    S    
C14   H23   S    
C22   C34   A    
C30   C34   A    
C24   C25   A    
C13   C19   S    
O15   S1    D    
C25   C26   A    
C12   C26   A    
H10   O3    S    
C7    H12   S    
C2    C4    S    
O3    S1    S    
C19   H3    S    
C15   S2    S    
C21   H4    S    
C17   C18   S    
C32   H2    S    
C3    C9    A    
C4    O10   A    
C27   O7    S    
C11   S1    S    
C18   H25   S    
C20   C22   S    
C2    C24   A    
C16   O11   A    
O11   Zn1   S    
C1    O1    A    
O10   Zn2   S    
C4    O9    A    
C26   H7    S    
C6    O7    S    
C12   C30   A    
C33   H9    S    
O4    S2    D    
C3    C5    A    
O13   Zn1   S    
O12   Zn2   S    
C6    C7    A    
C21   C35   A    
C13   C17   A    
C32   C33   A    
C17   N2    A    
C5    C6    A    
C29   H18   S    
O14   Zn2   S    
C19   H26   S    
C10   H20   S    
O1    Zn1   S    
C3    C11   S    
C10   C11   S    
C18   H24   S    
C2    C23   A    
C15   N2    A    
C14   C15   A    
C34   H5    S    
O6    S2    S    
C11   H22   S    
C27   H14   S    
C27   C28   S    
C29   H17   S    
