data_mof_unit_34335.cif
_audit_creation_date              2012-12-11T15:59:32-0500
_audit_creation_method            fapswitch 2.2
_symmetry_space_group_name_H-M    P1
_symmetry_Int_Tables_number       1
_space_group_crystal_system       triclinic
_cell_length_a                    10.733954
_cell_length_b                    10.71649
_cell_length_c                    17.111345
_cell_angle_alpha                 99.656239
_cell_angle_beta                  100.163277
_cell_angle_gamma                 60.36696
_cell_volume                      1676.57160995

loop_
_atom_site_label
_atom_site_type_symbol
_atom_type_description
_atom_site_fract_x
_atom_site_fract_y
_atom_site_fract_z
_atom_type_partial_charge
C1    C     C_R   0.356022 0.769239 0.397838 0.531895
C2    C     C_R   0.856235 0.203637 0.197294 0.032425
C3    C     C_R   0.866015 0.213119 0.281177 0.019253
C4    C     C_R   0.780652 0.471266 0.284896 -0.143041
C5    C     C_R   0.786813 0.459460 0.204633 -0.156404
C6    C     C_R   0.874834 0.071559 0.154097 -0.060662
C7    C     C_R   0.925185 0.948405 0.193048 -0.137044
C8    C     C_R   0.951169 0.955382 0.275768 -0.135943
C9    C     C_R   0.920293 0.086729 0.319801 -0.091868
C10   C     C_R   0.820012 0.349459 0.324043 0.004220
C11   C     C_R   0.356256 0.815619 0.157721 -0.000630
C12   C     C_R   0.398021 0.368295 0.353963 0.565156
C13   C     C_R   0.448686 0.849464 0.216877 0.017438
C14   C     C_R   0.433609 0.855831 0.298053 0.013020
C15   C     C_R   0.282517 0.740471 0.256856 -0.142964
C16   C     C_R   0.284215 0.749799 0.178050 -0.141879
C17   C     C_R   0.554122 0.878459 0.197983 -0.103964
C18   C     C_R   0.630721 0.926968 0.257270 -0.133029
C19   C     C_R   0.607772 0.944226 0.336490 -0.093976
C20   C     C_R   0.507691 0.912228 0.356955 -0.085461
C21   C     C_R   0.347795 0.801847 0.317551 0.010322
C22   C     C_R   0.296507 0.276967 0.798471 0.032740
C23   C     C_R   0.774623 0.378081 0.402961 0.545822
C24   C     C_R   0.424772 0.175743 0.763141 0.007576
C25   C     C_R   0.477294 0.223363 0.712157 0.023644
C26   C     C_R   0.245326 0.443770 0.703316 -0.136969
C27   C     C_R   0.204109 0.409223 0.765670 0.071308
C28   C     C_R   0.505698 0.029429 0.779713 -0.085830
C29   C     C_R   0.644581 0.941437 0.758154 -0.109712
C30   C     C_R   0.705992 0.997622 0.719518 -0.113132
C31   C     C_R   0.623497 0.137020 0.696644 -0.084499
C32   C     C_R   0.380112 0.351856 0.675667 -0.027591
C33   C     C_1   0.770475 0.368478 0.714655 -0.066156
C34   C     C_R   0.358439 0.768592 0.627675 0.544936
C35   C     C_1   0.814991 0.329790 0.780674 -0.042723
C36   C     C_1   0.339689 0.808557 0.709732 -0.058016
C37   C     C_1   0.313212 0.836462 0.777581 -0.064933
C38   C     C_R   0.891254 0.308758 0.087119 0.538958
C39   C     C_R   0.297336 0.268100 0.124459 0.571593
C40   C     C_R   0.298860 0.886782 0.084099 0.545543
C41   C     C_R   0.879918 0.300772 0.860274 0.551178
C42   C     C_R   0.278101 0.252980 0.876841 0.569592
C43   C     C_R   0.279060 0.884363 0.857260 0.541224
C44   C     C_R   0.407678 0.374827 0.600140 0.534326
C45   C     C_R   0.719241 0.411482 0.635529 0.534711
C46   C     C_1   0.354288 0.342058 0.273232 -0.037156
C47   C     C_1   0.324530 0.311651 0.205012 -0.032023
C48   C     C_R   0.830742 0.326091 0.160560 0.000875
Cr1   Cr    Cr6+3 0.608100 0.610860 0.522250 1.008871
Cr2   Cr    Cr6+3 0.288890 0.599990 0.488420 1.010137
Cr3   Cr    Cr6+3 0.603040 0.289190 0.489390 0.989070
Cr4   Cr    Cr6+3 0.053960 0.052250 0.967380 1.010053
Cr5   Cr    Cr6+3 0.059890 0.373160 0.992710 1.031604
Cr6   Cr    Cr6+3 0.373370 0.061690 0.991710 0.994698
H1    H     H_    0.741649 0.578414 0.315932 0.158775
H2    H     H_    0.706641 0.952902 0.241220 0.135231
H3    H     H_    0.668231 0.981937 0.382252 0.137018
H4    H     H_    0.489536 0.932247 0.419043 0.141182
H5    H     H_    0.170601 0.542618 0.676157 0.143971
H6    H     H_    0.463280 0.982264 0.810177 0.153194
H7    H     H_    0.705577 0.831052 0.773325 0.119355
H8    H     H_    0.816056 0.932122 0.705248 0.117022
H9    H     H_    0.675322 0.174708 0.665859 0.150937
H10   H     H_    0.846466 0.061953 0.090467 0.143113
H11   H     H_    0.763273 0.554424 0.177630 0.138328
H12   H     H_    0.941532 0.847699 0.159053 0.105139
H13   H     H_    0.989231 0.860002 0.306071 0.125965
H14   H     H_    0.940663 0.088127 0.384077 0.133069
H15   H     H_    0.227784 0.685682 0.270049 0.135739
H16   H     H_    0.583714 0.858384 0.138244 0.140087
H17   H     H_    0.220639 0.714261 0.133134 0.140765
O1    O     O_R   0.749810 0.499790 0.438040 -0.512405
O2    O     O_R   0.298970 0.468800 0.557390 -0.486075
O3    O     O_R   0.489400 0.255930 0.561910 -0.516379
O4    O     O_R   0.723890 0.306050 0.584610 -0.523656
O5    O     O_3   0.500010 0.500010 0.500020 -0.292166
O6    O     O_R   0.171100 0.914680 0.053100 -0.511641
O7    O     O_R   0.941680 0.184840 0.050710 -0.511500
O8    O     O_R   0.922080 0.403420 0.072610 -0.526797
O9    O     O_R   0.196880 0.369150 0.083850 -0.495747
O10   O     O_R   0.411730 0.181020 0.091530 -0.506675
O11   O     O_R   0.365010 0.944360 0.063320 -0.525492
O12   O     O_R   0.477660 0.726260 0.439290 -0.506880
O13   O     O_R   0.159380 0.906670 0.876210 -0.502169
O14   O     O_R   0.930820 0.177420 0.886730 -0.493802
O15   O     O_R   0.910360 0.395420 0.895720 -0.502468
O16   O     O_R   0.186010 0.361730 0.919870 -0.446549
O17   O     O_R   0.400000 0.173010 0.914630 -0.524601
O18   O     O_R   0.354140 0.936940 0.899340 -0.537961
O19   O     O_3   0.162410 0.162370 0.983930 -0.280292
O20   O     O_R   0.260150 0.743000 0.412270 -0.532221
O21   O     O_R   0.297740 0.466550 0.394720 -0.488817
O22   O     O_R   0.488080 0.253500 0.386430 -0.507993
O23   O     O_R   0.722670 0.303800 0.421940 -0.515440
O24   O     O_R   0.751130 0.502220 0.613520 -0.496364
O25   O     O_R   0.478890 0.728510 0.601960 -0.503802
O26   O     O_R   0.261470 0.745430 0.587750 -0.519295
N1    N     N_3   0.066978 0.507223 0.793921 -0.587423
H18   H     H_    0.986761 0.522249 0.746172 0.237650
H19   H     H_    0.064126 0.606614 0.812431 0.231489

loop_
_geom_bond_atom_site_label_1
_geom_bond_atom_site_label_2
_ccdc_geom_bond_type
C25   C31   A    
C27   N1    S    
C1    C21   S    
C33   C45   S    
Cr4   O19   S    
C19   C20   A    
Cr3   O3    S    
C7    C8    A    
C19   H3    S    
C26   C32   A    
C41   O15   A    
C28   C29   A    
C26   C27   A    
C43   O18   A    
C14   C21   A    
C36   C37   T    
Cr5   O8    S    
C34   O25   A    
Cr6   O19   S    
C30   C31   A    
C38   O8    A    
C15   C16   A    
C34   O26   A    
C14   C20   A    
C18   C19   A    
C6    H10   S    
Cr4   O13   S    
C8    C9    A    
Cr1   O1    S    
Cr5   O15   S    
C26   H5    S    
C38   C48   S    
C18   H2    S    
C25   C32   A    
C17   H16   S    
C1    O20   A    
C13   C14   A    
C43   O13   A    
C2    C6    A    
C16   H17   S    
Cr4   O7    S    
C28   H6    S    
C15   H15   S    
C5    C48   A    
C29   H7    S    
C40   O11   A    
Cr5   O9    S    
C24   C25   A    
C39   O10   A    
Cr6   O18   S    
C5    H11   S    
Cr2   O2    S    
C38   O7    A    
C2    C48   A    
Cr1   O24   S    
C12   C46   S    
C37   C43   S    
C29   C30   A    
C3    C9    A    
Cr2   O5    S    
C11   C16   A    
C17   C18   A    
C32   C44   S    
Cr1   O5    S    
Cr5   O16   S    
Cr3   O5    S    
C44   O3    A    
Cr3   O22   S    
Cr2   O21   S    
N1    H19   S    
C22   C27   A    
C30   H8    S    
C4    H1    S    
C22   C24   A    
C12   O22   A    
C42   O17   A    
C4    C10   A    
Cr4   O6    S    
C45   O24   A    
Cr6   O11   S    
C39   C47   S    
C44   O2    A    
C46   C47   T    
Cr4   O14   S    
Cr2   O26   S    
C23   O1    A    
C12   O21   A    
C24   C28   A    
Cr3   O4    S    
C4    C5    A    
C6    C7    A    
C10   C23   S    
C1    O12   A    
C31   H9    S    
C41   O14   A    
C23   O23   A    
C13   C17   A    
C45   O4    A    
C39   O9    A    
Cr1   O12   S    
C2    C3    A    
C9    H14   S    
C3    C10   A    
C7    H12   S    
Cr6   O17   S    
C11   C13   A    
C22   C42   S    
C33   C35   T    
C34   C36   S    
Cr1   O25   S    
C11   C40   S    
C35   C41   S    
Cr3   O23   S    
Cr2   O20   S    
C15   C21   A    
C8    H13   S    
N1    H18   S    
Cr5   O19   S    
C40   O6    A    
C42   O16   A    
C20   H4    S    
Cr6   O10   S    
