data_mof_unit_29479.cif
_audit_creation_date              2012-12-11T14:30:01-0500
_audit_creation_method            fapswitch 2.2
_symmetry_space_group_name_H-M    P1
_symmetry_Int_Tables_number       1
_space_group_crystal_system       triclinic
_cell_length_a                    12.646613
_cell_length_b                    12.661479
_cell_length_c                    27.214474
_cell_angle_alpha                 89.979828
_cell_angle_beta                  90.040347
_cell_angle_gamma                 119.961385
_cell_volume                      3775.35672683

loop_
_atom_site_label
_atom_site_type_symbol
_atom_type_description
_atom_site_fract_x
_atom_site_fract_y
_atom_site_fract_z
_atom_type_partial_charge
C1    C     C_R   0.560504 0.456491 0.822821 0.564254
C2    C     C_R   0.898343 0.443354 0.677794 0.596358
C3    C     C_R   0.544579 0.104705 0.822874 0.562530
C4    C     C_R   0.556291 0.455212 0.677957 0.595139
C5    C     C_R   0.892911 0.438074 0.823415 0.566372
C6    C     C_R   0.545042 0.101712 0.677840 0.595539
C7    C     C_R   0.454837 0.561926 0.323415 0.566374
C8    C     C_R   0.443330 0.898288 0.177840 0.595539
C9    C     C_R   0.104013 0.543508 0.322821 0.564253
C10   C     C_R   0.454990 0.556646 0.177794 0.596359
C11   C     C_R   0.439874 0.895295 0.322874 0.562529
C12   C     C_R   0.101079 0.544788 0.177957 0.595138
C13   C     C_R   0.965292 0.493206 0.977901 -0.030746
C14   C     C_R   0.508106 0.988399 0.528610 -0.026837
C15   C     C_R   0.503942 0.480579 0.976534 -0.039559
C16   C     C_R   0.010239 0.518524 0.528259 -0.022558
C17   C     C_R   0.523731 0.027498 0.977055 -0.034721
C18   C     C_R   0.474950 0.494228 0.529519 -0.025788
C19   C     C_R   0.496232 0.972501 0.477055 -0.034721
C20   C     C_R   0.980722 0.505772 0.029519 -0.025788
C21   C     C_R   0.472085 0.506793 0.477901 -0.030746
C22   C     C_R   0.519707 0.011601 0.028610 -0.026837
C23   C     C_R   0.023363 0.519420 0.476534 -0.039559
C24   C     C_R   0.491714 0.481475 0.028259 -0.022558
C25   C     C_R   0.070991 0.715271 0.969268 0.007443
C26   C     C_R   0.727358 0.068782 0.520327 0.029741
C27   C     C_R   0.281744 0.364802 0.967920 0.025360
C28   C     C_R   0.925442 0.653514 0.519468 0.027272
C29   C     C_R   0.641860 0.923339 0.968672 0.013673
C30   C     C_R   0.338935 0.274856 0.520829 0.026703
C31   C     C_R   0.718522 0.076660 0.468672 0.013673
C32   C     C_R   0.064079 0.725143 0.020829 0.026703
C33   C     C_R   0.355720 0.284729 0.469268 0.007443
C34   C     C_R   0.658575 0.931216 0.020326 0.029741
C35   C     C_R   0.916941 0.635196 0.467920 0.025360
C36   C     C_R   0.271927 0.346484 0.019469 0.027272
C37   C     C_R   0.995325 0.580720 0.895087 0.204533
C38   C     C_R   0.634597 0.063083 0.601652 0.168113
C39   C     C_R   0.416151 0.424802 0.893506 0.185726
C40   C     C_R   0.936679 0.571294 0.601415 0.169520
C41   C     C_R   0.578345 0.994501 0.893971 0.206041
C42   C     C_R   0.425126 0.367199 0.602333 0.169838
C43   C     C_R   0.583844 0.005498 0.393971 0.206041
C44   C     C_R   0.057927 0.632801 0.102333 0.169838
C45   C     C_R   0.414605 0.419280 0.395087 0.204533
C46   C     C_R   0.571514 0.936917 0.101652 0.168113
C47   C     C_R   0.991348 0.575196 0.393506 0.185724
C48   C     C_R   0.365385 0.428705 0.101415 0.169520
C49   C     C_R   0.037041 0.528968 0.130329 0.050304
C50   C     C_R   0.464529 0.935788 0.374704 0.048017
C51   C     C_R   0.469831 0.509953 0.129629 0.050286
C52   C     C_R   0.057190 0.521514 0.374018 0.016743
C53   C     C_R   0.489837 0.959633 0.129764 0.049126
C54   C     C_R   0.470879 0.538461 0.375415 0.045112
C55   C     C_R   0.530203 0.040367 0.629764 0.049126
C56   C     C_R   0.932419 0.461539 0.875415 0.045110
C57   C     C_R   0.508072 0.471031 0.630329 0.050305
C58   C     C_R   0.528740 0.064212 0.874704 0.048018
C59   C     C_R   0.959878 0.490047 0.629629 0.050286
C60   C     C_R   0.535676 0.478486 0.874019 0.016744
C61   C     C_R   0.012692 0.597685 0.946940 0.031852
C62   C     C_R   0.624364 0.039868 0.550487 0.032719
C63   C     C_R   0.399290 0.424555 0.945512 0.027224
C64   C     C_R   0.957808 0.582568 0.550015 0.034390
C65   C     C_R   0.580576 0.979561 0.946069 0.033597
C66   C     C_R   0.411573 0.377714 0.551203 0.034205
C67   C     C_R   0.601016 0.020438 0.446070 0.033598
C68   C     C_R   0.033860 0.622286 0.051203 0.034205
C69   C     C_R   0.415006 0.402315 0.446941 0.031852
C70   C     C_R   0.584496 0.960131 0.050487 0.032719
C71   C     C_R   0.974734 0.575444 0.445512 0.027223
C72   C     C_R   0.375239 0.417431 0.050015 0.034390
C73   C     C_R   0.893301 0.359476 0.906578 0.180230
C74   C     C_R   0.413872 0.975682 0.608874 0.211788
C75   C     C_R   0.637653 0.543676 0.905248 0.174133
C76   C     C_R   0.025634 0.439502 0.608792 0.213745
C77   C     C_R   0.476707 0.113302 0.906428 0.191607
C78   C     C_R   0.557917 0.587580 0.609773 0.211654
C79   C     C_R   0.363405 0.886699 0.406428 0.191607
C80   C     C_R   0.970336 0.412420 0.109773 0.211654
C81   C     C_R   0.533824 0.640524 0.406578 0.180230
C82   C     C_R   0.438191 0.024318 0.108874 0.211788
C83   C     C_R   0.093978 0.456325 0.405248 0.174133
C84   C     C_R   0.586133 0.560498 0.108792 0.213745
C85   C     C_R   0.904316 0.374967 0.957519 0.001503
C86   C     C_R   0.402268 0.947845 0.558428 0.014644
C87   C     C_R   0.622176 0.538658 0.956129 -0.006509
C88   C     C_R   0.053851 0.456389 0.558334 0.013533
C89   C     C_R   0.469504 0.091259 0.956742 0.001577
C90   C     C_R   0.538513 0.599551 0.559583 0.009549
C91   C     C_R   0.378245 0.908742 0.456742 0.001578
C92   C     C_R   0.938962 0.400449 0.059583 0.009549
C93   C     C_R   0.529349 0.625033 0.457519 0.001503
C94   C     C_R   0.454423 0.052155 0.058428 0.014644
C95   C     C_R   0.083518 0.461342 0.456129 -0.006508
C96   C     C_R   0.597463 0.543612 0.058334 0.013533
C97   C     C_R   0.867263 0.285164 0.038687 -0.136021
C98   C     C_R   0.274880 0.863849 0.487045 -0.133927
C99   C     C_R   0.712700 0.588303 0.037227 -0.135075
C100  C     C_R   0.138583 0.413869 0.487017 -0.129867
C101  C     C_R   0.405110 0.118482 0.037073 -0.135509
C102  C     C_R   0.577733 0.727213 0.488527 -0.131333
C103  C     C_R   0.286627 0.881518 0.537073 -0.135509
C104  C     C_R   0.850519 0.272786 0.988527 -0.131333
C105  C     C_R   0.582098 0.714835 0.538687 -0.136021
C106  C     C_R   0.411033 0.136152 0.987045 -0.133927
C107  C     C_R   0.124397 0.411698 0.537227 -0.135074
C108  C     C_R   0.724715 0.586132 0.987017 -0.129868
Cr1   Cr    Cr6+3 0.487630 0.241180 0.750000 1.097751
Cr2   Cr    Cr6+3 0.753550 0.512370 0.750000 1.099044
Cr3   Cr    Cr6+3 0.758820 0.246450 0.750000 1.095337
Cr4   Cr    Cr6+3 0.241180 0.487630 0.250000 1.099044
Cr5   Cr    Cr6+3 0.512370 0.753550 0.250000 1.095338
Cr6   Cr    Cr6+3 0.246450 0.758820 0.250000 1.097751
H1    H     H_    0.823814 0.203030 0.060626 0.124582
H2    H     H_    0.183228 0.816646 0.472266 0.151062
H3    H     H_    0.795094 0.626096 0.059058 0.124824
H4    H     H_    0.192803 0.376873 0.472764 0.146737
H5    H     H_    0.360705 0.157123 0.058478 0.123360
H6    H     H_    0.614104 0.818369 0.474407 0.142505
H7    H     H_    0.203581 0.842878 0.558478 0.123360
H8    H     H_    0.795735 0.181631 0.974407 0.142505
H9    H     H_    0.620784 0.796969 0.560626 0.124583
H10   H     H_    0.366585 0.183356 0.972266 0.151063
H11   H     H_    0.168998 0.373906 0.559058 0.124824
H12   H     H_    0.815930 0.623128 0.972764 0.146737
O1    O     O_R   0.460870 0.120930 0.805240 -0.450634
O2    O     O_R   0.660060 0.539130 0.694760 -0.434366
O3    O     O_R   0.879070 0.339940 0.805240 -0.455031
O4    O     O_R   0.460870 0.120930 0.694760 -0.436725
O5    O     O_R   0.660060 0.539130 0.805240 -0.446276
O6    O     O_R   0.879070 0.339940 0.694760 -0.434861
O7    O     O_R   0.120930 0.460870 0.305240 -0.446276
O8    O     O_R   0.539130 0.660060 0.194760 -0.434861
O9    O     O_R   0.339940 0.879070 0.305240 -0.450633
O10   O     O_R   0.120930 0.460870 0.194760 -0.434365
O11   O     O_R   0.539130 0.660060 0.305240 -0.455031
O12   O     O_R   0.339940 0.879070 0.194760 -0.436725
O13   O     O_R   0.498910 0.350470 0.801870 -0.468668
O14   O     O_R   0.851560 0.501090 0.698130 -0.504656
O15   O     O_R   0.649530 0.148440 0.801870 -0.469357
O16   O     O_R   0.498910 0.350470 0.698130 -0.504479
O17   O     O_R   0.851560 0.501090 0.801870 -0.469453
O18   O     O_R   0.649530 0.148440 0.698130 -0.505092
O19   O     O_R   0.350470 0.498910 0.301870 -0.469452
O20   O     O_R   0.501090 0.851560 0.198130 -0.505092
O21   O     O_R   0.148440 0.649530 0.301870 -0.468668
O22   O     O_R   0.350470 0.498910 0.198130 -0.504656
O23   O     O_R   0.501090 0.851560 0.301870 -0.469358
O24   O     O_R   0.148440 0.649530 0.198130 -0.504478
O25   O     O_3   0.666667 0.333333 0.750000 -0.286654
O26   O     O_3   0.333333 0.666667 0.250000 -0.286654
O27   O     O_3   0.115178 0.746636 0.123442 -0.689680
H13   H     H_    0.061451 0.743394 0.150656 0.334725
O28   O     O_3   0.683188 0.052990 0.362772 -0.709146
H14   H     H_    0.658318 0.064897 0.329664 0.327067
O29   O     O_3   0.251725 0.371413 0.122755 -0.687926
H15   H     H_    0.255391 0.320224 0.149576 0.335448
O30   O     O_3   0.952179 0.635553 0.362755 -0.693486
H16   H     H_    0.937815 0.599343 0.329465 0.328549
O31   O     O_3   0.627188 0.878475 0.122665 -0.686051
H17   H     H_    0.679360 0.932517 0.149477 0.334471
O32   O     O_3   0.354225 0.319860 0.364372 -0.699168
H18   H     H_    0.395307 0.339475 0.331965 0.325933
O33   O     O_3   0.748713 0.121524 0.622665 -0.686052
H19   H     H_    0.746841 0.067482 0.649478 0.334472
O34   O     O_3   0.034365 0.680140 0.864372 -0.699168
H20   H     H_    0.055832 0.660525 0.831965 0.325933
O35   O     O_3   0.368541 0.253364 0.623442 -0.689680
H21   H     H_    0.318055 0.256605 0.650656 0.334725
O36   O     O_3   0.630195 0.947008 0.862771 -0.709146
H22   H     H_    0.593418 0.935102 0.829664 0.327066
O37   O     O_3   0.880310 0.628585 0.622754 -0.687926
H23   H     H_    0.935165 0.679775 0.649575 0.335448
O38   O     O_3   0.316625 0.364444 0.862755 -0.693485
H24   H     H_    0.338471 0.400654 0.829465 0.328548
C109  C     C_3   0.076509 0.841858 0.041904 -0.362473
H25   H     H_    0.055420 0.893059 0.014179 0.094058
H26   H     H_    0.008579 0.821082 0.071530 0.146042
H27   H     H_    0.170465 0.901342 0.055770 0.175777
C110  C     C_3   0.835112 0.146800 0.439090 -0.336726
H28   H     H_    0.916113 0.201622 0.462428 0.103412
H29   H     H_    0.852553 0.083188 0.417134 0.179360
H30   H     H_    0.829172 0.214704 0.415171 0.184530
C111  C     C_3   0.154353 0.242828 0.040322 -0.360335
H31   H     H_    0.101668 0.171992 0.012307 0.094478
H32   H     H_    0.174387 0.193585 0.069307 0.147326
H33   H     H_    0.096297 0.278264 0.054946 0.178083
C112  C     C_3   0.840655 0.674519 0.438350 -0.333216
H34   H     H_    0.779311 0.691548 0.461852 0.103250
H35   H     H_    0.900420 0.759261 0.417579 0.187728
H36   H     H_    0.778289 0.600129 0.413263 0.175496
C113  C     C_3   0.765295 0.923183 0.041740 -0.361445
H37   H     H_    0.839575 0.949529 0.014453 0.092553
H38   H     H_    0.808923 0.989785 0.072071 0.144662
H39   H     H_    0.734489 0.829230 0.054719 0.174505
C114  C     C_3   0.314785 0.169116 0.439613 -0.325639
H40   H     H_    0.388649 0.180425 0.414350 0.177799
H41   H     H_    0.297183 0.090415 0.462985 0.120606
H42   H     H_    0.229847 0.145131 0.419060 0.185443
C115  C     C_3   0.842112 0.076816 0.541740 -0.361444
H43   H     H_    0.890045 0.050469 0.514454 0.092553
H44   H     H_    0.905259 0.170769 0.554719 0.174505
H45   H     H_    0.819137 0.010214 0.572071 0.144663
C116  C     C_3   0.145671 0.830884 0.939613 -0.325639
H46   H     H_    0.206770 0.909585 0.962985 0.120606
H47   H     H_    0.208226 0.819575 0.914350 0.177799
H48   H     H_    0.084717 0.854869 0.919060 0.185443
C117  C     C_3   0.234649 0.158141 0.541904 -0.362473
H49   H     H_    0.162359 0.106940 0.514179 0.094057
H50   H     H_    0.269122 0.098658 0.555770 0.175777
H51   H     H_    0.187495 0.178917 0.571530 0.146042
C118  C     C_3   0.688309 0.853198 0.939090 -0.336725
H52   H     H_    0.714488 0.798376 0.962428 0.103412
H53   H     H_    0.614464 0.785295 0.915171 0.184530
H54   H     H_    0.769362 0.916810 0.917133 0.179360
C119  C     C_3   0.911524 0.757170 0.540322 -0.360336
H55   H     H_    0.929675 0.828005 0.512307 0.094478
H56   H     H_    0.818031 0.721733 0.554945 0.178083
H57   H     H_    0.980800 0.806413 0.569306 0.147325
C120  C     C_3   0.166134 0.325479 0.938351 -0.333217
H58   H     H_    0.087762 0.308450 0.961852 0.103250
H59   H     H_    0.178159 0.399868 0.913263 0.175495
H60   H     H_    0.141157 0.240736 0.917579 0.187727
O39   O     O_3   0.939429 0.312454 0.139415 -0.675466
H61   H     H_    0.950991 0.252196 0.120525 0.320370
O40   O     O_3   0.249462 0.807650 0.388111 -0.644228
H62   H     H_    0.220056 0.732372 0.407669 0.314887
O41   O     O_3   0.686631 0.627807 0.138469 -0.676474
H63   H     H_    0.746185 0.701081 0.120115 0.321469
O42   O     O_3   0.148756 0.394844 0.385672 -0.642258
H64   H     H_    0.109493 0.312482 0.400679 0.322539
O43   O     O_3   0.370940 0.057497 0.138544 -0.676479
H65   H     H_    0.294676 0.037986 0.121037 0.323425
O44   O     O_3   0.593666 0.756405 0.386732 -0.655809
H66   H     H_    0.676050 0.800846 0.401764 0.319819
O45   O     O_3   0.313442 0.942503 0.638544 -0.676479
H67   H     H_    0.256689 0.962014 0.621037 0.323426
O46   O     O_3   0.837260 0.243595 0.886732 -0.655810
H68   H     H_    0.875204 0.199154 0.901764 0.319819
O47   O     O_3   0.626975 0.687546 0.639416 -0.675466
H69   H     H_    0.698795 0.747804 0.620525 0.320370
O48   O     O_3   0.441815 0.192353 0.888111 -0.644227
H70   H     H_    0.487689 0.267630 0.907669 0.314886
O49   O     O_3   0.058825 0.372195 0.638469 -0.676473
H71   H     H_    0.045104 0.298921 0.620115 0.321470
O50   O     O_3   0.753912 0.605158 0.885672 -0.642257
H72   H     H_    0.797011 0.687519 0.900679 0.322538

loop_
_geom_bond_atom_site_label_1
_geom_bond_atom_site_label_2
_ccdc_geom_bond_type
C44   C49   A    
C38   O33   S    
O36   H22   S    
O33   H19   S    
C82   C94   A    
C114  H42   S    
C18   C21   A    
C115  H44   S    
O35   H21   S    
C5    C56   S    
O46   H68   S    
C3    O15   A    
Cr6   O26   S    
Cr4   O7    S    
C6    O4    A    
C50   C79   A    
C30   C117  S    
C12   C49   S    
C102  H6    S    
C37   O34   S    
C47   O30   S    
O37   H23   S    
C78   C90   A    
C119  H57   S    
C31   C67   A    
C99   C108  A    
C41   O36   S    
C77   C89   A    
O29   H15   S    
C83   O42   S    
Cr3   O3    S    
C44   O27   S    
C116  H48   S    
Cr1   O25   S    
C48   C72   A    
C41   C58   A    
C73   O46   S    
C120  H60   S    
C11   O9    A    
C24   C96   A    
O30   H16   S    
C4    O16   A    
C40   O37   S    
C3    O1    A    
C5    O17   A    
C104  H8    S    
C86   C103  A    
O48   H70   S    
C14   C62   A    
C96   C99   A    
C117  H51   S    
Cr4   O19   S    
C105  H9    S    
C102  C105  A    
C8    O12   A    
O47   H69   S    
C84   C96   A    
C112  H35   S    
C58   C77   A    
C37   C56   A    
C29   C118  S    
C11   O23   A    
C48   C51   A    
C38   C55   A    
O32   H18   S    
C28   C35   A    
C113  H38   S    
C46   O31   S    
C89   C106  A    
C2    O6    A    
O44   H66   S    
Cr4   O26   S    
C19   C67   A    
Cr1   O16   S    
C80   O39   S    
C97   H1    S    
Cr2   O2    S    
O43   H65   S    
C76   C88   A    
C5    O3    A    
C79   C91   A    
C1    O13   A    
C33   C69   A    
C32   C68   A    
C109  H27   S    
C25   C32   A    
C118  H53   S    
C35   C71   A    
C26   C31   A    
C35   C112  S    
C40   C59   A    
C77   O48   S    
O45   H67   S    
C31   C110  S    
C22   C94   A    
Cr5   O26   S    
C114  H40   S    
C9    C52   S    
Cr4   O10   S    
C6    C55   S    
C43   O28   S    
C10   C51   S    
C14   C19   A    
C42   C57   A    
C79   O40   S    
O41   H63   S    
Cr1   O1    S    
C92   C97   A    
O31   H17   S    
C116  H47   S    
C16   C88   A    
C27   C120  S    
C78   O47   S    
C87   C108  A    
C59   C76   A    
C45   C69   A    
C101  H5    S    
C12   O24   A    
C26   C115  S    
C17   C89   A    
C14   C86   A    
C39   O38   S    
Cr2   O25   S    
C1    C60   S    
O34   H20   S    
C7    O11   A    
C88   C107  A    
C4    O2    A    
C95   C100  A    
C111  H33   S    
C41   C65   A    
C109  H26   S    
C119  H55   S    
C110  H28   S    
C38   C62   A    
C29   C34   A    
C9    O21   A    
C112  H34   S    
Cr4   O22   S    
C21   C69   A    
C53   C82   A    
C18   C90   A    
Cr5   O20   S    
C80   C92   A    
C112  H36   S    
C3    C58   S    
C43   C67   A    
C30   C33   A    
C120  H58   S    
C42   O35   S    
Cr5   O23   S    
C99   H3    S    
C81   C93   A    
C98   H2    S    
O40   H62   S    
C33   C114  S    
Cr6   O9    S    
C113  H39   S    
C83   C95   A    
C81   O44   S    
C117  H49   S    
Cr2   O5    S    
C25   C61   A    
C74   C86   A    
C84   O41   S    
C85   C104  A    
C47   C71   A    
C30   C66   A    
C52   C83   A    
C27   C63   A    
Cr3   O18   S    
C29   C65   A    
C28   C64   A    
C34   C113  S    
C94   C101  A    
C15   C24   A    
O42   H64   S    
C76   O49   S    
C45   C54   A    
C113  H37   S    
C16   C23   A    
C107  H11   S    
Cr5   O8    S    
C115  H45   S    
Cr5   O11   S    
C32   C109  S    
C20   C92   A    
C100  H4    S    
Cr6   O24   S    
C106  H10   S    
C103  H7    S    
Cr1   O4    S    
C75   O50   S    
C24   C72   A    
C15   C87   A    
C73   C85   A    
C118  H54   S    
C75   C87   A    
C101  C106  A    
C116  H46   S    
C18   C66   A    
C100  C107  A    
C56   C73   A    
C110  H30   S    
C13   C20   A    
O39   H61   S    
C2    C59   S    
C93   C102  A    
C57   C78   A    
C20   C68   A    
C19   C91   A    
C8    O20   A    
C98   C103  A    
C10   O8    A    
C90   C105  A    
C1    O5    A    
Cr3   O25   S    
C8    C53   S    
Cr6   O21   S    
C37   C61   A    
O50   H72   S    
C43   C50   A    
C47   C52   A    
C27   C36   A    
C119  H56   S    
C39   C63   A    
C48   O29   S    
C60   C75   A    
C17   C65   A    
C17   C22   A    
C40   C64   A    
C49   C80   A    
Cr1   O13   S    
C2    O14   A    
C74   O45   S    
C114  H41   S    
C26   C62   A    
C55   C74   A    
O38   H24   S    
C111  H32   S    
C111  H31   S    
C21   C93   A    
C118  H52   S    
C39   C60   A    
C51   C84   A    
C46   C53   A    
Cr2   O14   S    
C117  H50   S    
C23   C95   A    
C11   C50   S    
Cr6   O12   S    
C91   C98   A    
C45   O32   S    
Cr2   O17   S    
C46   C70   A    
C97   C104  A    
C44   C68   A    
Cr3   O15   S    
C28   C119  S    
Cr3   O6    S    
C110  H29   S    
C13   C61   A    
C115  H43   S    
C25   C116  S    
C23   C71   A    
C120  H59   S    
C109  H25   S    
C12   O10   A    
C82   O43   S    
C13   C85   A    
O28   H14   S    
C42   C66   A    
C15   C63   A    
C36   C111  S    
C16   C64   A    
C7    C54   S    
C108  H12   S    
O27   H13   S    
O49   H71   S    
C6    O18   A    
C34   C70   A    
C22   C70   A    
C54   C81   A    
C36   C72   A    
C4    C57   S    
C10   O22   A    
C7    O19   A    
C9    O7    A    
