data_mof_unit_20564.cif
_audit_creation_date              2012-12-11T16:24:10-0500
_audit_creation_method            fapswitch 2.2
_symmetry_space_group_name_H-M    P1
_symmetry_Int_Tables_number       1
_space_group_crystal_system       triclinic
_cell_length_a                    14.753702
_cell_length_b                    14.771626
_cell_length_c                    33.270604
_cell_angle_alpha                 96.0527
_cell_angle_beta                  96.241344
_cell_angle_gamma                 61.212977
_cell_volume                      6305.36899103

loop_
_atom_site_label
_atom_site_type_symbol
_atom_type_description
_atom_site_fract_x
_atom_site_fract_y
_atom_site_fract_z
_atom_type_partial_charge
C1    C     C_R   0.390965 0.699559 0.446104 0.546112
C2    C     C_R   0.329746 0.347627 0.308762 0.041667
C3    C     C_R   0.411388 0.264918 0.328478 -0.108112
C4    C     C_R   0.431365 0.274074 0.370223 -0.124457
C5    C     C_R   0.393882 0.252579 0.165923 -0.108179
C6    C     C_R   0.384908 0.234240 0.124083 -0.124659
C7    C     C_R   0.209720 0.377586 0.121788 -0.125343
C8    C     C_R   0.218900 0.395617 0.163665 -0.107939
C9    C     C_R   0.309785 0.331091 0.185818 0.041532
C10   C     C_1   0.314277 0.339704 0.229121 -0.015265
C11   C     C_1   0.319592 0.343948 0.265465 -0.015351
C12   C     C_R   0.405820 0.386389 0.434002 0.544299
C13   C     C_R   0.291304 0.294160 0.101814 0.019634
C14   C     C_R   0.756302 0.373327 0.410148 0.022061
C15   C     C_R   0.789411 0.435116 0.393581 -0.129536
C16   C     C_R   0.818620 0.414423 0.353880 -0.118831
C17   C     C_R   0.815523 0.331430 0.330103 0.035578
C18   C     C_R   0.791916 0.263904 0.347892 -0.120605
C19   C     C_R   0.762434 0.284743 0.387643 -0.131296
C20   C     C_R   0.834839 0.311856 0.204750 0.347096
C21   C     C_R   0.826975 0.321848 0.286234 0.347313
C22   C     C_R   0.835579 0.390213 0.142214 -0.119576
C23   C     C_R   0.700695 0.410031 0.447522 0.546289
C24   C     C_R   0.865597 0.379014 0.103010 -0.130280
C25   C     C_R   0.909368 0.197892 0.099183 -0.131068
C26   C     C_R   0.879243 0.209139 0.138490 -0.120002
C27   C     C_R   0.846806 0.304257 0.160986 0.034274
C28   C     C_R   0.907435 0.281642 0.081906 0.021589
C29   C     C_R   0.370884 0.754444 0.409060 0.021977
C30   C     C_R   0.276880 0.783888 0.385758 -0.130075
C31   C     C_R   0.266757 0.811827 0.346215 -0.119533
C32   C     C_R   0.350334 0.811097 0.329339 0.035066
C33   C     C_R   0.440792 0.791223 0.353895 -0.119754
C34   C     C_R   0.393449 0.701458 0.561198 0.543153
C35   C     C_R   0.451022 0.763046 0.393483 -0.130625
C36   C     C_R   0.343622 0.828366 0.204313 0.348027
C37   C     C_R   0.346268 0.821518 0.285580 0.348231
C38   C     C_R   0.258627 0.831682 0.135183 -0.119610
C39   C     C_R   0.238892 0.862305 0.095639 -0.130435
C40   C     C_R   0.381747 0.901582 0.104877 -0.131878
C41   C     C_R   0.401554 0.870828 0.144485 -0.120868
C42   C     C_R   0.336895 0.840450 0.160563 0.035288
C43   C     C_R   0.297007 0.902355 0.080831 0.021925
C44   C     C_R   0.371577 0.369153 0.585113 0.022293
C45   C     C_R   0.407364 0.388862 0.549014 0.545731
C46   C     C_R   0.285048 0.448565 0.603947 -0.131225
C47   C     C_R   0.265909 0.439265 0.643025 -0.121765
C48   C     C_R   0.333090 0.350496 0.663819 0.034884
C49   C     C_R   0.413851 0.267462 0.643531 -0.120962
C50   C     C_R   0.432837 0.276635 0.604496 -0.129886
C51   C     C_R   0.318677 0.347866 0.788523 0.346923
C52   C     C_R   0.325380 0.347783 0.707380 0.346710
C53   C     C_R   0.218561 0.403393 0.850484 -0.121938
C54   C     C_R   0.207363 0.383826 0.889243 -0.132335
C55   C     C_R   0.386334 0.248892 0.893020 -0.123078
C56   C     C_R   0.701319 0.413639 0.562687 0.543026
C57   C     C_R   0.397478 0.268392 0.854347 -0.119286
C58   C     C_R   0.312310 0.342360 0.831983 0.034058
C59   C     C_R   0.289788 0.302957 0.909987 0.021826
C60   C     C_R   0.754157 0.380603 0.602927 0.020037
C61   C     C_R   0.778322 0.447703 0.629527 -0.126336
C62   C     C_R   0.806638 0.427217 0.670319 -0.110562
C63   C     C_R   0.811600 0.339404 0.684890 0.040952
C64   C     C_R   0.793966 0.268967 0.658227 -0.111147
C65   C     C_R   0.765686 0.289195 0.617424 -0.125852
C66   C     C_R   0.886985 0.212478 0.822709 -0.111039
C67   C     C_R   0.369968 0.366499 0.392559 0.019896
C68   C     C_R   0.914515 0.201151 0.864106 -0.127774
C69   C     C_R   0.871325 0.382249 0.873464 -0.126876
C70   C     C_R   0.843643 0.393372 0.832122 -0.111565
C71   C     C_R   0.854357 0.307855 0.806559 0.042043
C72   C     C_1   0.839056 0.316675 0.763551 -0.022572
C73   C     C_1   0.827439 0.325712 0.727586 -0.022841
C74   C     C_R   0.910382 0.285149 0.889663 0.020218
C75   C     C_R   0.376170 0.755626 0.601771 0.020189
C76   C     C_R   0.280568 0.791732 0.618745 -0.125760
C77   C     C_R   0.270820 0.821769 0.659897 -0.110729
C78   C     C_R   0.283491 0.446336 0.372820 -0.125710
C79   C     C_R   0.356209 0.816364 0.684463 0.041455
C80   C     C_R   0.449764 0.786796 0.667434 -0.111629
C81   C     C_R   0.459695 0.756950 0.626220 -0.127583
C82   C     C_R   0.404564 0.866229 0.833485 -0.088637
C83   C     C_R   0.386761 0.892032 0.874850 0.099402
C84   C     C_R   0.217409 0.900381 0.860741 -0.153684
C85   C     C_R   0.236414 0.874406 0.819961 -0.123381
C86   C     C_R   0.328434 0.860421 0.806134 0.019637
C87   C     C_1   0.341869 0.844918 0.763492 -0.021653
C88   C     C_1   0.349638 0.832901 0.727496 -0.021317
C89   C     C_R   0.263825 0.436986 0.331044 -0.108460
C90   C     C_R   0.289992 0.913629 0.888456 0.044998
C91   C     C_R   0.963504 0.264198 0.045528 0.545945
C92   C     C_R   0.272741 0.259403 0.060035 0.542263
C93   C     C_R   0.259270 0.959598 0.043759 0.542742
C94   C     C_R   0.962652 0.267595 0.930715 0.542360
C95   C     C_R   0.270863 0.264044 0.945382 0.545444
C96   C     C_R   0.256362 0.964648 0.928963 0.553549
Cr1   Cr    Cr6+3 0.576280 0.580550 0.506370 1.012695
Cr2   Cr    Cr6+3 0.346780 0.572400 0.496520 1.012718
Cr3   Cr    Cr6+3 0.576960 0.347070 0.497150 1.012649
Cr4   Cr    Cr6+3 0.087320 0.083240 0.984860 1.011257
Cr5   Cr    Cr6+3 0.087720 0.316210 0.996740 1.012006
Cr6   Cr    Cr6+3 0.317350 0.090340 0.995890 1.034431
H1    H     H_    0.449091 0.169534 0.109599 0.129623
H2    H     H_    0.738059 0.235228 0.399738 0.129276
H3    H     H_    0.861860 0.445283 0.090216 0.130294
H4    H     H_    0.838596 0.466626 0.341234 0.135120
H5    H     H_    0.790053 0.198602 0.330433 0.134314
H6    H     H_    0.808688 0.465111 0.158506 0.137160
H7    H     H_    0.940801 0.121966 0.083507 0.131723
H8    H     H_    0.887543 0.141799 0.152029 0.136983
H9    H     H_    0.213300 0.779156 0.397108 0.130454
H10   H     H_    0.524183 0.741526 0.410864 0.129800
H11   H     H_    0.173935 0.860695 0.077600 0.130311
H12   H     H_    0.464684 0.202562 0.182955 0.118012
H13   H     H_    0.195200 0.828913 0.328271 0.136582
H14   H     H_    0.506037 0.791358 0.341867 0.135785
H15   H     H_    0.208838 0.806451 0.146470 0.135189
H16   H     H_    0.428412 0.931365 0.094151 0.129824
H17   H     H_    0.463358 0.877082 0.163177 0.134795
H18   H     H_    0.235993 0.520588 0.589624 0.129328
H19   H     H_    0.499400 0.213623 0.590569 0.129893
H20   H     H_    0.132121 0.427217 0.901686 0.130538
H21   H     H_    0.202254 0.504047 0.657725 0.132089
H22   H     H_    0.465706 0.197151 0.658492 0.132781
H23   H     H_    0.462558 0.195319 0.311341 0.117712
H24   H     H_    0.151901 0.461823 0.834154 0.132610
H25   H     H_    0.451644 0.187030 0.908536 0.137983
H26   H     H_    0.471419 0.221576 0.841208 0.134182
H27   H     H_    0.944904 0.125221 0.875563 0.125737
H28   H     H_    0.895342 0.145888 0.803091 0.110002
H29   H     H_    0.797916 0.200634 0.669269 0.111140
H30   H     H_    0.747482 0.236027 0.597779 0.126396
H31   H     H_    0.769839 0.518852 0.619395 0.126652
H32   H     H_    0.818091 0.467608 0.819844 0.109676
H33   H     H_    0.867279 0.448346 0.892311 0.126057
H34   H     H_    0.498410 0.211246 0.384527 0.129280
H35   H     H_    0.820444 0.482047 0.690803 0.112459
H36   H     H_    0.476557 0.853321 0.822430 0.105085
H37   H     H_    0.516241 0.782463 0.686296 0.110336
H38   H     H_    0.534482 0.729084 0.614126 0.127059
H39   H     H_    0.214879 0.791636 0.600745 0.127143
H40   H     H_    0.177435 0.869123 0.798919 0.117912
H41   H     H_    0.142928 0.915826 0.870043 0.131499
H42   H     H_    0.198012 0.844817 0.672891 0.110434
H43   H     H_    0.234812 0.518522 0.389145 0.128722
H44   H     H_    0.153580 0.456791 0.178932 0.118012
H45   H     H_    0.136593 0.425019 0.105518 0.130148
H46   H     H_    0.200282 0.501244 0.315917 0.116892
H47   H     H_    0.786688 0.503229 0.410361 0.130481
N1    N     N_R   0.828425 0.395750 0.227888 -0.229596
N2    N     N_R   0.243616 0.423091 0.726992 -0.235878
N3    N     N_R   0.403852 0.273086 0.729163 -0.234690
N4    N     N_R   0.400410 0.272939 0.768880 -0.233993
N5    N     N_R   0.824241 0.400792 0.267780 -0.229075
N6    N     N_R   0.833122 0.237862 0.263129 -0.230269
N7    N     N_R   0.837730 0.232632 0.223158 -0.230092
N8    N     N_R   0.267268 0.821600 0.220912 -0.229877
N9    N     N_R   0.268751 0.817883 0.260705 -0.229544
N10   N     N_R   0.422979 0.827928 0.269021 -0.230349
N11   N     N_R   0.421310 0.831995 0.229162 -0.230267
N12   N     N_R   0.239987 0.422725 0.766776 -0.235844
O1    O     O_R   0.679450 0.499830 0.463150 -0.519160
O2    O     O_R   0.356040 0.477400 0.534170 -0.502078
O3    O     O_R   0.495910 0.323070 0.537100 -0.519713
O4    O     O_R   0.663920 0.359620 0.542290 -0.501730
O5    O     O_3   0.500010 0.500010 0.500010 -0.236244
O6    O     O_R   0.170070 0.978950 0.027680 -0.520001
O7    O     O_R   0.001760 0.175230 0.026640 -0.501011
O8    O     O_R   0.984760 0.333570 0.037150 -0.519638
O9    O     O_R   0.183410 0.309240 0.041890 -0.502192
O10   O     O_R   0.340240 0.172500 0.045430 -0.520576
O11   O     O_R   0.309670 0.000990 0.032050 -0.504424
O12   O     O_R   0.480650 0.664000 0.464630 -0.501412
O13   O     O_R   0.168330 0.982130 0.939200 -0.531794
O14   O     O_R   0.000140 0.178170 0.944610 -0.502595
O15   O     O_R   0.983010 0.336750 0.948660 -0.519805
O16   O     O_R   0.181800 0.312190 0.959860 -0.504632
O17   O     O_R   0.338500 0.175680 0.956950 -0.503100
O18   O     O_R   0.308050 0.003930 0.950020 -0.458926
O19   O     O_3   0.164130 0.163270 0.992500 -0.240801
O20   O     O_R   0.323930 0.675950 0.455370 -0.520089
O21   O     O_R   0.354700 0.475360 0.451930 -0.501937
O22   O     O_R   0.494470 0.320860 0.448390 -0.519279
O23   O     O_R   0.662580 0.357570 0.460050 -0.502076
O24   O     O_R   0.680900 0.502040 0.551870 -0.520297
O25   O     O_R   0.481990 0.666040 0.546870 -0.502658
O26   O     O_R   0.325370 0.678160 0.544080 -0.519251
N13   N     N_3   0.465095 0.899234 0.902618 -0.597182
H48   H     H_    0.528761 0.886587 0.887262 0.213686
H49   H     H_    0.491856 0.839232 0.922165 0.220313

loop_
_geom_bond_atom_site_label_1
_geom_bond_atom_site_label_2
_ccdc_geom_bond_type
C37   N9    A    
C81   H38   S    
C40   H16   S    
C87   C88   T    
C93   O11   A    
N8    N9    A    
C55   C59   A    
C5    H12   S    
C89   H46   S    
Cr6   O19   S    
C41   C42   A    
C74   C94   S    
C36   C42   S    
C57   H26   S    
Cr2   O2    S    
C61   H31   S    
C7    C8    A    
C85   C86   A    
C25   C28   A    
Cr1   O24   S    
C16   H4    S    
C67   C78   A    
C1    O12   A    
C26   C27   A    
Cr2   O26   S    
C59   C95   S    
Cr4   O6    S    
C45   O3    A    
C38   C42   A    
C5    C6    A    
C80   C81   A    
C12   O22   A    
C66   C68   A    
C92   O10   A    
C68   C74   A    
Cr1   O5    S    
N13   H49   S    
C18   C19   A    
C34   O25   A    
C18   H5    S    
C32   C37   S    
C78   H43   S    
C43   C93   S    
C38   H15   S    
C68   H27   S    
C95   O16   A    
C40   C43   A    
C12   O21   A    
C47   C48   A    
C53   C54   A    
C92   O9    A    
C16   C17   A    
N2    N12   A    
C56   O4    A    
C21   N5    A    
Cr5   O8    S    
C70   C71   A    
C29   C30   A    
C9    C10   S    
C26   H8    S    
Cr3   O22   S    
C61   C62   A    
C96   O18   A    
C25   H7    S    
C34   C75   S    
C4    H34   S    
C23   O1    A    
C76   H39   S    
C54   H20   S    
C69   H33   S    
C66   H28   S    
Cr6   O18   S    
C34   O26   A    
C50   H19   S    
C84   C90   A    
C2    C11   S    
C31   H13   S    
C79   C88   S    
C44   C46   A    
C7    H45   S    
C54   C59   A    
C77   C79   A    
C78   C89   A    
Cr6   O11   S    
Cr1   O25   S    
C12   C67   S    
Cr1   O12   S    
C91   O8    A    
C91   O7    A    
Cr5   O9    S    
C38   C39   A    
C84   C85   A    
C53   H24   S    
C1    O20   A    
C86   C87   S    
C8    C9    A    
C94   O14   A    
C39   C43   A    
C63   C73   S    
C84   H41   S    
C39   H11   S    
C25   C26   A    
C82   C86   A    
C49   H22   S    
C41   H17   S    
C63   C64   A    
N13   H48   S    
C14   C23   S    
Cr2   O21   S    
C2    C89   A    
C75   C76   A    
C66   C71   A    
C5    C9    A    
C62   C63   A    
C19   H2    S    
C95   O17   A    
C47   H21   S    
N10   N11   A    
C64   H29   S    
C7    C13   A    
C52   N3    A    
Cr4   O14   S    
C1    C29   S    
C17   C18   A    
C21   N6    A    
C46   H18   S    
C69   C74   A    
C51   C58   S    
C6    H1    S    
C76   C77   A    
Cr3   O23   S    
Cr2   O5    S    
C96   O13   A    
C36   N8    A    
C48   C49   A    
C55   H25   S    
C60   C65   A    
Cr1   O1    S    
C22   C27   A    
C55   C57   A    
C13   C92   S    
Cr4   O13   S    
Cr6   O17   S    
C49   C50   A    
C22   C24   A    
C83   N13   S    
C3    C4    A    
Cr4   O19   S    
C15   H47   S    
C65   H30   S    
C44   C45   S    
C44   C50   A    
Cr6   O10   S    
C83   C90   A    
C46   C47   A    
C40   C41   A    
C33   H14   S    
C20   N7    A    
C14   C19   A    
C31   C32   A    
C8    H44   S    
C24   C28   A    
C72   C73   T    
C85   H40   S    
C4    C67   A    
C53   C58   A    
C3    H23   S    
C90   C96   S    
C20   C27   S    
C75   C81   A    
C56   O24   A    
C80   H37   S    
C29   C35   A    
C30   H9    S    
Cr4   O7    S    
C64   C65   A    
Cr3   O5    S    
Cr2   O20   S    
C2    C3    A    
C45   O2    A    
C77   H42   S    
C23   O23   A    
C82   H36   S    
Cr5   O19   S    
C32   C33   A    
C6    C13   A    
C37   N10   A    
C57   C58   A    
C30   C31   A    
C52   N2    A    
C22   H6    S    
Cr3   O3    S    
C33   C35   A    
C20   N1    A    
C51   N12   A    
C28   C91   S    
C62   H35   S    
C69   C70   A    
C17   C21   S    
Cr5   O16   S    
C10   C11   T    
C36   N11   A    
C79   C80   A    
C56   C60   S    
C48   C52   S    
C71   C72   S    
N3    N4    A    
C93   O6    A    
C82   C83   A    
N1    N5    A    
N6    N7    A    
C70   H32   S    
C14   C15   A    
C60   C61   A    
Cr5   O15   S    
C24   H3    S    
C51   N4    A    
C35   H10   S    
C15   C16   A    
C94   O15   A    
Cr3   O4    S    
