data_mof_unit_23640.cif
_audit_creation_date              2012-12-11T17:01:27-0500
_audit_creation_method            fapswitch 2.2
_symmetry_space_group_name_H-M    P1
_symmetry_Int_Tables_number       1
_space_group_crystal_system       triclinic
_cell_length_a                    15.070005
_cell_length_b                    14.966971
_cell_length_c                    15.093344
_cell_angle_alpha                 110.235147
_cell_angle_beta                  109.061688
_cell_angle_gamma                 109.63913
_cell_volume                      2603.42736749

loop_
_atom_site_label
_atom_site_type_symbol
_atom_type_description
_atom_site_fract_x
_atom_site_fract_y
_atom_site_fract_z
_atom_type_partial_charge
Br1   Br    Br    0.120096 0.320527 0.732181 -0.715145
Br2   Br    Br    0.765723 0.144295 0.995839 -0.655126
Br3   Br    Br    0.564670 0.398133 0.095149 -0.595424
Br4   Br    Br    0.628743 0.806980 0.770824 -0.563081
Br5   Br    Br    0.012180 0.733833 0.376961 -0.613861
C1    C     C_R   0.962349 0.778070 0.056188 -0.110768
C2    C     C_R   0.223640 0.750318 0.314042 -0.101364
C3    C     C_R   0.910191 0.409529 0.210734 -0.131936
C4    C     C_R   0.790123 0.197605 0.697985 -0.190037
C5    C     C_R   0.298922 0.594278 0.995591 -0.219025
C6    C     C_R   0.938485 0.501378 0.300878 -0.000755
C7    C     C_R   0.296932 0.505404 0.926393 0.015541
C8    C     C_R   0.325693 0.776497 0.323953 0.046332
C9    C     C_R   0.919200 0.124690 0.922573 -0.102499
C10   C     C_3   0.471433 0.388791 0.852285 0.045996
C11   C     C_3   0.367961 0.392408 0.841190 -0.390424
C12   C     C_R   0.696322 0.133176 0.693305 0.062576
C13   C     C_3   0.561649 0.511701 0.059592 0.183290
C14   C     C_3   0.574857 0.597890 0.943656 -0.460606
C15   C     C_3   0.572040 0.498160 0.956784 0.182746
C16   C     C_R   0.040691 0.590970 0.776859 -0.130152
C17   C     C_3   0.395732 0.503050 0.933610 0.279558
C18   C     C_3   0.457875 0.514917 0.045361 -0.472598
C19   C     C_3   0.468943 0.598511 0.926508 -0.382736
C20   C     C_R   0.623972 0.959306 0.520224 0.063322
C21   C     C_R   0.619607 0.014978 0.613806 0.020072
C22   C     C_R   0.528706 0.957532 0.620694 -0.090891
C23   C     C_R   0.969154 0.497680 0.675249 0.046909
C24   C     C_R   0.433790 0.865671 0.526193 -0.174486
C25   C     C_R   0.429496 0.832486 0.424832 0.041055
C26   C     C_R   0.528793 0.871618 0.426169 0.147366
C27   C     C_3   0.561923 0.904922 0.354228 -0.574453
C28   C     C_R   0.684594 0.406171 0.948561 -0.044334
C29   C     C_3   0.668554 0.998338 0.456509 -0.016847
C30   C     C_R   0.038449 0.522719 0.472056 0.090424
C31   C     C_R   0.941303 0.501188 0.394613 0.074799
C32   C     C_R   0.845752 0.457082 0.398615 -0.132238
C33   C     C_R   0.853589 0.454003 0.491921 -0.204311
C34   C     C_R   0.673762 0.498705 0.976128 -0.017378
C35   C     C_R   0.956513 0.493902 0.577304 -0.008460
C36   C     C_R   0.046044 0.518101 0.562390 0.162582
C37   C     C_3   0.161409 0.612650 0.632982 -0.006933
C38   C     C_3   0.151614 0.618441 0.531602 -0.528988
C39   C     C_R   0.885189 0.913511 0.991781 0.072096
C40   C     C_R   0.943362 0.405876 0.685121 -0.034622
C41   C     C_R   0.948594 0.879562 0.955359 0.085701
C42   C     C_R   0.953856 0.887413 0.867447 -0.200168
C43   C     C_R   0.912739 0.945311 0.830466 -0.138792
C44   C     C_R   0.876657 0.006146 0.888368 0.148164
C45   C     C_R   0.996268 0.592510 0.299331 0.290109
C46   C     C_R   0.846684 0.974598 0.956361 0.080377
C47   C     C_3   0.733275 0.896389 0.926933 0.274229
C48   C     C_3   0.777682 0.835572 0.970320 -0.644500
C49   C     C_R   0.775961 0.591689 0.046602 -0.088826
C50   C     C_R   0.697850 0.196693 0.786796 -0.090019
C51   C     C_R   0.052738 0.778070 0.964140 -0.131638
C52   C     C_R   0.989821 0.817831 0.993509 0.061663
C53   C     C_3   0.992873 0.145104 0.796553 -0.345642
C54   C     C_3   0.096134 0.137963 0.818838 -0.799885
C55   C     C_3   0.477165 0.366091 0.745971 -0.384024
C56   C     C_R   0.201657 0.413438 0.889222 0.268702
C57   C     C_3   0.397986 0.245528 0.654658 -0.869893
C58   C     C_3   0.766473 0.983700 0.461911 -0.291789
C59   C     C_3   0.808098 0.022889 0.395141 -0.833708
C60   C     C_3   0.245705 0.582008 0.682200 -0.317138
C61   C     C_3   0.229077 0.471797 0.604228 -0.774073
C62   C     C_R   0.312966 0.746907 0.221115 -0.129130
C63   C     C_R   0.896455 0.193447 0.988075 0.269174
C64   C     C_R   0.986701 0.189937 0.897585 0.180490
H1    H     H_    0.924311 0.802458 0.101686 0.114277
H2    H     H_    0.404044 0.447850 0.051436 0.204543
H3    H     H_    0.643116 0.677218 0.018069 0.161987
H4    H     H_    0.587459 0.595017 0.874427 0.193255
H5    H     H_    0.426000 0.589078 0.845604 0.180712
H6    H     H_    0.489498 0.679802 0.989564 0.159415
H7    H     H_    0.632393 0.591495 0.132364 0.121117
H8    H     H_    0.480279 0.594513 0.113165 0.156340
H9    H     H_    0.524828 0.990191 0.694468 0.144629
H10   H     H_    0.084823 0.674248 0.795175 0.088605
H11   H     H_    0.361342 0.831467 0.531457 0.132206
H12   H     H_    0.373171 0.750006 0.197370 0.112472
H13   H     H_    0.568859 0.840745 0.296668 0.195693
H14   H     H_    0.513096 0.936226 0.315871 0.189514
H15   H     H_    0.680674 0.081047 0.472287 0.144643
H16   H     H_    0.767615 0.429762 0.332685 0.181004
H17   H     H_    0.781718 0.425768 0.499602 0.148719
H18   H     H_    0.170852 0.687581 0.695023 0.110497
H19   H     H_    0.153234 0.694889 0.536773 0.210453
H20   H     H_    0.622338 0.320116 0.902053 0.116609
H21   H     H_    0.204320 0.597981 0.501695 0.205609
H22   H     H_    0.988797 0.848539 0.826318 0.131775
H23   H     H_    0.204074 0.760235 0.377990 0.138992
H24   H     H_    0.917133 0.945672 0.761374 0.147082
H25   H     H_    0.702334 0.936218 0.976189 0.145916
H26   H     H_    0.778356 0.846907 0.047350 0.175298
H27   H     H_    0.744962 0.748784 0.908016 0.235723
H28   H     H_    0.896811 0.320300 0.620525 0.114658
H29   H     H_    0.796157 0.675372 0.094509 0.099334
H30   H     H_    0.644156 0.168357 0.816129 0.136501
H31   H     H_    0.097702 0.803755 0.926439 0.094701
H32   H     H_    0.169605 0.220389 0.880623 0.254410
H33   H     H_    0.098779 0.081791 0.850598 0.242407
H34   H     H_    0.861517 0.325638 0.188334 0.184729
H35   H     H_    0.099126 0.106860 0.742206 0.274115
H36   H     H_    0.917812 0.067010 0.729426 0.158398
H37   H     H_    0.989451 0.199077 0.764232 0.231320
H38   H     H_    0.418500 0.190243 0.679651 0.253194
H39   H     H_    0.312846 0.222742 0.634235 0.278503
H40   H     H_    0.404093 0.233149 0.580444 0.258306
H41   H     H_    0.458616 0.419914 0.716906 0.212153
H42   H     H_    0.559947 0.384570 0.760375 0.200646
H43   H     H_    0.743224 0.974362 0.308075 0.251800
H44   H     H_    0.834971 0.111850 0.427276 0.256597
H45   H     H_    0.355149 0.680298 0.029200 0.110361
H46   H     H_    0.878542 0.011727 0.400638 0.262986
H47   H     H_    0.834021 0.031741 0.547345 0.185152
H48   H     H_    0.744088 0.895802 0.431536 0.206592
H49   H     H_    0.149427 0.402051 0.576427 0.279292
H50   H     H_    0.233525 0.471234 0.532195 0.244413
H51   H     H_    0.294348 0.458668 0.647272 0.233419
H52   H     H_    0.328286 0.649168 0.712869 0.211335
H53   H     H_    0.242737 0.578413 0.753568 0.199232
H54   H     H_    0.466141 0.318324 0.864249 0.167471
H55   H     H_    0.321819 0.383080 0.761294 0.214659
H56   H     H_    0.823270 0.171163 0.648058 0.110956
H57   H     H_    0.315999 0.321280 0.843882 0.182505
N1    N     N_R   0.995640 0.706130 0.053910 -0.042321
N2    N     N_R   0.054010 0.556790 0.847890 -0.039658
N3    N     N_R   0.789940 0.443190 0.997130 -0.036465
N4    N     N_R   0.997630 0.443170 0.791110 -0.027301
N5    N     N_R   0.846320 0.556810 0.053910 -0.036042
N6    N     N_R   0.791080 0.293860 0.847890 -0.043796
N7    N     N_R   0.052880 0.706130 0.997130 -0.044707
N8    N     N_R   0.002370 0.556830 0.208890 -0.079028
N9    N     N_R   0.153680 0.443190 0.946090 -0.062185
N10   N     N_R   0.208920 0.706140 0.152110 -0.045288
N11   N     N_R   0.947120 0.293870 0.002870 -0.078743
N12   N     N_R   0.004360 0.293870 0.946090 -0.085201
N13   N     N_R   0.151690 0.706140 0.208890 -0.036660
N14   N     N_R   0.945990 0.443210 0.152110 -0.054853
N15   N     N_R   0.210060 0.556810 0.002870 -0.048635
N16   N     N_R   0.848310 0.293860 0.791110 -0.045567
Ni1   Ni    Ni4+2 0.999010 0.630300 0.130220 0.265143
Ni2   Ni    Ni4+2 0.000990 0.369700 0.869780 0.226909
Ni3   Ni    Ni4+2 0.130280 0.630280 0.000000 0.210305
Ni4   Ni    Ni4+2 0.869720 0.369720 0.000000 0.262297

loop_
_geom_bond_atom_site_label_1
_geom_bond_atom_site_label_2
_ccdc_geom_bond_type
C20   C26   A    
C33   C35   A    
C12   C21   S    
C48   H26   S    
C36   C37   S    
C14   C15   S    
C22   H9    S    
C30   C38   S    
C51   N7    A    
C63   N11   A    
C49   N5    A    
C57   H40   S    
C21   C22   A    
C28   C34   A    
C10   H54   S    
Br4   C47   S    
C38   H19   S    
C17   C19   S    
C32   H16   S    
C6    C31   S    
C32   C33   A    
C1    N1    A    
Br2   C63   S    
N8    N14   A    
C25   C26   A    
C58   H48   S    
N2    Ni3   S    
C59   H43   S    
C34   C49   A    
C57   H39   S    
C23   C35   S    
C10   C11   S    
C7    C17   S    
C51   C52   A    
Br3   C13   S    
C55   C57   S    
C10   C55   S    
N8    Ni1   S    
N13   Ni1   S    
C39   C48   S    
C30   C31   A    
C44   C46   A    
C37   C60   S    
C11   C17   S    
C47   H25   S    
C60   H52   S    
N4    Ni2   S    
C12   C50   A    
N10   Ni3   S    
C5    H45   S    
N15   Ni3   S    
C20   C29   S    
C40   N4    A    
C59   H46   S    
C61   H51   S    
C48   H27   S    
C1    C52   A    
C14   H3    S    
C29   H15   S    
N10   N13   A    
C39   C41   A    
C9    C63   A    
N6    N16   A    
C10   C15   S    
C23   C40   A    
C38   H21   S    
C43   H24   S    
C13   C18   S    
C54   H32   S    
C18   H2    S    
C8    C25   S    
C14   H4    S    
C45   N8    A    
N14   Ni4   S    
C15   C34   S    
C57   H38   S    
C20   C21   A    
C4    H56   S    
C46   C47   S    
N2    N4    A    
C53   H37   S    
C5    N15   A    
C27   C29   S    
C24   C25   A    
C28   H20   S    
N11   Ni4   S    
C42   C43   A    
C50   N6    A    
N9    N15   A    
C16   H10   S    
C19   H6    S    
N1    Ni1   S    
C60   H53   S    
C18   H8    S    
C16   N2    A    
N3    Ni4   S    
C5    C7    A    
C58   H47   S    
C39   C46   A    
C4    C12   A    
C35   C36   A    
C16   C23   A    
C33   H17   S    
C62   H12   S    
C61   H50   S    
C41   C52   S    
C9    C64   A    
N16   Ni2   S    
Br5   C45   S    
N7    Ni3   S    
C37   C38   S    
C54   H35   S    
N5    Ni1   S    
C47   C48   S    
C56   N9    A    
C8    C62   A    
C28   N3    A    
C64   N12   A    
C1    H1    S    
C27   H14   S    
C41   C42   A    
C43   C44   A    
C13   H7    S    
C59   H44   S    
C54   H33   S    
C42   H22   S    
C26   C27   S    
N1    N7    A    
Br1   C56   S    
C4    N16   A    
C53   C64   S    
C27   H13   S    
N11   N12   A    
C3    N14   A    
C53   H36   S    
N6    Ni4   S    
C62   N10   A    
C53   C54   S    
C6    C45   A    
N12   Ni2   S    
C2    N13   A    
C7    C56   A    
C19   H5    S    
C24   H11   S    
C22   C24   A    
C3    C6    A    
C2    H23   S    
C29   C58   S    
C14   C19   S    
C13   C15   S    
C11   H55   S    
C30   C36   A    
C3    H34   S    
N9    Ni2   S    
C55   H41   S    
C58   C59   S    
C9    C44   S    
C2    C8    A    
C31   C32   A    
C60   C61   S    
C61   H49   S    
C50   H30   S    
C55   H42   S    
C51   H31   S    
C17   C18   S    
C49   H29   S    
C40   H28   S    
C37   H18   S    
C11   H57   S    
N3    N5    A    
