data_mof_unit_18301.cif
_audit_creation_date              2013-03-05T15:43:55-0500
_audit_creation_method            fapswitch 2.2
_symmetry_space_group_name_H-M    P1
_symmetry_Int_Tables_number       1
_space_group_crystal_system       triclinic
_cell_length_a                    8.508743
_cell_length_b                    15.225326
_cell_length_c                    19.068285
_cell_angle_alpha                 100.34089
_cell_angle_beta                  92.124834
_cell_angle_gamma                 99.64737
_cell_volume                      2390.02302595

loop_
_atom_site_label
_atom_site_type_symbol
_atom_site_description
_atom_site_fract_x
_atom_site_fract_y
_atom_site_fract_z
_atom_type_partial_charge
P1    P     P_3+3 0.038110 0.412300 0.335300 0.585364
O1    O     O_2   0.871030 0.438240 0.324420 -0.423940
O2    O     O_3   0.120590 0.445310 0.413740 -0.298108
O3    O     O_3   0.663040 0.605930 0.370050 -0.393523
O4    O     O_2   0.777263 0.541955 0.244002 -0.231403
O5    O     O_3   0.013572 0.293973 0.314778 -0.534122
O6    O     O_3   0.636570 0.685780 0.247327 -0.585632
C1    C     C_3   0.853742 0.758319 0.188972 0.526445
H1    H     H_    0.973249 0.802594 0.198346 0.011605
P2    P     P_3+3 0.679950 0.711710 0.558590 0.551189
P3    P     P_3+3 0.156679 0.771367 0.407343 0.661702
O7    O     O_2   0.855660 0.723510 0.537160 -0.343959
O8    O     O_3   0.086340 0.654970 0.406630 -0.212415
O9    O     O_2   0.019029 0.818853 0.436120 -0.323087
O10   O     O_3   0.693334 0.741381 0.651876 -0.572546
O11   O     O_3   0.158523 0.793244 0.319700 -0.507866
C2    C     C_3   0.293989 0.772713 0.283734 0.063623
H2    H     H_    0.390575 0.760347 0.319416 0.041510
C3    C     C_3   0.358892 0.852657 0.246876 0.355958
H3    H     H_    0.267891 0.859968 0.206019 0.076891
C4    C     C_3   0.307452 0.769169 0.687607 0.138891
H4    H     H_    0.412037 0.734907 0.680418 0.095669
C5    C     C_3   0.330075 0.846515 0.756173 0.058082
H5    H     H_    0.259079 0.820519 0.797472 0.186915
Ba1   Ba    Ba6+2 0.854120 0.540280 0.465540 1.772106
C6    C     C_3   0.868267 0.248191 0.331429 0.246051
H6    H     H_    0.780257 0.292816 0.346507 0.077802
C7    C     C_3   0.800958 0.176145 0.265730 -0.671707
H7    H     H_    0.793338 0.208263 0.218038 0.249606
H8    H     H_    0.681407 0.141551 0.274377 0.254126
H9    H     H_    0.876618 0.123091 0.254817 0.310277
C8    C     C_3   0.785972 0.690286 0.684317 0.070593
H10   H     H_    0.876324 0.665282 0.649637 0.099855
H11   H     H_    0.706632 0.631317 0.698594 0.106810
C9    C     C_3   0.869408 0.751886 0.752072 1.216645
H12   H     H_    0.941421 0.813617 0.738340 0.074510
P4    P     P_3+3 0.151600 0.587780 0.664700 0.567147
O12   O     O_2   0.318670 0.561790 0.675630 -0.340429
O13   O     O_3   0.069120 0.554770 0.586270 -0.347892
O14   O     O_3   0.526680 0.394150 0.629950 -0.332980
O15   O     O_3   0.165093 0.707415 0.692282 -0.571754
P5    P     P_3+3 0.037160 0.230635 0.596451 0.558142
O16   O     O_3   0.607620 0.388570 0.462320 -0.362711
O17   O     O_3   0.103380 0.345110 0.593380 -0.314082
O18   O     O_2   0.127706 0.178213 0.538611 -0.308236
O19   O     O_3   0.117207 0.208981 0.675670 -0.471634
Ba2   Ba    Ba6+2 0.335710 0.459790 0.534460 1.714552
P6    P     P_3+3 0.631246 0.580293 0.274545 0.624742
C10   C     C_3   0.787046 0.743102 0.260775 0.732327
H13   H     H_    0.772827 0.791978 0.159923 0.096453
O20   O     O_3   0.582100 0.611510 0.537680 -0.363696
C11   C     C_3   0.386051 0.245901 0.304017 0.481864
C12   C     C_3   0.465931 0.258921 0.233794 1.198832
H14   H     H_    0.584721 0.303297 0.246444 -0.050253
P7    P     P_3+3 0.510367 0.273395 0.440918 0.511581
O21   O     O_2   0.334040 0.276520 0.462890 -0.247173
O22   O     O_3   0.500601 0.221690 0.349487 -0.747387
C13   C     C_3   0.006756 0.215205 0.728361 0.180202
H15   H     H_    0.962728 0.280843 0.734855 0.043535
H16   H     H_    0.904780 0.157885 0.714403 0.083686
C14   C     C_3   0.094252 0.209277 0.798222 -0.557573
H17   H     H_    0.167163 0.276763 0.821037 0.232606
H18   H     H_    0.175187 0.159342 0.786437 0.227136
P8    P     P_3+3 0.562538 0.399641 0.722325 0.498500
C15   C     C_3   0.529879 0.222735 0.718374 0.292253
H19   H     H_    0.658187 0.242567 0.708922 -0.098861
O23   O     O_2   0.467702 0.472308 0.756709 -0.348690
O24   O     O_3   0.462802 0.299421 0.747975 -0.517342
H20   H     H_    0.618012 0.112207 0.757314 0.211178
C16   C     C_3   0.519727 0.151481 0.768195 -0.742538
H21   H     H_    0.406872 0.101374 0.756665 0.249321
C17   C     C_R   0.005431 0.422711 0.039578 -0.001379
C18   C     C_R   0.898302 0.390217 0.087827 -0.167423
C19   C     C_R   0.736707 0.361379 0.064458 0.659104
C20   C     C_R   0.681171 0.368015 0.995932 0.546623
C21   C     C_R   0.786918 0.398440 0.946652 -0.178495
C22   C     C_R   0.949811 0.426733 0.968453 0.025896
C23   C     C_R   0.731695 0.402205 0.876736 -0.098137
C24   C     C_R   0.835144 0.435099 0.827016 -0.007526
C25   C     C_R   0.997895 0.470372 0.850100 0.003024
C26   C     C_R   0.054922 0.463302 0.920675 0.062965
C27   C     C_R   0.777491 0.439400 0.756717 0.195264
C28   C     C_R   0.880949 0.481112 0.711555 -0.465942
C29   C     C_R   0.038505 0.525112 0.733759 0.281102
C30   C     C_R   0.099068 0.519678 0.805963 -0.077137
C31   C     C_R   0.166797 0.453429 0.063029 0.071433
C32   C     C_R   0.221089 0.456292 0.135809 -0.019905
C33   C     C_R   0.110225 0.429697 0.185983 0.004155
C34   C     C_R   0.951471 0.392016 0.159619 0.001726
H22   H     H_    0.834056 0.483788 0.658591 0.136807
H23   H     H_    0.605459 0.382362 0.862473 0.218600
H24   H     H_    0.865833 0.368802 0.195632 0.165522
C35   C     C_R   0.250698 0.566207 0.839206 -0.073651
C36   C     C_R   0.317447 0.544422 0.902646 -0.007100
C37   C     C_R   0.215805 0.495855 0.944995 0.095793
C38   C     C_R   0.271622 0.488634 0.015287 0.032081
C39   C     C_R   0.478627 0.579675 0.930894 -0.180690
C40   C     C_R   0.534483 0.562601 0.995508 -0.122660
C41   C     C_R   0.432052 0.520952 0.039204 -0.015150
C42   C     C_R   0.384313 0.491914 0.159167 -0.077477
C43   C     C_R   0.489142 0.516768 0.108049 0.788904
C44   C     C_R   0.432403 0.510580 0.233576 0.180095
C45   C     C_R   0.315287 0.494952 0.281274 -0.427081
C46   C     C_R   0.159425 0.450718 0.261109 0.260144
H25   H     H_    0.658674 0.588589 0.014110 0.198104
C47   C     C_R   0.738242 0.243831 0.538658 -0.365110
C48   C     C_R   0.821565 0.189868 0.571820 0.144542
C49   C     C_R   0.754180 0.098769 0.569506 -0.289077
C50   C     C_R   0.622859 0.054007 0.520437 0.161893
C51   C     C_R   0.547724 0.110515 0.483624 -0.295229
C52   C     C_R   0.602503 0.204222 0.493941 0.281919
C53   C     C_R   0.409698 0.914158 0.471906 -0.305019
C54   C     C_R   0.348002 0.821178 0.460210 0.051233
C55   C     C_R   0.585510 0.794107 0.519349 0.013835
C56   C     C_R   0.656867 0.887092 0.526154 -0.233624
C57   C     C_R   0.564323 0.950935 0.506308 0.161530
C58   C     C_R   0.430441 0.764007 0.489538 0.511007
H26   H     H_    0.330045 0.956471 0.456979 0.197007
H27   H     H_    0.809835 0.065073 0.605602 0.142842
H28   H     H_    0.447015 0.083814 0.445960 0.136654
H29   H     H_    0.788124 0.314748 0.541673 0.150115
F1    F     F_    0.891942 0.707451 0.298810 -0.605632
C59   C     C_2   0.501594 0.880102 0.786701 1.194682
O25   O     O_2   0.534203 0.880145 0.849673 -0.495320
O26   O     O_R   0.623602 0.915472 0.746854 -0.697853
H30   H     H_    0.588839 0.915685 0.695776 0.325145
F2    F     F_    0.263464 0.921184 0.746405 -0.664578
C60   C     C_2   0.905458 0.205771 0.393127 0.968403
O27   O     O_2   0.987128 0.253797 0.443968 -0.580277
O28   O     O_R   0.858478 0.112729 0.391458 -0.738819
H31   H     H_    0.901569 0.092674 0.435058 0.374924
F3    F     F_    0.968920 0.708073 0.786229 -0.755085
F4    F     F_    0.757807 0.777553 0.798324 -0.623809
C61   C     C_2   0.769887 0.833100 0.306122 1.033353
O29   O     O_2   0.831188 0.904615 0.289786 -0.523959
O30   O     O_R   0.689454 0.836412 0.368598 -0.756758
H32   H     H_    0.648862 0.773868 0.378630 0.281562
C62   C     C_2   0.236226 0.172554 0.287853 1.085500
O31   O     O_2   0.159534 0.160545 0.230193 -0.541363
O32   O     O_R   0.175719 0.122036 0.338230 -0.703185
H33   H     H_    0.246648 0.132472 0.383723 0.329119
F5    F     F_    0.340767 0.326887 0.332578 -0.669503
F6    F     F_    0.483567 0.175463 0.193918 -0.681351
F7    F     F_    0.374843 0.300658 0.192430 -0.642700
F8    F     F_    0.868628 0.677800 0.145621 -0.612903
F9    F     F_    0.494287 0.836881 0.212314 -0.665309
C63   C     C_2   0.986707 0.177901 0.852399 1.125381
O33   O     O_2   0.902721 0.102678 0.838856 -0.531744
O34   O     O_R   0.992998 0.231937 0.920222 -0.767509
H34   H     H_    0.925278 0.201121 0.954490 0.352699
C64   C     C_2   0.439294 0.178169 0.648002 1.051459
O35   O     O_2   0.410591 0.225241 0.605736 -0.553916
O36   O     O_R   0.382217 0.084557 0.631484 -0.767835
H35   H     H_    0.314813 0.065122 0.584558 0.350816
C65   C     C_2   0.241773 0.689853 0.226393 1.019399
O37   O     O_2   0.318034 0.676036 0.173691 -0.622564
O38   O     O_R   0.100716 0.631178 0.231500 -0.698701
H36   H     H_    0.060670 0.590921 0.184056 0.355232
C66   C     C_2   0.524149 0.187707 0.846574 1.205711
O39   O     O_2   0.418585 0.226916 0.870630 -0.556329
O40   O     O_R   0.637516 0.166943 0.892662 -0.767247
H37   H     H_    0.617175 0.185168 0.944817 0.349070
F10   F     F_    0.629795 0.330449 0.109200 -0.634593
F11   F     F_    0.521628 0.347639 0.979249 -0.640737
C67   C     C_2   0.296717 0.661266 0.835416 1.035934
O41   O     O_2   0.403342 0.684770 0.798252 -0.647189
O42   O     O_R   0.240310 0.724155 0.886858 -0.732365
H38   H     H_    0.314553 0.784758 0.899373 0.359905
C68   C     C_2   0.598508 0.637972 0.898880 1.124793
O43   O     O_2   0.618828 0.720410 0.918958 -0.508584
O44   O     O_R   0.707123 0.598356 0.856552 -0.789746
H39   H     H_    0.814899 0.639368 0.862433 0.381425
F12   F     F_    0.647718 0.540455 0.124459 -0.655660
C69   C     C_2   0.357100 0.533746 0.354642 1.125641
O45   O     O_2   0.360642 0.614438 0.374333 -0.678344
O46   O     O_R   0.424056 0.482436 0.396286 -0.660584
H40   H     H_    0.493670 0.520940 0.436923 0.387166
C70   C     C_2   0.827595 0.914864 0.551196 1.067276
O47   O     O_2   0.920755 0.954058 0.514845 -0.599824
O48   O     O_R   0.879876 0.902992 0.618761 -0.773015
H41   H     H_    0.996869 0.930140 0.631812 0.346836
F13   F     F_    0.349387 0.682757 0.499171 -0.645391
C71   C     C_2   0.397650 0.940413 0.298323 0.996139
O49   O     O_2   0.290811 0.971339 0.329607 -0.636199
O50   O     O_R   0.554419 0.987691 0.308764 -0.680116
H42   H     H_    0.563579 0.047104 0.343431 0.330841
C72   C     C_2   0.278780 0.813014 0.625719 0.999176
O51   O     O_2   0.359803 0.885748 0.619674 -0.672075
O52   O     O_R   0.145320 0.775621 0.579011 -0.697970
H43   H     H_    0.114934 0.823485 0.552882 0.332205

loop_
_geom_bond_atom_site_label_1
_geom_bond_atom_site_label_2
_geom_bond_distance
_ccdc_geom_bond_type
O14   Ba2   2.816509 S    
C32   C33   1.430782 A    
C35   C36   1.432543 A    
C1    H13   1.111453 S    
C65   O38   1.388747 S    
C68   O43   1.225439 D    
C43   F12   1.346705 S    
C37   C38   1.434350 A    
O44   H39   1.009336 S    
O8    Ba1   2.815592 S    
C60   O27   1.217638 D    
C9    F4    1.376599 S    
C55   C56   1.424740 A    
C59   O25   1.222214 D    
C12   H14   1.109421 S    
C11   C12   1.553019 S    
P8    O23   1.543743 D    
C6    H6    1.105184 S    
C67   O41   1.217884 D    
C40   H25   1.086594 S    
C28   C29   1.407243 A    
P8    O24   1.775496 S    
C5    F2    1.390149 S    
C7    H7    1.111852 S    
C63   O34   1.396565 S    
P4    O12   1.554677 D    
C21   C23   1.411186 A    
C16   C66   1.494071 S    
P2    O10   1.749418 S    
C71   O50   1.394319 S    
C19   F10   1.354757 S    
C26   C37   1.406282 A    
P3    O9    1.544231 D    
P7    O21   1.578655 D    
C59   O26   1.401091 S    
C47   C48   1.387826 A    
C13   H16   1.109524 S    
C15   C16   1.559338 S    
C38   C41   1.400591 A    
C39   C40   1.387236 A    
C39   C68   1.462252 S    
C49   C50   1.423647 A    
P1    O1    1.554290 D    
P5    O19   1.741301 S    
O2    Ba2   2.840413 S    
C14   H18   1.108320 S    
C51   C52   1.400374 A    
C50   C57   1.536122 S    
C69   O45   1.213424 D    
C30   C35   1.428300 A    
O38   H36   1.009099 S    
C63   O33   1.222648 D    
C1    H1    1.110800 S    
C11   C62   1.528861 S    
C48   C49   1.401473 A    
C66   O40   1.393507 S    
P4    C29   1.951353 S    
C16   H21   1.109512 S    
C22   C26   1.419689 A    
P4    Ba2   3.463125 S    
P5    C48   1.849549 S    
Ba1   Ba2   4.677847 S    
P2    C55   1.846538 S    
O17   Ba2   2.816181 S    
C17   C18   1.412999 A    
C13   C14   1.526154 S    
C35   C67   1.450160 S    
C67   O42   1.400399 S    
C4    H4    1.105336 S    
O19   C13   1.402634 S    
P1    Ba1   3.462462 S    
C68   O44   1.391657 S    
C49   H27   1.070149 S    
Ba1   O16   2.837953 S    
C44   C45   1.393672 A    
P5    O17   1.751751 S    
P2    O20   1.584565 S    
C53   C54   1.399373 A    
C33   C46   1.440783 A    
C4    C72   1.487898 S    
C69   O46   1.379779 S    
C47   C52   1.390533 A    
C18   C19   1.401387 A    
O32   H33   1.010714 S    
O4    P6    1.548611 D    
C65   O37   1.222053 D    
C3    F9    1.382553 S    
C19   C20   1.399461 A    
P1    O5    1.748459 S    
C56   C70   1.478946 S    
C8    C9    1.525311 S    
C70   O47   1.222954 D    
O10   C8    1.396887 S    
C29   C30   1.473268 A    
O6    C10   1.409806 S    
C11   O22   1.417797 S    
C3    C71   1.487985 S    
O42   H38   1.010835 S    
C23   C24   1.417407 A    
O11   C2    1.413882 S    
Ba2   O20   2.837493 S    
C36   C39   1.433099 A    
C13   H15   1.113054 S    
C45   C69   1.424310 S    
C11   F5    1.378091 S    
C20   F11   1.353389 S    
C12   F6    1.393131 S    
P5    O18   1.549223 D    
C8    H11   1.110926 S    
C15   C64   1.508734 S    
C20   C21   1.409425 A    
Ba1   O20   2.994551 S    
C71   O49   1.219340 D    
C25   C30   1.441154 A    
C24   C27   1.426640 A    
P3    O11   1.761868 S    
C17   C31   1.402873 A    
C66   O39   1.218824 D    
O2    Ba1   2.993212 S    
C64   O35   1.214174 D    
C15   O24   1.420640 S    
P6    C44   1.897844 S    
C1    F8    1.377778 S    
C42   C44   1.426373 A    
C2    H2    1.109133 S    
C36   C37   1.413739 A    
C6    C60   1.488299 S    
C21   C22   1.404380 A    
C34   H24   1.079520 S    
P1    C46   1.900523 S    
P8    C27   1.881258 S    
O12   Ba2   2.877940 S    
P2    O7    1.554390 D    
C54   C58   1.383031 A    
P2    Ba1   3.462040 S    
O16   P7    1.777085 S    
O46   H40   0.990684 S    
C41   C43   1.398738 A    
C40   C41   1.383576 A    
C4    C5    1.576665 S    
O26   H30   1.008063 S    
C4    O15   1.419710 S    
C31   C38   1.409523 A    
C15   H19   1.113192 S    
C51   H28   1.071512 S    
C2    C65   1.505115 S    
C10   C61   1.515800 S    
O3    Ba1   2.817170 S    
C53   C57   1.425489 A    
O48   H41   1.015144 S    
O13   Ba2   2.994215 S    
C32   C42   1.427000 A    
O3    P6    1.792999 S    
O52   H43   1.014948 S    
C28   H22   1.082202 S    
C5    C59   1.519942 S    
P7    C52   1.829274 S    
C31   C32   1.437094 A    
C7    H9    1.110906 S    
C25   C26   1.441918 A    
C60   O28   1.400229 S    
C17   C22   1.434922 A    
C61   O30   1.393051 S    
C61   O29   1.223981 D    
C62   O32   1.395931 S    
C23   H23   1.076581 S    
C6    C7    1.530874 S    
O14   P8    1.761093 S    
O7    Ba1   2.875154 S    
C12   F7    1.387906 S    
O6    P6    1.768485 S    
C3    H3    1.110935 S    
P7    O22   1.772221 S    
O28   H31   1.012373 S    
C14   C63   1.494501 S    
C18   C34   1.419821 A    
C72   O51   1.229110 D    
P4    O13   1.586133 S    
O40   H37   1.012802 S    
O34   H34   1.013164 S    
C8    H10   1.103937 S    
C53   H26   1.073912 S    
P3    O8    1.770390 S    
O50   H42   1.009552 S    
O5    C6    1.391054 S    
C10   F1    1.368568 S    
C9    F3    1.374968 S    
C47   H29   1.082397 S    
C7    H8    1.096997 S    
C42   C43   1.404502 A    
C2    C3    1.546294 S    
O1    Ba1   2.877176 S    
C64   O36   1.400710 S    
P4    O15   1.785809 S    
C14   H17   1.111640 S    
P3    C54   1.852440 S    
H20   C16   1.111713 S    
C72   O52   1.390386 S    
C55   C58   1.386460 A    
C62   O31   1.225859 D    
C5    H5    1.099433 S    
C24   C25   1.421453 A    
C33   C34   1.411697 A    
C27   C28   1.408924 A    
C45   C46   1.389259 A    
O30   H32   1.011305 S    
C9    H12   1.111131 S    
P1    O2    1.586300 S    
O36   H35   1.013486 S    
C50   C51   1.417594 A    
C70   O48   1.399454 S    
O16   Ba2   2.993692 S    
C1    C10   1.541992 S    
Ba1   O13   2.839920 S    
C56   C57   1.440343 A    
C58   F13   1.358215 S    
Ba2   O21   2.875210 S    
