data_mof_unit_34432.cif
_audit_creation_date              2013-03-05T16:31:36-0500
_audit_creation_method            fapswitch 2.2
_symmetry_space_group_name_H-M    P1
_symmetry_Int_Tables_number       1
_space_group_crystal_system       triclinic
_cell_length_a                    9.597758
_cell_length_b                    10.87541
_cell_length_c                    15.827605
_cell_angle_alpha                 88.215597
_cell_angle_beta                  72.952681
_cell_angle_gamma                 91.431767
_cell_volume                      1577.71861763

loop_
_atom_site_label
_atom_site_type_symbol
_atom_site_description
_atom_site_fract_x
_atom_site_fract_y
_atom_site_fract_z
_atom_type_partial_charge
O1    O     O_R   0.118810 0.319640 0.500000 -0.578688
O2    O     O_R   0.881230 0.319680 0.499990 -0.598463
C1    C     C_R   0.996876 0.262555 0.503107 0.814253
O3    O     O_R   0.055580 0.499970 0.629840 -0.598228
O4    O     O_R   0.818000 0.500010 0.629830 -0.592135
C2    C     C_R   0.916806 0.499851 0.671076 0.776466
Cu1   Cu    Cu3+1 0.140670 0.499980 0.500000 1.020504
Cu2   Cu    Cu3+1 0.859330 0.500020 0.500000 0.965179
O5    O     O_R   0.118770 0.680320 0.500010 -0.582256
O6    O     O_R   0.881190 0.680360 0.500000 -0.591465
O7    O     O_R   0.182000 0.499990 0.370170 -0.506479
O8    O     O_R   0.944420 0.500030 0.370160 -0.587865
C3    C     C_R   0.999273 0.737720 0.503028 0.802505
C4    C     C_R   0.082403 0.492099 0.328842 0.876842
C5    C     C_R   0.868840 0.507903 0.767006 -0.041074
C6    C     C_R   0.126863 0.467951 0.233234 -0.126750
C7    C     C_R   0.906889 0.586735 0.899230 -0.110079
C8    C     C_R   0.960415 0.562870 0.810259 -0.178921
C9    C     C_R   0.725816 0.470256 0.814164 -0.232775
C10   C     C_R   0.669390 0.491229 0.904871 0.092875
C11   C     C_R   0.762309 0.553379 0.946212 0.183084
C12   C     C_R   0.522500 0.457664 0.954806 0.080995
C13   C     C_R   0.470338 0.491796 0.044169 0.082604
C14   C     C_R   0.565807 0.558749 0.080324 -0.153654
C15   C     C_R   0.709401 0.585538 0.033432 -0.168915
C16   C     C_R   0.425892 0.391790 0.918880 -0.221878
C17   C     C_R   0.280555 0.367803 0.966944 -0.151406
C18   C     C_R   0.224624 0.406688 0.053693 0.033755
C19   C     C_R   0.322950 0.462015 0.094167 0.037118
C20   C     C_R   0.075145 0.386158 0.103314 0.328737
C21   C     C_R   0.027749 0.421336 0.191726 -0.228332
C22   C     C_R   0.272779 0.481707 0.184974 -0.148555
H1    H     H_    0.778211 0.635819 0.064980 0.158119
H2    H     H_    0.347462 0.501737 0.220758 0.244351
H3    H     H_    0.913993 0.407179 0.229202 0.211053
H4    H     H_    0.214475 0.315413 0.935281 0.200606
H5    H     H_    0.977930 0.633196 0.931129 0.137650
H6    H     H_    0.071112 0.592684 0.774431 0.150580
H7    H     H_    0.659760 0.428821 0.777525 0.142412
H8    H     H_    0.532119 0.596214 0.144154 0.226671
H9    H     H_    0.459195 0.356348 0.853472 0.138673
C23   C     C_R   0.110300 0.067106 0.520900 0.001827
C24   C     C_R   0.988740 0.129415 0.514374 -0.042473
C25   C     C_R   0.859393 0.060593 0.522018 -0.184221
H10   H     H_    0.759610 0.105591 0.522908 0.152050
C26   C     C_R   0.860950 0.931777 0.522611 -0.189295
H11   H     H_    0.761385 0.881201 0.524940 0.149971
C27   C     C_R   0.992056 0.870641 0.514738 -0.046203
C28   C     C_R   0.111576 0.940289 0.521841 0.046395
C29   C     C_3   0.266934 0.941302 0.467861 -0.507208
C30   C     C_3   0.266764 0.080447 0.466960 0.183303
H12   H     H_    0.335436 0.903866 0.507656 0.149219
H13   H     H_    0.278789 0.902497 0.402048 0.249952
H14   H     H_    0.338874 0.121145 0.503033 0.077037
C31   C     C_R   0.586567 0.605921 0.483160 0.176535
N1    N     N_R   0.648210 0.500930 0.499430 -0.168983
C32   C     C_R   0.557887 0.398746 0.527623 -0.039584
H15   H     H_    0.599996 0.315892 0.548920 0.119014
C33   C     C_R   0.409256 0.399106 0.528235 0.013827
H16   H     H_    0.341160 0.317455 0.551495 0.113503
N2    N     N_R   0.352300 0.500890 0.499430 -0.160883
C34   C     C_R   0.439471 0.606704 0.483170 0.121190
C35   C     C_3   0.488329 0.688356 0.400508 0.153883
C36   C     C_3   0.644115 0.686451 0.403058 -0.484515
H17   H     H_    0.449470 0.781538 0.407959 0.097986
H18   H     H_    0.720514 0.639414 0.347732 0.245590
H19   H     H_    0.685293 0.777085 0.417756 0.162749
N3    N     N_R   0.970495 0.327623 0.066997 0.117347
O9    O     O_R   0.866014 0.256690 0.117620 -0.306600
O10   O     O_R   0.965750 0.357988 0.987852 -0.392172
N4    N     N_R   0.288346 0.136799 0.378458 0.160027
O11   O     O_R   0.210152 0.100718 0.328458 -0.335082
O12   O     O_R   0.386382 0.225064 0.349482 -0.301742
N5    N     N_R   0.467369 0.632631 0.323191 0.142986
O13   O     O_R   0.402632 0.694982 0.275071 -0.417059
O14   O     O_R   0.521052 0.526041 0.299019 -0.365485

loop_
_geom_bond_atom_site_label_1
_geom_bond_atom_site_label_2
_geom_bond_distance
_ccdc_geom_bond_type
C5    C8    1.396602 A    
C31   N1    1.350881 A    
C35   H17   1.086511 S    
C9    C10   1.406125 A    
Cu2   N1    2.029213 S    
Cu1   Cu2   2.700243 S    
C6    C21   1.398780 A    
Cu1   O7    1.975353 S    
C1    C24   1.450714 S    
C16   C17   1.392765 A    
N5    O14   1.302889 A    
C13   C19   1.427233 A    
C18   C19   1.418841 A    
C19   C22   1.400705 A    
C20   C21   1.407240 A    
O7    C4    1.309585 A    
C32   C33   1.423829 A    
C31   C34   1.411990 A    
N1    C32   1.371047 A    
O5    C3    1.308770 A    
Cu1   N2    2.028323 S    
C2    C5    1.457896 S    
N3    O9    1.301703 A    
C29   H12   1.111281 S    
C13   C14   1.413255 A    
C23   C30   1.494902 S    
C33   H16   1.077390 S    
C30   N4    1.466535 S    
O3    Cu1   1.976401 S    
C25   C26   1.401154 A    
C7    C8    1.385480 A    
C26   C27   1.412797 A    
C33   N2    1.370012 A    
C29   H13   1.111928 S    
N5    O13   1.300873 A    
C36   H19   1.109322 S    
C14   C15   1.379076 A    
O3    C2    1.300055 A    
N4    O12   1.300589 A    
C7    C11   1.401130 A    
O1    C1    1.298258 A    
C36   H18   1.111903 S    
C5    C9    1.400430 A    
C24   C25   1.405655 A    
C34   C35   1.505762 S    
O4    Cu2   1.975350 S    
Cu2   O8    1.976401 S    
C31   C36   1.474977 S    
C29   C30   1.512926 S    
C7    H5    1.084258 S    
C9    H7    1.076499 S    
N3    O10   1.299520 A    
C27   C28   1.392757 A    
O8    C4    1.300148 A    
C21   H3    1.083412 S    
C23   C24   1.391709 A    
C25   H10   1.082958 S    
Cu1   O5    1.977718 S    
C11   C15   1.383411 A    
C26   H11   1.081150 S    
O1    Cu1   1.967242 S    
O2    Cu2   1.977716 S    
C10   C12   1.431252 A    
O6    C3    1.293934 A    
C3    C27   1.463882 S    
C35   N5    1.445586 S    
C17   H4    1.078945 S    
C6    C22   1.386487 A    
C30   H14   1.110404 S    
C18   C20   1.427361 A    
O2    C1    1.298085 A    
C8    H6    1.083319 S    
N4    O11   1.302442 A    
C32   H15   1.080756 S    
O4    C2    1.299415 A    
C14   H8    1.063909 S    
C4    C6    1.480774 S    
N2    C34   1.377566 A    
C23   C28   1.379202 A    
C35   C36   1.508156 S    
C10   C11   1.421226 A    
Cu2   O6    1.967242 S    
C28   C29   1.484948 S    
C12   C16   1.413367 A    
C15   H1    1.084819 S    
C17   C18   1.402697 A    
C12   C13   1.419776 A    
C20   N3    1.440079 S    
C16   H9    1.076794 S    
C22   H2    1.058264 S    
