data_mof_unit_37773.cif
_audit_creation_date              2012-12-10T17:42:41-0500
_audit_creation_method            fapswitch 2.2
_symmetry_space_group_name_H-M    P1
_symmetry_Int_Tables_number       1
_space_group_crystal_system       triclinic
_cell_length_a                    9.972978
_cell_length_b                    10.710886
_cell_length_c                    13.04084
_cell_angle_alpha                 94.099284
_cell_angle_beta                  70.321095
_cell_angle_gamma                 89.080837
_cell_volume                      1307.10594389

loop_
_atom_site_label
_atom_site_type_symbol
_atom_type_description
_atom_site_fract_x
_atom_site_fract_y
_atom_site_fract_z
_atom_type_partial_charge
C1    C     C_R   0.498452 0.740336 0.497539 0.893852
C2    C     C_R   0.426997 0.461104 0.985388 -0.030726
C3    C     C_R   0.458577 0.432750 0.872590 0.046249
C4    C     C_R   0.539707 0.446058 0.027500 0.035541
C5    C     C_R   0.667270 0.375368 0.965575 0.151536
C6    C     C_R   0.681784 0.326158 0.859776 -0.248811
C7    C     C_R   0.579881 0.355506 0.813666 -0.173613
C8    C     C_R   0.532563 0.508216 0.126481 -0.294374
C9    C     C_R   0.752797 0.405920 0.119359 -0.239329
C10   C     C_R   0.369271 0.484652 0.821353 -0.124800
C11   C     C_R   0.225790 0.899965 0.533046 -0.170946
C12   C     C_R   0.420813 0.494922 0.703709 0.893840
C13   C     C_R   0.098843 0.970436 0.585185 -0.145919
C14   C     C_R   0.101676 0.088140 0.636160 -0.162434
C15   C     C_R   0.232167 0.140534 0.624602 -0.184100
C16   C     C_R   0.361283 0.073806 0.562918 0.100816
C17   C     C_R   0.359047 0.946562 0.531443 0.103693
C18   C     C_R   0.491182 0.874928 0.498244 -0.134191
C19   C     C_R   0.620339 0.934053 0.478440 -0.231065
C20   C     C_R   0.621422 0.061798 0.488440 -0.223580
C21   C     C_R   0.492680 0.131686 0.526573 -0.120247
C22   C     C_R   0.799459 0.670385 0.659375 0.445905
C23   C     C_R   0.497030 0.262074 0.509668 0.853924
C24   C     C_R   0.843058 0.736581 0.740765 0.105004
C25   C     C_R   0.983931 0.728470 0.733711 -0.319357
C26   C     C_R   0.080740 0.655631 0.650094 -0.211687
C27   C     C_R   0.041224 0.579959 0.573972 0.044017
C28   C     C_R   0.895835 0.582015 0.576415 0.065647
C29   C     C_R   0.957375 0.419298 0.432808 -0.089941
C30   C     C_R   0.099555 0.414067 0.434907 0.218679
C31   C     C_R   0.579554 0.498575 0.295644 0.882836
C32   C     C_R   0.776499 0.357693 0.011478 0.174141
C33   C     C_R   0.628627 0.477822 0.177217 -0.101571
C34   C     C_R   0.236119 0.540062 0.884243 -0.321952
C35   C     C_R   0.193055 0.547083 0.997284 -0.147445
C36   C     C_R   0.285453 0.507164 0.049315 0.425701
H1    H     H_    0.828287 0.383402 0.159432 0.162015
H2    H     H_    0.215938 0.813411 0.489557 0.184040
H3    H     H_    0.998033 0.933076 0.586665 0.140146
H4    H     H_    0.003216 0.141135 0.680124 0.137175
H5    H     H_    0.231499 0.234013 0.662364 0.158234
H6    H     H_    0.723402 0.105643 0.463072 0.167417
H7    H     H_    0.923046 0.354530 0.380382 0.158832
H8    H     H_    0.020933 0.781134 0.792398 0.172471
H9    H     H_    0.187537 0.660818 0.647969 0.237565
H10   H     H_    0.773718 0.268735 0.809720 0.148449
H11   H     H_    0.447778 0.577010 0.168605 0.208830
H12   H     H_    0.165328 0.578437 0.846023 0.182095
H13   H     H_    0.086877 0.584062 0.045088 0.169754
H14   H     H_    0.596834 0.316200 0.731303 0.158876
H15   H     H_    0.721778 0.881727 0.451545 0.173526
N1    N     N_R   0.856860 0.501200 0.500990 -0.121414
N2    N     N_R   0.142450 0.501280 0.501020 -0.134917
O1    O     O_R   0.385310 0.683220 0.500000 -0.656251
O2    O     O_R   0.614640 0.683250 0.500010 -0.552439
O3    O     O_R   0.328400 0.499950 0.653610 -0.650555
O4    O     O_R   0.557730 0.499970 0.653620 -0.539449
O5    O     O_R   0.385360 0.316750 0.499990 -0.644240
O6    O     O_R   0.614690 0.316780 0.500000 -0.635634
O7    O     O_R   0.442270 0.500030 0.346380 -0.619158
O8    O     O_R   0.671600 0.500050 0.346390 -0.609454
Zn1   Zn    Zn3+2 0.346880 0.499980 0.499990 0.912558
Zn2   Zn    Zn3+2 0.653120 0.500020 0.500010 0.972271
O9    O     O_3   0.663539 0.694136 0.663478 -0.721340
H16   H     H_    0.638886 0.784848 0.681062 0.313107
C37   C     C_3   0.740773 0.817096 0.837159 -0.423109
C38   C     C_3   0.631215 0.738025 0.913963 -0.793578
H17   H     H_    0.561056 0.693843 0.872775 0.282705
H18   H     H_    0.686562 0.664062 0.942196 0.263593
H19   H     H_    0.563549 0.798247 0.986362 0.238192
H20   H     H_    0.799272 0.866484 0.885968 0.209909
H21   H     H_    0.686870 0.892504 0.809432 0.187329
C39   C     C_3   0.197320 0.301650 0.375358 -0.343560
C40   C     C_3   0.148745 0.217695 0.295326 -0.990804
H22   H     H_    0.235199 0.146923 0.250679 0.271001
H23   H     H_    0.053467 0.166422 0.340220 0.261585
H24   H     H_    0.124473 0.272847 0.234410 0.279158
H25   H     H_    0.304160 0.332018 0.329229 0.247654
H26   H     H_    0.205587 0.240196 0.437686 0.242043
C41   C     C_3   0.916368 0.286077 0.950255 -0.419553
C42   C     C_3   0.899355 0.144679 0.951815 -0.888032
H27   H     H_    0.864632 0.117806 0.037278 0.266106
H28   H     H_    0.819788 0.113922 0.913977 0.252186
H29   H     H_    0.003161 0.095268 0.905331 0.256606
H30   H     H_    0.960316 0.312860 0.864946 0.199430
H31   H     H_    0.997806 0.311229 0.988290 0.217441
O10   O     O_3   0.228885 0.505052 0.161084 -0.794808
H32   H     H_    0.277895 0.435326 0.181838 0.340700

loop_
_geom_bond_atom_site_label_1
_geom_bond_atom_site_label_2
_ccdc_geom_bond_type
O5    Zn1   S    
C23   O5    A    
O10   H32   S    
C16   C21   A    
C28   N1    A    
C39   C40   S    
C31   O8    A    
C19   C20   A    
C4    C8    A    
C42   H27   S    
C23   O6    A    
C1    C18   S    
C41   H30   S    
C40   H23   S    
C34   C35   A    
C3    C7    A    
C5    C6    A    
C15   C16   A    
O7    Zn1   S    
C18   C19   A    
O8    Zn2   S    
C41   H31   S    
C9    C32   A    
C37   H21   S    
C35   C36   A    
C16   C17   A    
C40   H24   S    
O2    Zn2   S    
C35   H13   S    
C39   H25   S    
C31   C33   S    
C26   H9    S    
C24   C37   S    
C5    C32   A    
C37   C38   S    
C22   C28   A    
C13   C14   A    
C29   H7    S    
C9    C33   A    
C25   H8    S    
C42   H28   S    
O4    Zn2   S    
C36   O10   S    
C30   N2    A    
C40   H22   S    
C38   H17   S    
C24   C25   A    
C15   H5    S    
C30   C39   S    
C4    C5    A    
O1    Zn1   S    
C25   C26   A    
C14   H4    S    
C38   H18   S    
C31   O7    A    
C11   H2    S    
C2    C4    A    
C1    O1    A    
C29   C30   A    
C32   C41   S    
N2    Zn1   S    
C37   H20   S    
C9    H1    S    
C17   C18   A    
C39   H26   S    
C10   C34   A    
C12   O3    A    
C10   C12   S    
C12   O4    A    
C21   C23   S    
C26   C27   A    
O3    Zn1   S    
C34   H12   S    
C42   H29   S    
C2    C36   A    
C11   C17   A    
C6    H10   S    
C7    H14   S    
C41   C42   S    
N1    Zn2   S    
C20   H6    S    
C27   N2    A    
C6    C7    A    
O6    Zn2   S    
C38   H19   S    
O9    H16   S    
C2    C3    A    
C1    O2    A    
C8    H11   S    
C3    C10   A    
C11   C13   A    
C22   C24   A    
C8    C33   A    
C13   H3    S    
C22   O9    S    
C19   H15   S    
C20   C21   A    
C27   C28   A    
C14   C15   A    
C29   N1    A    
