data_mof_unit_40591.cif
_audit_creation_date              2012-12-11T14:15:44-0500
_audit_creation_method            fapswitch 2.2
_symmetry_space_group_name_H-M    P1
_symmetry_Int_Tables_number       1
_space_group_crystal_system       triclinic
_cell_length_a                    11.159618
_cell_length_b                    12.70258
_cell_length_c                    23.572976
_cell_angle_alpha                 90.449223
_cell_angle_beta                  96.945257
_cell_angle_gamma                 68.539915
_cell_volume                      3084.72713239

loop_
_atom_site_label
_atom_site_type_symbol
_atom_type_description
_atom_site_fract_x
_atom_site_fract_y
_atom_site_fract_z
_atom_type_partial_charge
C1    C     C_R   0.149252 0.616827 0.428803 0.557232
C2    C     C_2   0.184332 0.222086 0.228237 -0.140521
C3    C     C_2   0.143993 0.160892 0.263091 0.052334
C4    C     C_R   0.749659 0.604123 0.403900 0.544550
C5    C     C_1   0.127872 0.196961 0.321112 -0.034068
C6    C     C_1   0.212785 0.191371 0.170700 0.011624
C7    C     C_1   0.114931 0.231363 0.368751 0.012952
C8    C     C_1   0.168293 0.749080 0.123650 -0.003616
C9    C     C_2   0.143444 0.687791 0.227763 -0.111828
C10   C     C_2   0.235714 0.678106 0.271819 -0.094153
C11   C     C_1   0.216904 0.653800 0.329278 -0.025774
C12   C     C_R   0.661408 0.557881 0.310767 -0.127843
C13   C     C_1   0.156293 0.719709 0.170650 -0.048466
C14   C     C_1   0.193200 0.635579 0.376141 0.012715
C15   C     C_1   0.620602 0.761890 0.864388 0.092421
C16   C     C_R   0.100943 0.282410 0.423381 0.562999
C17   C     C_2   0.662641 0.739443 0.756736 -0.131870
C18   C     C_2   0.726831 0.639429 0.735043 0.063874
C19   C     C_1   0.718105 0.632944 0.673879 -0.023130
C20   C     C_1   0.645179 0.751683 0.816029 0.058618
C21   C     C_1   0.722131 0.622731 0.623438 0.044047
C22   C     C_R   0.194625 0.175806 0.853426 0.011821
C23   C     C_R   0.713981 0.727858 0.317825 -0.121260
C24   C     C_R   0.107782 0.232186 0.641291 0.003309
C25   C     C_R   0.068909 0.112934 0.710445 -0.108045
C26   C     C_R   0.065484 0.143161 0.653049 0.037971
C27   C     C_R   0.148747 0.290128 0.685502 -0.109781
C28   C     C_R   0.147883 0.615106 0.591820 0.574439
C29   C     C_R   0.155044 0.257926 0.741750 0.059933
C30   C     C_R   0.115773 0.168095 0.754410 0.033416
C31   C     C_R   0.132229 0.129851 0.810750 -0.101722
C32   C     C_R   0.228699 0.267917 0.841233 -0.110489
C33   C     C_R   0.205922 0.310874 0.785389 -0.083016
C34   C     C_R   0.704640 0.735857 0.258368 0.040014
C35   C     C_R   0.124496 0.738050 0.855071 -0.044929
C36   C     C_R   0.181228 0.629289 0.652500 -0.027853
C37   C     C_R   0.317684 0.569003 0.744073 0.012502
C38   C     C_R   0.303264 0.566593 0.683594 0.006637
C39   C     C_R   0.076858 0.693148 0.681111 -0.135707
C40   C     C_R   0.751833 0.601163 0.566485 0.557322
C41   C     C_R   0.090438 0.698319 0.739651 -0.002281
C42   C     C_R   0.211080 0.637979 0.771692 -0.013227
C43   C     C_R   0.224987 0.656776 0.829943 -0.118883
C44   C     C_R   0.999307 0.786152 0.824257 0.001490
C45   C     C_R   0.682485 0.649323 0.226050 0.040900
C46   C     C_R   0.984052 0.766138 0.766123 -0.108193
C47   C     C_R   0.265956 0.109899 0.069440 0.542475
C48   C     C_R   0.600909 0.774406 0.081089 0.547103
C49   C     C_R   0.189821 0.787580 0.069812 0.549595
C50   C     C_R   0.240541 0.114775 0.907791 0.532778
C51   C     C_R   0.574417 0.776539 0.918704 0.558671
C52   C     C_R   0.100447 0.277934 0.584612 0.585182
C53   C     C_R   0.163067 0.785201 0.907883 0.521395
C54   C     C_R   0.669952 0.752555 0.139110 0.006759
C55   C     C_R   0.697887 0.635844 0.344192 0.010846
C56   C     C_R   0.677551 0.653517 0.167444 -0.116748
C57   C     C_R   0.657463 0.562740 0.252130 -0.142678
C58   C     C_2   0.810621 0.536015 0.770459 0.636464
C59   C     C_2   0.023022 0.077472 0.607563 0.580465
C60   C     C_2   0.884591 0.859814 0.850798 0.608722
C61   C     C_2   0.444052 0.502147 0.777983 0.594526
C62   C     C_2   0.414109 0.498714 0.653152 0.617827
C63   C     C_2   0.114234 0.059313 0.245211 0.593776
C64   C     C_R   0.695431 0.838075 0.170573 -0.128301
C65   C     C_R   0.717024 0.827825 0.230339 -0.132583
C66   C     C_1   0.237291 0.159916 0.123487 0.040083
Cr1   Cr    Cr6+3 0.189770 0.415650 0.511620 1.077646
Cr2   Cr    Cr6+3 0.930400 0.667320 0.496770 1.038497
Cr3   Cr    Cr6+3 0.879870 0.417010 0.491650 1.081897
Cr4   Cr    Cr6+3 0.149500 0.973980 0.985330 1.079434
Cr5   Cr    Cr6+3 0.457000 0.976510 0.994660 1.070703
Cr6   Cr    Cr6+3 0.411170 0.724270 0.995270 1.035230
H1    H     H_    0.608206 0.812491 0.728169 0.123921
H2    H     H_    0.276621 0.303589 0.874419 0.149768
H3    H     H_    0.234641 0.380849 0.775837 0.157161
H4    H     H_    0.938552 0.963649 0.587415 0.349422
H5    H     H_    0.177274 0.360544 0.675917 0.129329
H6    H     H_    0.319387 0.617984 0.854586 0.180488
H7    H     H_    0.690763 0.915077 0.149398 0.141643
H8    H     H_    0.929923 0.760837 0.923068 0.296211
H9    H     H_    0.540082 0.386285 0.841801 0.358504
H10   H     H_    0.560833 0.349665 0.647139 0.355536
H11   H     H_    0.981717 0.738282 0.657721 0.153557
H12   H     H_    0.107537 0.057507 0.820621 0.134585
H13   H     H_    0.635593 0.498402 0.227232 0.114767
H14   H     H_    0.734567 0.894846 0.254460 0.128205
H15   H     H_    0.740035 0.789450 0.343354 0.133264
H16   H     H_    0.075040 0.965404 0.181423 0.341823
H17   H     H_    0.323726 0.691728 0.265207 0.148824
H18   H     H_    0.040168 0.043402 0.721094 0.164355
H19   H     H_    0.890082 0.807000 0.740959 0.138965
H20   H     H_    0.646371 0.487283 0.330033 0.147408
H21   H     H_    0.202233 0.296143 0.244289 0.108513
H22   H     H_    0.662087 0.584969 0.143803 0.137359
H23   H     H_    0.054971 0.675277 0.234708 0.139240
H24   H     H_    0.909100 0.466752 0.847001 0.338930
O1    O     O_R   0.196340 0.303200 0.448500 -0.505270
O2    O     O_R   0.555390 0.700940 0.062700 -0.520697
O3    O     O_R   0.295020 0.731920 0.049950 -0.497654
O4    O     O_R   0.199310 0.519670 0.454880 -0.489912
O5    O     O_R   0.094290 0.884230 0.921550 -0.479553
O6    O     O_R   0.168980 0.069410 0.926940 -0.502449
O7    O     O_R   0.358400 0.089990 0.927950 -0.497828
O8    O     O_R   0.544850 0.873850 0.939920 -0.470476
O9    O     O_R   0.536020 0.701900 0.936430 -0.510507
O10   O     O_R   0.277070 0.732810 0.932890 -0.511879
O11   O     O_3   0.339220 0.891590 0.991750 -0.263507
O12   O     O_R   0.811960 0.658090 0.547150 -0.513512
O13   O     O_R   0.045660 0.691380 0.441680 -0.495525
O14   O     O_R   0.811930 0.659460 0.430950 -0.503826
O15   O     O_R   0.757900 0.507620 0.421760 -0.516301
O16   O     O_R   0.988630 0.322990 0.439840 -0.482976
O17   O     O_R   0.196380 0.301720 0.573850 -0.507687
O18   O     O_R   0.199350 0.518300 0.571080 -0.478064
O19   O     O_R   0.045700 0.689900 0.567030 -0.518316
O20   O     O_2   0.847385 0.444204 0.748162 -0.485241
O21   O     O_R   0.850937 0.542964 0.828431 -0.706926
O22   O     O_2   0.044024 0.084252 0.558266 -0.502482
O23   O     O_R   0.757930 0.506140 0.547110 -0.479226
O24   O     O_R   0.961102 0.005012 0.621556 -0.700922
O25   O     O_2   0.803772 0.941814 0.823652 -0.464667
O26   O     O_R   0.865027 0.835923 0.906012 -0.649849
O27   O     O_2   0.543558 0.512902 0.767421 -0.474242
O28   O     O_R   0.448799 0.426778 0.821869 -0.716021
O29   O     O_2   0.440005 0.540926 0.612112 -0.505060
O30   O     O_R   0.488151 0.386593 0.671186 -0.650349
O31   O     O_2   0.100395 0.997777 0.281493 -0.508625
O32   O     O_R   0.098599 0.034848 0.187482 -0.692701
O33   O     O_R   0.988670 0.321620 0.556040 -0.469475
O34   O     O_3   0.000020 0.499990 0.500010 -0.278314
O35   O     O_R   0.113660 0.883270 0.047820 -0.487543
O36   O     O_R   0.186930 0.068530 0.043990 -0.478472
O37   O     O_R   0.377770 0.089040 0.054220 -0.516912
O38   O     O_R   0.562800 0.872960 0.056970 -0.495044

loop_
_geom_bond_atom_site_label_1
_geom_bond_atom_site_label_2
_ccdc_geom_bond_type
C24   C52   S    
C17   H1    S    
Cr5   O8    S    
C8    C13   T    
Cr5   O11   S    
C35   C53   S    
C41   C42   A    
C24   C27   A    
Cr5   O38   S    
Cr4   O5    S    
C65   H14   S    
C39   C41   A    
Cr6   O2    S    
C52   O17   A    
C43   H6    S    
C56   H22   S    
C49   O35   A    
C45   C57   A    
C25   H18   S    
C37   C38   A    
C22   C32   A    
C61   O28   S    
C52   O33   A    
C48   O38   A    
C19   C21   T    
Cr1   O18   S    
C24   C26   A    
Cr4   O11   S    
C32   H2    S    
C30   C31   A    
Cr3   O16   S    
C16   O1    A    
C27   C29   A    
C29   C33   A    
C17   C20   S    
C34   C65   A    
C18   C19   S    
C37   C42   A    
C9    C13   S    
H10   O30   S    
C4    O14   A    
C1    O13   A    
C53   O10   A    
C18   C58   S    
C10   H17   S    
C53   O5    A    
Cr3   O34   S    
C41   C46   A    
C15   C51   S    
C35   C43   A    
C9    C10   D    
C9    H23   S    
C47   C66   S    
C63   O32   S    
C40   O12   A    
C50   O7    A    
C23   H15   S    
C47   O37   A    
C58   O20   D    
C2    C6    S    
C1    O4    A    
C44   C46   A    
C2    H21   S    
C59   O24   S    
C15   C20   T    
C54   C56   A    
C22   C31   A    
H9    O28   S    
H24   O21   S    
C45   C56   A    
Cr2   O14   S    
C5    C7    T    
H8    O26   S    
C46   H19   S    
C3    C5    S    
C25   C26   A    
Cr3   O23   S    
C58   O21   S    
C31   H12   S    
C48   C54   S    
C29   C30   A    
C28   O19   A    
C49   O3    A    
Cr6   O11   S    
C51   O9    A    
C23   C34   A    
Cr4   O36   S    
C17   C18   D    
C34   C45   A    
H4    O24   S    
C60   O26   S    
C35   C44   A    
C28   O18   A    
Cr1   O4    S    
C12   C57   A    
C7    C16   S    
C4    O15   A    
Cr6   O10   S    
C50   O6    A    
C59   O22   D    
C4    C55   S    
C64   H7    S    
Cr1   O34   S    
C33   H3    S    
C42   C43   A    
C16   O16   A    
C62   O30   S    
C26   C59   S    
C25   C30   A    
Cr5   O7    S    
C12   H20   S    
C36   C39   A    
C27   H5    S    
Cr5   O37   S    
C62   O29   D    
C37   C61   S    
Cr4   O6    S    
C23   C55   A    
C3    C63   S    
C48   O2    A    
C22   C50   S    
C47   O36   A    
C61   O27   D    
C64   C65   A    
C36   C38   A    
C2    C3    D    
C51   O8    A    
C39   H11   S    
H16   O32   S    
C32   C33   A    
Cr3   O15   S    
C21   C40   S    
C54   C64   A    
C44   C60   S    
Cr4   O35   S    
C11   C14   T    
C57   H13   S    
Cr2   O13   S    
Cr1   O17   S    
C60   O25   D    
C12   C55   A    
C10   C11   S    
Cr1   O1    S    
Cr2   O19   S    
C6    C66   T    
C40   O23   A    
Cr6   O9    S    
C28   C36   S    
Cr3   O33   S    
Cr2   O34   S    
C1    C14   S    
Cr2   O12   S    
C8    C49   S    
C63   O31   D    
C38   C62   S    
Cr6   O3    S    
