data_mof_unit_55638.cif
_audit_creation_date              2013-03-05T15:57:47-0500
_audit_creation_method            fapswitch 2.2
_symmetry_space_group_name_H-M    P1
_symmetry_Int_Tables_number       1
_space_group_crystal_system       triclinic
_cell_length_a                    15.49963
_cell_length_b                    15.062425
_cell_length_c                    15.03784
_cell_angle_alpha                 109.679525
_cell_angle_beta                  121.362001
_cell_angle_gamma                 59.252467
_cell_volume                      2564.44179658

loop_
_atom_site_label
_atom_site_type_symbol
_atom_site_description
_atom_site_fract_x
_atom_site_fract_y
_atom_site_fract_z
_atom_type_partial_charge
C1    C     C_R   0.803451 0.937562 0.772604 -0.114658
C2    C     C_R   0.243730 0.007461 0.208949 -0.083775
H1    H     H_    0.831121 0.880782 0.821095 0.093556
H2    H     H_    0.230621 0.040811 0.147378 0.089919
N1    N     N_R   0.705410 0.966550 0.689210 -0.046307
N2    N     N_R   0.294590 0.033450 0.310790 -0.046481
C3    C     C_R   0.201527 0.275509 0.445436 -0.079262
C4    C     C_R   0.749517 0.711396 0.503576 -0.001743
H3    H     H_    0.175220 0.329944 0.395125 0.169733
H4    H     H_    0.758705 0.648971 0.532548 0.155000
N3    N     N_R   0.294590 0.188320 0.465660 -0.054062
N4    N     N_R   0.705410 0.811680 0.534340 -0.058487
C5    C     C_R   0.594995 0.228292 0.556570 -0.116094
C6    C     C_R   0.408238 0.783028 0.513097 -0.112034
H5    H     H_    0.680967 0.211492 0.608375 0.112453
H6    H     H_    0.322124 0.803137 0.489476 0.109813
N5    N     N_R   0.556610 0.157790 0.497330 -0.045118
N6    N     N_R   0.443390 0.842210 0.502670 -0.042345
C7    C     C_R   0.408474 0.047865 0.732736 -0.136099
C8    C     C_R   0.594594 0.014766 0.288755 -0.134055
H7    H     H_    0.323261 0.084091 0.721875 0.110303
H8    H     H_    0.680521 0.999085 0.316184 0.088658
N7    N     N_R   0.443390 0.997080 0.657540 -0.043892
N8    N     N_R   0.556610 0.002920 0.342460 -0.038202
C9    C     C_R   0.409811 0.306041 0.472726 -0.138647
C10   C     C_R   0.592047 0.715231 0.592643 -0.157263
H9    H     H_    0.324876 0.363262 0.441078 0.115157
H10   H     H_    0.676948 0.677645 0.648835 0.129621
N9    N     N_R   0.443390 0.203250 0.451380 -0.041432
N10   N     N_R   0.556610 0.796750 0.548620 -0.044726
C11   C     C_R   0.593731 0.983375 0.803906 -0.112980
C12   C     C_R   0.410376 0.085149 0.209404 -0.120907
H11   H     H_    0.679595 0.965078 0.857543 0.113029
H12   H     H_    0.325134 0.131327 0.160135 0.105835
N11   N     N_R   0.556610 0.951620 0.703500 -0.045461
N12   N     N_R   0.443390 0.048380 0.296500 -0.041530
C13   C     C_R   0.200783 0.184051 0.535058 -0.072655
C14   C     C_R   0.750333 0.801936 0.411920 -0.090811
H13   H     H_    0.171415 0.153034 0.563766 0.111578
H14   H     H_    0.761468 0.822567 0.357564 0.120087
N13   N     N_R   0.294590 0.131500 0.522480 -0.052368
N14   N     N_R   0.705410 0.868500 0.477520 -0.055558
C15   C     C_R   0.804655 0.028415 0.683758 -0.155503
C16   C     C_R   0.243035 0.915514 0.299159 -0.135874
H15   H     H_    0.835964 0.053738 0.651659 0.095180
H16   H     H_    0.230291 0.862165 0.319421 0.112020
N15   N     N_R   0.705410 0.023370 0.632390 -0.043193
N16   N     N_R   0.294590 0.976630 0.367610 -0.049298
C17   C     C_R   0.867508 0.975296 0.771639 0.161028
C18   C     C_R   0.212479 0.931751 0.199104 0.139054
C19   C     C_R   0.140935 0.274738 0.487948 0.043956
C20   C     C_R   0.778179 0.703282 0.426873 0.066401
C21   C     C_R   0.505342 0.323148 0.538844 0.055063
C22   C     C_R   0.501164 0.703267 0.571748 0.056921
C23   C     C_R   0.503409 0.038175 0.826028 0.061575
C24   C     C_R   0.504939 0.065616 0.204307 0.061729
H17   H     H_    0.180935 0.932180 0.006803 0.127965
H18   H     H_    0.010441 0.835536 0.912605 0.141778
Ni1   Ni    Ni4+2 0.629830 0.882720 0.617850 0.233535
Ni2   Ni    Ni4+2 0.370170 0.117280 0.382150 0.236847
Ni3   Ni    Ni4+2 0.629830 0.013030 0.487540 0.215591
Ni4   Ni    Ni4+2 0.370170 0.986970 0.512460 0.215232
H19   H     H_    0.107128 0.846963 0.102556 0.136408
H20   H     H_    0.017433 0.003861 0.846985 0.129261
C25   C     C_R   0.718021 0.709998 0.876391 -0.230425
C26   C     C_R   0.295541 0.393010 0.206968 -0.251061
H21   H     H_    0.687360 0.653884 0.819684 0.161992
H22   H     H_    0.321984 0.434585 0.283585 0.165874
C27   C     C_R   0.643459 0.803090 0.905640 -0.146647
C28   C     C_R   0.376275 0.307937 0.177878 -0.174435
H23   H     H_    0.556981 0.817793 0.871392 0.125010
H24   H     H_    0.463117 0.285469 0.232328 0.128385
C29   C     C_R   0.679672 0.878487 0.977099 0.125013
C30   C     C_R   0.345346 0.251103 0.079772 0.122700
C31   C     C_R   0.792809 0.857413 0.023629 -0.236896
C32   C     C_R   0.232153 0.282086 0.010278 -0.215123
H25   H     H_    0.822294 0.914445 0.080005 0.142642
H26   H     H_    0.206250 0.238988 0.934487 0.145989
C33   C     C_R   0.867402 0.764724 0.993761 -0.185731
C34   C     C_R   0.151231 0.366877 0.039506 -0.122945
H27   H     H_    0.953677 0.751564 0.028555 0.162214
H28   H     H_    0.064504 0.388028 0.984997 0.198577
C35   C     C_R   0.830429 0.690697 0.918518 0.449727
C36   C     C_R   0.181997 0.423058 0.138322 0.413214
C37   C     C_R   0.600702 0.996201 0.097326 -0.215439
C38   C     C_R   0.431253 0.144176 0.955817 -0.224032
H29   H     H_    0.663677 0.935037 0.148919 0.148120
H30   H     H_    0.367637 0.202068 0.900720 0.159703
C39   C     C_R   0.514177 0.078721 0.119868 0.039093
C40   C     C_R   0.511938 0.055184 0.929544 0.049847
C41   C     C_R   0.431271 0.157150 0.051962 0.035730
C42   C     C_R   0.598562 0.980599 0.001713 0.027276
C43   C     C_2   0.031901 0.354168 0.481621 0.162160
C44   C     C_2   0.836080 0.605348 0.378444 0.119422
C45   C     C_2   0.970689 0.421910 0.409363 0.469018
C46   C     C_2   0.920416 0.532024 0.443039 0.472917
C47   C     C_2   0.984049 0.953946 0.843766 -0.215658
C48   C     C_2   0.151669 0.882972 0.100806 -0.188645
H31   H     H_    0.062899 0.949593 0.623306 0.098038
H32   H     H_    0.945247 0.116418 0.499884 0.101051
C49   C     C_R   0.241621 0.874098 0.686242 -0.115268
C50   C     C_R   0.769719 0.215175 0.436305 -0.099574
H33   H     H_    0.253343 0.937319 0.745592 0.108848
H34   H     H_    0.754550 0.180015 0.356854 0.113767
C51   C     C_R   0.333932 0.785474 0.678751 -0.120157
C52   C     C_R   0.681775 0.296566 0.458174 -0.104963
H35   H     H_    0.416340 0.780956 0.732740 0.107657
H36   H     H_    0.598992 0.324273 0.395286 0.107922
C53   C     C_R   0.319934 0.703123 0.601561 0.087592
C54   C     C_R   0.700567 0.341492 0.561348 0.073010
C55   C     C_R   0.211451 0.710803 0.532740 -0.134668
C56   C     C_R   0.809169 0.306385 0.641689 -0.084070
H37   H     H_    0.198049 0.648876 0.472155 0.163541
H38   H     H_    0.825340 0.341174 0.721410 0.152065
C57   C     C_R   0.119274 0.799410 0.540718 -0.066876
C58   C     C_R   0.896957 0.225090 0.619453 -0.039974
H39   H     H_    0.036103 0.804875 0.487301 0.124256
H40   H     H_    0.980327 0.197635 0.681665 0.112882
C59   C     C_R   0.134329 0.881040 0.617321 -0.111898
C60   C     C_R   0.877194 0.179323 0.516918 -0.102698
C61   C     C_R   0.422873 0.511146 0.581531 -0.204753
C62   C     C_R   0.606295 0.524164 0.605321 -0.176069
H41   H     H_    0.354106 0.504543 0.576747 0.139313
H42   H     H_    0.677348 0.526217 0.610087 0.175414
C63   C     C_R   0.513206 0.421510 0.570675 0.059823
C64   C     C_R   0.509157 0.614141 0.597976 0.022162
C65   C     C_R   0.607312 0.428207 0.584697 0.011421
C66   C     C_R   0.418456 0.609187 0.593629 0.042101
C67   C     C_2   0.042809 0.885492 0.914420 -0.068450
C68   C     C_2   0.137408 0.895804 0.009502 -0.091605
N17   N     N_R   0.906183 0.597180 0.884561 0.239773
O1    O     O_R   0.872894 0.527261 0.817237 -0.411918
O2    O     O_R   0.008388 0.582381 0.918431 -0.383063
N18   N     N_R   0.098612 0.509460 0.168948 0.245854
O3    O     O_R   0.127078 0.564997 0.257981 -0.428338
O4    O     O_R   0.993422 0.532506 0.108787 -0.339292
F1    F     F_    0.963183 0.560732 0.548307 -0.673076
F2    F     F_    0.978129 0.392793 0.316748 -0.673655
N19   N     N_R   0.796224 0.588665 0.266674 0.252312
O5    O     O_R   0.689642 0.626906 0.207859 -0.377949
O6    O     O_R   0.863510 0.560208 0.225489 -0.257406
N20   N     N_R   0.001164 0.370114 0.563392 0.262437
O7    O     O_R   0.076785 0.338663 0.655234 -0.366673
O8    O     O_R   0.896817 0.413542 0.545063 -0.389898

loop_
_geom_bond_atom_site_label_1
_geom_bond_atom_site_label_2
_geom_bond_distance
_ccdc_geom_bond_type
C26   H22   1.082846 S    
N8    Ni3   1.856523 S    
N5    N9    1.361513 A    
C6    N6    1.340058 A    
C7    N7    1.337091 A    
C45   C46   1.462212 S    
C34   C36   1.407030 A    
C56   H38   1.083061 S    
C3    N3    1.331635 A    
C51   H35   1.078980 S    
C36   N18   1.439516 S    
N8    N12   1.361514 A    
N2    N16   1.398244 A    
C1    N1    1.333889 A    
C12   N12   1.336098 A    
C7    H7    1.080465 S    
C9    C21   1.390174 A    
C14   N14   1.340967 A    
C23   C40   1.434630 S    
C38   C41   1.392091 A    
C53   C55   1.407885 A    
C13   C19   1.378530 A    
C38   H30   1.084506 S    
C25   C35   1.406644 A    
C14   C20   1.383190 A    
H18   C67   1.084681 S    
C16   C18   1.391274 A    
N11   Ni1   1.854945 S    
C62   C65   1.365778 A    
C27   H23   1.079659 S    
N4    N14   1.398246 A    
C2    C18   1.390482 A    
N5    Ni3   1.868528 S    
N4    Ni1   1.854417 S    
C40   C42   1.415882 A    
N7    Ni4   1.856523 S    
C8    N8    1.315312 A    
C57   H39   1.082605 S    
C28   C30   1.404287 A    
C11   H11   1.074744 S    
C27   C29   1.400543 A    
H32   C60   1.082493 S    
C6    H6    1.079362 S    
C39   C41   1.408542 A    
C15   N15   1.346062 A    
C4    C20   1.387673 A    
C8    C24   1.363936 A    
C54   C65   1.485760 S    
C21   C63   1.444061 S    
C47   C67   1.338617 D    
C43   C45   1.343800 D    
C49   C51   1.398322 A    
C44   N19   1.436404 S    
C29   C31   1.403096 A    
C2    N2    1.332363 A    
N13   Ni4   1.867990 S    
C10   C22   1.369758 A    
C37   C42   1.361753 A    
C16   H16   1.080473 S    
C5    C21   1.372677 A    
C37   H29   1.084954 S    
C9    N9    1.336525 A    
C13   H13   1.081519 S    
C18   C48   1.462749 S    
N1    Ni1   1.846516 S    
C49   C59   1.397071 A    
N2    Ni2   1.846517 S    
H17   C68   1.085564 S    
C61   C66   1.395421 A    
C34   H28   1.082330 S    
C38   C40   1.400125 A    
C46   F1    1.368256 S    
C33   H27   1.082486 S    
C37   C39   1.394047 A    
N6    Ni4   1.868529 S    
N18   O4    1.301799 A    
C25   H21   1.082059 S    
C26   C36   1.406027 A    
C58   C60   1.398184 A    
C57   C59   1.397434 A    
C1    H1    1.080072 S    
C12   H12   1.080206 S    
C30   C41   1.485011 S    
C62   C64   1.398962 A    
C2    H2    1.078881 S    
C61   C63   1.402292 A    
C20   C44   1.454269 S    
C22   C64   1.452166 S    
C53   C66   1.488188 S    
N16   Ni4   1.855611 S    
N9    Ni2   1.847562 S    
C4    N4    1.328792 A    
N10   Ni1   1.847563 S    
C48   C68   1.338120 D    
C55   H37   1.082594 S    
C44   C46   1.340423 D    
C31   H25   1.083121 S    
N14   Ni3   1.867990 S    
C30   C32   1.403860 A    
C19   C43   1.462317 S    
N6    N10   1.361513 A    
C4    H4    1.081031 S    
H20   C47   1.087454 S    
C6    C22   1.384849 A    
C8    H8    1.082536 S    
C10   N10   1.314155 A    
N7    N11   1.361515 A    
C5    H5    1.074257 S    
N20   O8    1.302042 A    
C9    H9    1.079974 S    
C62   H42   1.081715 S    
N3    Ni2   1.854420 S    
C56   C58   1.398869 A    
C50   C60   1.398307 A    
C52   H36   1.081716 S    
C67   C68   1.455854 S    
C52   C54   1.404991 A    
C7    C23   1.387168 A    
C3    H3    1.079713 S    
C51   C53   1.405831 A    
C24   C39   1.434831 S    
C45   F2    1.359925 S    
C64   C66   1.412270 A    
C15   C17   1.382301 A    
C32   C34   1.398321 A    
C29   C42   1.485566 S    
C32   H26   1.083272 S    
N17   O2    1.301593 A    
N15   Ni3   1.855611 S    
C55   C57   1.399180 A    
N19   O5    1.300924 A    
N18   O3    1.301987 A    
C5    N5    1.316229 A    
H19   C48   1.087604 S    
C10   H10   1.081305 S    
C50   H34   1.082580 S    
C35   N17   1.439465 S    
C3    C19   1.389925 A    
C15   H15   1.082159 S    
C14   H14   1.080391 S    
N19   O6    1.300547 A    
C26   C28   1.397095 A    
C31   C33   1.398323 A    
C25   C27   1.397116 A    
N1    N15   1.398243 A    
C58   H40   1.082525 S    
N3    N13   1.398242 A    
C11   N11   1.315414 A    
C13   N13   1.336039 A    
C54   C56   1.405721 A    
C61   H41   1.083913 S    
C17   C47   1.464368 S    
H31   C59   1.082715 S    
C33   C35   1.407358 A    
C16   N16   1.342876 A    
C49   H33   1.082611 S    
C50   C52   1.398389 A    
C63   C65   1.413563 A    
N12   Ni2   1.854945 S    
N20   O7    1.301387 A    
C28   H24   1.081860 S    
C11   C23   1.367515 A    
C1    C17   1.380794 A    
C12   C24   1.378960 A    
C43   N20   1.445873 S    
N17   O1    1.301578 A    
