data_mof_unit_42480.cif
_audit_creation_date              2012-10-26T19:15:01-0400
_audit_creation_method            fapswitch 2.2
_symmetry_space_group_name_H-M    P1
_symmetry_Int_Tables_number       1
_space_group_crystal_system       triclinic
_cell_length_a                    10.834616
_cell_length_b                    10.851407
_cell_length_c                    9.552107
_cell_angle_alpha                 90.823208
_cell_angle_beta                  90.457034
_cell_angle_gamma                 90.652753
_cell_volume                      1122.82312418

loop_
_atom_site_label
_atom_site_type_symbol
_atom_type_description
_atom_site_fract_x
_atom_site_fract_y
_atom_site_fract_z
_atom_type_partial_charge
C1    C     C_R   0.496488 0.262486 0.498968 0.547713
C2    C     C_R   0.465813 0.939487 0.622598 0.020089
C3    C     C_3   0.533446 0.939780 0.759431 -0.280287
C4    C     C_R   0.262389 0.496691 0.499414 0.548170
C5    C     C_3   0.532334 0.079241 0.756917 -0.261113
C6    C     C_R   0.600805 0.541464 0.075702 0.159138
C7    C     C_R   0.406294 0.446561 0.072623 -0.019435
C8    C     C_R   0.406398 0.446361 0.923838 -0.019483
C9    C     C_R   0.600657 0.541994 0.928169 0.158011
C10   C     C_3   0.651853 0.669828 0.928502 -0.287191
C11   C     C_3   0.655544 0.667336 0.086653 -0.275503
C12   C     C_R   0.937816 0.479049 0.624327 0.022914
C13   C     C_R   0.497243 0.737931 0.500525 0.547748
C14   C     C_R   0.737783 0.497811 0.500161 0.547939
C15   C     C_R   0.064951 0.477405 0.623761 0.018362
C16   C     C_R   0.129347 0.482956 0.498130 0.008675
C17   C     C_R   0.063222 0.471473 0.371302 -0.162927
C18   C     C_R   0.934454 0.472433 0.371856 -0.162590
C19   C     C_R   0.870949 0.485084 0.499218 0.006801
C20   C     C_3   0.935752 0.562168 0.750084 -0.274018
C21   C     C_3   0.075488 0.558711 0.750663 -0.265634
C22   C     C_R   0.465192 0.066390 0.620814 0.020932
C23   C     C_R   0.481770 0.129723 0.496511 0.007886
C24   C     C_R   0.479658 0.062657 0.369629 -0.163117
C25   C     C_R   0.480312 0.934042 0.371062 -0.160597
C26   C     C_R   0.483651 0.871306 0.499298 0.006750
Cu1   Cu    Cu3+1 0.499990 0.499980 0.640670 0.935045
Cu2   Cu    Cu3+1 0.500010 0.500020 0.359330 0.929957
H1    H     H_    0.110319 0.468269 0.271745 0.125809
H2    H     H_    0.592891 0.735269 0.135705 0.147984
H3    H     H_    0.885508 0.469528 0.272518 0.132052
H4    H     H_    0.899612 0.654839 0.725130 0.128707
H5    H     H_    0.894196 0.516425 0.842126 0.134800
H6    H     H_    0.119520 0.649448 0.728814 0.143648
H7    H     H_    0.114345 0.509568 0.842009 0.126652
H8    H     H_    0.484439 0.108806 0.269991 0.133686
H9    H     H_    0.484536 0.884794 0.272011 0.126707
H10   H     H_    0.475093 0.902770 0.844607 0.129601
H11   H     H_    0.627950 0.901660 0.750439 0.132003
H12   H     H_    0.474058 0.120926 0.839933 0.136664
H13   H     H_    0.625795 0.121367 0.746185 0.145243
H14   H     H_    0.329463 0.404950 0.126736 0.109840
H15   H     H_    0.329829 0.404253 0.867031 0.115186
H16   H     H_    0.744297 0.677310 0.881543 0.114976
H17   H     H_    0.583175 0.734302 0.888038 0.145540
H18   H     H_    0.750799 0.666603 0.130736 0.122647
N1    N     N_R   0.500790 0.500930 0.147930 -0.230480
N2    N     N_R   0.500790 0.500890 0.852020 -0.231355
O1    O     O_R   0.500000 0.319640 0.618810 -0.502071
O2    O     O_R   0.500010 0.319680 0.381230 -0.507904
O3    O     O_R   0.319650 0.499970 0.618810 -0.508038
O4    O     O_R   0.319660 0.500010 0.381230 -0.513837
O5    O     O_R   0.499990 0.680320 0.618770 -0.499389
O6    O     O_R   0.500000 0.680360 0.381190 -0.509022
O7    O     O_R   0.680340 0.499990 0.618770 -0.497183
O8    O     O_R   0.680350 0.500030 0.381190 -0.506700

loop_
_geom_bond_atom_site_label_1
_geom_bond_atom_site_label_2
_ccdc_geom_bond_type
Cu1   N2    S    
C2    C22   A    
C14   O8    A    
C23   C24   A    
Cu1   O5    S    
Cu2   N1    S    
C4    C16   S    
C21   H7    S    
C17   H1    S    
C1    O2    A    
C21   H6    S    
C8    H15   S    
C14   O7    A    
C12   C20   S    
C10   H17   S    
C8    N2    A    
C2    C3    S    
Cu2   O8    S    
C3    H11   S    
C7    C8    A    
C2    C26   A    
C24   C25   A    
Cu2   O4    S    
C24   H8    S    
C1    O1    A    
C4    O4    A    
C20   H5    S    
C12   C19   A    
Cu1   O3    S    
C1    C23   S    
C12   C15   A    
C13   O5    A    
C10   C11   S    
C20   H4    S    
Cu1   O7    S    
C13   C26   S    
C7    H14   S    
C6    N1    A    
C4    O3    A    
C10   H16   S    
C15   C16   A    
C3    C5    S    
C15   C21   S    
C6    C9    A    
C20   C21   S    
C11   H2    S    
C9    N2    A    
C17   C18   A    
C13   O6    A    
C9    C10   S    
C5    H12   S    
C6    C11   S    
Cu2   O6    S    
C22   C23   A    
C18   C19   A    
C11   H18   S    
C5    H13   S    
C18   H3    S    
C25   H9    S    
C25   C26   A    
Cu2   O2    S    
C14   C19   S    
C5    C22   S    
Cu1   O1    S    
C3    H10   S    
C16   C17   A    
Cu1   Cu2   S    
C7    N1    A    
