data_mof_unit_16579.cif
_audit_creation_date              2012-12-11T17:36:11-0500
_audit_creation_method            fapswitch 2.2
_symmetry_space_group_name_H-M    P1
_symmetry_Int_Tables_number       1
_space_group_crystal_system       triclinic
_cell_length_a                    25.863788
_cell_length_b                    6.907223
_cell_length_c                    21.706686
_cell_angle_alpha                 89.998386
_cell_angle_beta                  96.049189
_cell_angle_gamma                 90.000381
_cell_volume                      3856.24068659

loop_
_atom_site_label
_atom_site_type_symbol
_atom_type_description
_atom_site_fract_x
_atom_site_fract_y
_atom_site_fract_z
_atom_type_partial_charge
O1    O     O_R   0.208650 0.594520 0.175450 -0.534720
O2    O     O_R   0.791350 0.405480 0.824550 -0.534720
O3    O     O_R   0.291350 0.094520 0.324550 -0.534716
O4    O     O_R   0.708650 0.905480 0.675450 -0.534716
O5    O     O_R   0.192980 0.260780 0.300160 -0.541728
O6    O     O_R   0.807020 0.739220 0.699840 -0.541729
O7    O     O_R   0.307020 0.760780 0.199840 -0.541728
O8    O     O_R   0.692980 0.239220 0.800160 -0.541727
C1    C     C_R   0.178902 0.432649 0.318503 0.695342
C2    C     C_R   0.821098 0.567351 0.681497 0.695343
C3    C     C_R   0.321098 0.932652 0.181497 0.695341
C4    C     C_R   0.678902 0.067347 0.818503 0.695341
O9    O     O_R   0.202550 0.264660 0.174420 -0.537526
O10   O     O_R   0.797450 0.735340 0.825580 -0.537526
O11   O     O_R   0.297450 0.764660 0.325580 -0.537528
O12   O     O_R   0.702550 0.235340 0.674420 -0.537528
O13   O     O_R   0.300990 0.096480 0.197920 -0.538374
O14   O     O_R   0.699010 0.903520 0.802080 -0.538373
O15   O     O_R   0.199010 0.596480 0.302080 -0.538371
O16   O     O_R   0.800990 0.403520 0.697920 -0.538372
C5    C     C_R   0.191090 0.433338 0.151144 0.697388
C6    C     C_R   0.808910 0.566662 0.848855 0.697388
C7    C     C_R   0.308911 0.933335 0.348855 0.697388
C8    C     C_R   0.691089 0.066665 0.651145 0.697388
O17   O     O_3   0.282290 0.427760 0.257860 -0.364874
O18   O     O_3   0.717710 0.572240 0.742140 -0.364874
O19   O     O_3   0.217710 0.927760 0.242140 -0.364875
O20   O     O_3   0.782290 0.072240 0.757860 -0.364875
V1    V     V_3+5 0.244010 0.152080 0.248540 1.413436
V2    V     V_3+5 0.755990 0.847920 0.751460 1.413436
V3    V     V_3+5 0.255990 0.652080 0.251460 1.413437
V4    V     V_3+5 0.744010 0.347920 0.748540 1.413436
C9    C     C_R   0.657416 0.060971 0.591980 -0.044059
C10   C     C_R   0.342584 0.939028 0.408020 -0.044059
C11   C     C_R   0.842583 0.560969 0.908021 -0.044070
C12   C     C_R   0.157417 0.439031 0.091979 -0.044069
C13   C     C_R   0.646549 0.121590 0.481734 -0.159654
C14   C     C_R   0.353451 0.878410 0.518266 -0.159655
C15   C     C_R   0.853459 0.621750 0.018256 -0.159659
C16   C     C_R   0.146540 0.378250 0.981743 -0.159660
C17   C     C_R   0.678213 0.113142 0.537606 -0.166451
C18   C     C_R   0.321787 0.886858 0.462394 -0.166451
C19   C     C_R   0.821792 0.613245 0.962388 -0.166445
C20   C     C_R   0.178207 0.386755 0.037612 -0.166445
C21   C     C_R   0.604110 0.017806 0.590198 -0.214917
C22   C     C_R   0.395889 0.982194 0.409802 -0.214917
C23   C     C_R   0.895886 0.517750 0.909806 -0.214924
C24   C     C_R   0.104114 0.482249 0.090193 -0.214924
C25   C     C_R   0.570558 0.028611 0.533749 0.086928
C26   C     C_R   0.429442 0.971389 0.466250 0.086929
C27   C     C_R   0.929442 0.528612 0.966251 0.086926
C28   C     C_R   0.070558 0.471388 0.033749 0.086926
C29   C     C_R   0.593180 0.081240 0.479338 0.138727
C30   C     C_R   0.406820 0.918759 0.520661 0.138728
C31   C     C_R   0.906827 0.581357 0.020654 0.138727
C32   C     C_R   0.093173 0.418643 0.979345 0.138727
C33   C     C_R   0.515555 0.991750 0.529355 0.058018
C34   C     C_R   0.484445 0.008250 0.470645 0.058018
C35   C     C_R   0.984443 0.491709 0.970648 0.058019
C36   C     C_R   0.015557 0.508291 0.029352 0.058019
C37   C     C_R   0.509407 0.060453 0.418326 -0.187115
C38   C     C_R   0.490593 0.939547 0.581674 -0.187115
C39   C     C_R   0.990603 0.560615 0.081663 -0.187119
C40   C     C_R   0.009397 0.439385 0.918337 -0.187120
C41   C     C_R   0.562500 0.095647 0.422753 -0.200960
C42   C     C_R   0.437500 0.904352 0.577247 -0.200960
C43   C     C_R   0.937511 0.595843 0.077234 -0.200961
C44   C     C_R   0.062489 0.404157 0.922766 -0.200961
H1    H     H_    0.579757 0.135895 0.381177 0.123579
H2    H     H_    0.420243 0.864105 0.618823 0.123578
H3    H     H_    0.920259 0.636185 0.118804 0.123582
H4    H     H_    0.079741 0.363815 0.881196 0.123581
H5    H     H_    0.409852 0.018982 0.366266 0.093926
H6    H     H_    0.590148 0.981018 0.633734 0.093926
H7    H     H_    0.090156 0.519110 0.133725 0.093936
H8    H     H_    0.909844 0.480890 0.866275 0.093936
H9    H     H_    0.280903 0.851284 0.461460 0.106763
H10   H     H_    0.719097 0.148716 0.538540 0.106763
H11   H     H_    0.219088 0.351133 0.038549 0.106767
H12   H     H_    0.780912 0.648867 0.961451 0.106767
H13   H     H_    0.663781 0.162508 0.440225 0.114410
H14   H     H_    0.336219 0.837492 0.559774 0.114409
H15   H     H_    0.836233 0.662758 0.059759 0.114412
H16   H     H_    0.163767 0.337242 0.940241 0.114411
H17   H     H_    0.488957 0.076123 0.372795 0.123648
H18   H     H_    0.511043 0.923876 0.627205 0.123647
H19   H     H_    0.011056 0.576361 0.127188 0.123650
H20   H     H_    0.988943 0.423639 0.872812 0.123650
C45   C     C_R   0.433154 0.791372 0.088201 0.234174
C46   C     C_R   0.566844 0.208627 0.911796 0.234183
C47   C     C_R   0.066845 0.291366 0.411803 0.234177
C48   C     C_R   0.933156 0.708634 0.588199 0.234181
C49   C     C_R   0.393379 0.780729 0.127806 -0.172373
C50   C     C_R   0.606621 0.219272 0.872193 -0.172385
C51   C     C_R   0.106620 0.280722 0.372197 -0.172374
C52   C     C_R   0.893380 0.719278 0.627803 -0.172380
H21   H     H_    0.386372 0.643806 0.149825 0.134591
H22   H     H_    0.613629 0.356196 0.850176 0.134586
H23   H     H_    0.113627 0.143799 0.350180 0.134587
H24   H     H_    0.886373 0.856201 0.649819 0.134585
C53   C     C_R   0.363240 0.943999 0.139410 -0.108214
C54   C     C_R   0.636759 0.056000 0.860589 -0.108207
C55   C     C_R   0.136760 0.443991 0.360590 -0.108212
C56   C     C_R   0.863241 0.556009 0.639410 -0.108208
C57   C     C_R   0.373479 0.119310 0.109927 -0.168962
C58   C     C_R   0.626519 0.880688 0.890070 -0.168965
C59   C     C_R   0.126522 0.619301 0.390070 -0.168961
C60   C     C_R   0.873479 0.380698 0.609931 -0.168963
H25   H     H_    0.351000 0.248023 0.117230 0.134612
H26   H     H_    0.648997 0.751975 0.882767 0.134612
H27   H     H_    0.149001 0.748013 0.382766 0.134612
H28   H     H_    0.851000 0.251986 0.617235 0.134612
C61   C     C_R   0.412444 0.131064 0.069948 -0.172861
C62   C     C_R   0.587552 0.868934 0.930048 -0.172872
C63   C     C_R   0.087556 0.631056 0.430049 -0.172870
C64   C     C_R   0.912445 0.368943 0.569952 -0.172875
H29   H     H_    0.418895 0.267620 0.047490 0.162065
H30   H     H_    0.581101 0.732377 0.952505 0.162070
H31   H     H_    0.081106 0.767612 0.452504 0.162069
H32   H     H_    0.918896 0.232387 0.547497 0.162071
C65   C     C_R   0.442737 0.969206 0.058709 0.085739
C66   C     C_R   0.557260 0.030791 0.941287 0.085746
C67   C     C_R   0.057263 0.469200 0.441291 0.085741
C68   C     C_R   0.942738 0.530799 0.558711 0.085744
C69   C     C_1   0.483172 0.990641 0.017278 -0.054060
C70   C     C_1   0.516825 0.009356 0.982718 -0.054056
C71   C     C_1   0.016827 0.490639 0.482721 -0.054056
C72   C     C_1   0.983174 0.509360 0.517281 -0.054054
N1    N     N_3   0.462542 0.618929 0.079063 -0.699465
H33   H     H_    0.488389 0.638519 0.045783 0.236821
H34   H     H_    0.484926 0.588051 0.120852 0.226152
N2    N     N_3   0.537456 0.381070 0.920934 -0.699465
H35   H     H_    0.511598 0.361463 0.954201 0.236816
H36   H     H_    0.515083 0.411982 0.879140 0.226144
N3    N     N_3   0.037457 0.118924 0.420943 -0.699469
H37   H     H_    0.011609 0.138515 0.454223 0.236821
H38   H     H_    0.015072 0.088046 0.379155 0.226152
N4    N     N_3   0.962544 0.881076 0.579058 -0.699469
H39   H     H_    0.988397 0.861476 0.545785 0.236819
H40   H     H_    0.984924 0.911967 0.620849 0.226148

loop_
_geom_bond_atom_site_label_1
_geom_bond_atom_site_label_2
_ccdc_geom_bond_type
O17   V3    S    
C25   C29   A    
O1    C5    A    
O19   V1    S    
C9    C21   A    
C16   H16   S    
O3    C7    A    
C10   C18   A    
C48   C52   A    
O15   V3    S    
C25   C33   A    
N3    H37   S    
C5    C12   S    
O7    C3    A    
C6    C11   S    
C38   H18   S    
O5    C1    A    
C26   C30   A    
C58   C62   A    
C36   C39   A    
C40   C44   A    
C57   C61   A    
C23   H8    S    
C14   C18   A    
C48   C68   A    
C58   H26   S    
O4    C8    A    
C51   H23   S    
C44   H4    S    
C50   H22   S    
O1    V3    S    
C45   N1    S    
C31   C43   A    
O2    V4    S    
O3    V1    S    
C28   C36   A    
C65   C69   S    
C1    O15   A    
C15   C31   A    
C2    O16   A    
N2    H35   S    
C16   C32   A    
O2    C6    A    
C54   C58   A    
C10   C22   A    
C11   C19   A    
C16   C20   A    
C43   H3    S    
C1    C55   S    
C68   C72   S    
C13   C29   A    
C34   C37   A    
O11   C7    A    
C48   N4    S    
C35   C36   A    
O12   C8    A    
C47   C67   A    
C14   H14   S    
O17   V1    S    
C46   C66   A    
C24   H7    S    
C13   H13   S    
O10   V2    S    
C51   C55   A    
C46   C50   A    
O5    V1    S    
C53   C57   A    
C39   C43   A    
O7    V3    S    
C38   C42   A    
O19   V3    S    
C26   C34   A    
O20   V4    S    
C63   C67   A    
C49   C53   A    
C17   H10   S    
O18   V4    S    
C15   C19   A    
C33   C38   A    
C19   H12   S    
C32   C44   A    
C45   C49   A    
C60   H28   S    
C21   H6    S    
O8    V4    S    
C66   C70   S    
C4    C54   S    
C37   C41   A    
C67   C71   S    
C14   C30   A    
C21   C25   A    
O8    C4    A    
C7    C10   S    
C35   C40   A    
O9    C5    A    
C3    C53   S    
C59   C63   A    
C62   H30   S    
C37   H17   S    
C61   H29   S    
O6    V2    S    
O18   V2    S    
C63   H31   S    
C52   C56   A    
C69   C70   T    
C12   C20   A    
C27   C35   A    
C71   C72   T    
C49   H21   S    
C56   C60   A    
C29   C41   A    
N1    H33   S    
O16   V4    S    
O9    V1    S    
N3    H38   S    
C57   H25   S    
C3    O13   A    
C64   C68   A    
C39   H19   S    
C59   H27   S    
C20   H11   S    
O6    C2    A    
C23   C27   A    
O11   V3    S    
N4    H40   S    
O12   V4    S    
C61   C65   A    
C22   C26   A    
C8    C9    S    
C9    C17   A    
O10   C6    A    
C2    C56   S    
C15   H15   S    
O13   V1    S    
C60   C64   A    
C33   C34   A    
C42   H2    S    
C45   C65   A    
C41   H1    S    
C52   H24   S    
O20   V2    S    
C46   N2    S    
C12   C24   A    
C27   C31   A    
C13   C17   A    
N4    H39   S    
O14   V2    S    
C47   C51   A    
C62   C66   A    
C64   H32   S    
C24   C28   A    
C47   N3    S    
C50   C54   A    
C18   H9    S    
N2    H36   S    
C4    O14   A    
C55   C59   A    
C11   C23   A    
C30   C42   A    
C40   H20   S    
C22   H5    S    
O4    V2    S    
C28   C32   A    
N1    H34   S    
