data_mof_unit_56586.cif
_audit_creation_date              2013-03-05T16:00:51-0500
_audit_creation_method            fapswitch 2.2
_symmetry_space_group_name_H-M    P1
_symmetry_Int_Tables_number       1
_space_group_crystal_system       triclinic
_cell_length_a                    8.208848
_cell_length_b                    12.722411
_cell_length_c                    18.687469
_cell_angle_alpha                 99.239079
_cell_angle_beta                  90.297928
_cell_angle_gamma                 98.850541
_cell_volume                      1902.50043159

loop_
_atom_site_label
_atom_site_type_symbol
_atom_site_description
_atom_site_fract_x
_atom_site_fract_y
_atom_site_fract_z
_atom_type_partial_charge
P1    P     P_3+3 0.041040 0.394770 0.336330 0.462346
O1    O     O_2   0.873090 0.425890 0.325140 -0.374524
O2    O     O_3   0.122420 0.434370 0.414380 -0.415146
O3    O     O_3   0.659500 0.627100 0.368810 -0.351222
O4    O     O_2   0.753811 0.530562 0.243556 -0.404958
O5    O     O_3   0.003296 0.254103 0.315972 -0.542186
O6    O     O_3   0.740472 0.732279 0.246496 -0.506536
H1    H     H_    0.632099 0.844801 0.313256 0.065471
C1    C     C_3   0.698386 0.899495 0.211709 -0.387686
H2    H     H_    0.628591 0.967535 0.225769 0.181443
H3    H     H_    0.830676 0.929460 0.226052 0.249438
P2    P     P_3+3 0.672880 0.754030 0.556100 0.461362
P3    P     P_3+3 0.129364 0.821256 0.400475 0.472393
O7    O     O_2   0.848200 0.768190 0.534530 -0.409773
O8    O     O_3   0.081160 0.685950 0.404810 -0.382113
O9    O     O_2   0.008491 0.879046 0.449515 -0.369312
O10   O     O_3   0.663253 0.791408 0.651113 -0.603327
O11   O     O_3   0.077093 0.837257 0.312347 -0.504802
C2    C     C_3   0.129116 0.753868 0.263182 0.504419
H4    H     H_    0.039686 0.678415 0.260958 0.154446
H5    H     H_    0.252781 0.737993 0.278524 -0.027081
C3    C     C_3   0.138854 0.785708 0.188058 -0.974130
H6    H     H_    0.016038 0.798521 0.169664 0.287476
H7    H     H_    0.227800 0.861116 0.189019 0.272611
C4    C     C_3   0.241498 0.784271 0.616276 0.387916
H8    H     H_    0.362915 0.760972 0.604478 0.126615
H9    H     H_    0.155027 0.750984 0.569365 0.126049
C5    C     C_3   0.256212 0.906760 0.627784 -0.926054
H10   H     H_    0.273888 0.941125 0.686139 0.283151
H11   H     H_    0.361744 0.942484 0.598317 0.216394
H12   H     H_    0.143024 0.930145 0.606751 0.262991
Ba1   Ba    Ba6+2 0.852780 0.548340 0.465070 1.569172
C6    C     C_3   0.962884 0.211794 0.378917 0.425791
H13   H     H_    0.854079 0.244003 0.402007 0.081869
H14   H     H_    0.066798 0.232711 0.419100 0.133429
C7    C     C_3   0.923373 0.089841 0.359462 -0.923233
H15   H     H_    0.803178 0.067564 0.329639 0.223264
H16   H     H_    0.916756 0.052317 0.408952 0.247112
H17   H     H_    0.019955 0.057981 0.324970 0.300844
C8    C     C_3   0.802332 0.778682 0.691379 0.842522
H18   H     H_    0.886487 0.732490 0.658201 0.021098
C9    C     C_3   0.892786 0.890716 0.724215 -0.964712
H19   H     H_    0.924492 0.941325 0.682337 0.234955
H20   H     H_    0.008484 0.884196 0.752995 0.271926
H21   H     H_    0.813430 0.932299 0.763657 0.259076
P4    P     P_3+3 0.148670 0.605320 0.663680 0.485956
O12   O     O_2   0.316610 0.574140 0.674900 -0.306046
O13   O     O_3   0.067290 0.565720 0.585630 -0.417750
O14   O     O_3   0.530210 0.372990 0.631200 -0.365009
O15   O     O_3   0.187604 0.746486 0.679685 -0.573710
P5    P     P_3+3 0.059144 0.174422 0.593952 0.433596
O16   O     O_3   0.611340 0.366290 0.463630 -0.383094
O17   O     O_3   0.108550 0.314140 0.595200 -0.391432
O18   O     O_2   0.193830 0.121083 0.551039 -0.374851
O19   O     O_3   0.088081 0.147203 0.681684 -0.524148
Ba2   Ba    Ba6+2 0.337060 0.451750 0.534940 1.585170
P6    P     P_3+3 0.643209 0.613706 0.274247 0.439506
C10   C     C_3   0.634260 0.809683 0.254894 0.347404
H22   H     H_    0.506941 0.775238 0.234751 0.037898
O20   O     O_3   0.578370 0.633800 0.536380 -0.362540
C11   C     C_3   0.467852 0.300381 0.314816 0.273491
H23   H     H_    0.340810 0.310627 0.330254 0.096171
H24   H     H_    0.553818 0.375217 0.336054 0.111135
C12   C     C_3   0.479996 0.280150 0.231929 -0.113601
H25   H     H_    0.465367 0.353880 0.209993 0.074929
H26   H     H_    0.604995 0.261650 0.217935 0.126330
P7    P     P_3+3 0.521215 0.232705 0.436267 0.441708
O21   O     O_2   0.341510 0.231850 0.465510 -0.359559
O22   O     O_3   0.511904 0.211707 0.341242 -0.581586
H27   H     H_    0.180476 0.721095 0.148783 0.224058
C13   C     C_3   0.048756 0.233346 0.732123 0.470506
H28   H     H_    0.134476 0.308520 0.728589 0.149320
H29   H     H_    0.920499 0.246664 0.723140 -0.000676
C14   C     C_3   0.065577 0.207755 0.808300 -0.951943
H30   H     H_    0.194282 0.196641 0.819386 0.284995
H31   H     H_    0.033862 0.274989 0.848662 0.218768
H32   H     H_    0.981362 0.132670 0.813985 0.260906
P8    P     P_3+3 0.540381 0.383294 0.724471 0.477281
C15   C     C_3   0.552689 0.179015 0.690930 0.474212
H33   H     H_    0.668288 0.215777 0.668112 0.021832
O23   O     O_2   0.396053 0.442546 0.751317 -0.377594
O24   O     O_3   0.482944 0.251715 0.741959 -0.539499
H34   H     H_    0.461887 0.146030 0.645596 0.140952
H35   H     H_    0.694521 0.117670 0.768310 0.259981
C16   C     C_3   0.592778 0.087233 0.727441 -1.024631
H36   H     H_    0.630833 0.023178 0.686361 0.247150
H37   H     H_    0.483626 0.052765 0.755576 0.284328
C17   C     C_R   0.000241 0.440820 0.048431 0.065287
C18   C     C_R   0.913534 0.376607 0.095411 -0.193988
C19   C     C_R   0.768194 0.411421 0.960374 -0.206230
C20   C     C_R   0.934603 0.448290 0.979053 -0.007535
C21   C     C_R   0.697900 0.421176 0.894127 0.249983
C22   C     C_R   0.800391 0.457364 0.838371 -0.050321
C23   C     C_R   0.967603 0.503927 0.858584 -0.018371
C24   C     C_R   0.031909 0.503021 0.930105 0.043530
C25   C     C_R   0.746215 0.451889 0.764468 0.251009
C26   C     C_R   0.857731 0.491793 0.714381 -0.451845
C27   C     C_R   0.017125 0.545371 0.734787 0.215780
C28   C     C_R   0.069913 0.555068 0.808559 0.020063
C29   C     C_R   0.158533 0.497150 0.071451 0.047764
C30   C     C_R   0.217536 0.498527 0.143793 0.004510
C31   C     C_R   0.116832 0.445413 0.192986 -0.035541
C32   C     C_R   0.970069 0.379579 0.165994 -0.018562
H38   H     H_    0.817407 0.484647 0.658368 0.174612
H39   H     H_    0.896441 0.329225 0.198859 0.157106
C33   C     C_R   0.219989 0.618081 0.834764 -0.010613
C34   C     C_R   0.278436 0.621116 0.905237 -0.223999
C35   C     C_R   0.192126 0.558198 0.952727 0.050181
C36   C     C_R   0.257590 0.552726 0.022999 0.049179
C37   C     C_R   0.421828 0.596814 0.045700 -0.224313
C38   C     C_R   0.377992 0.551543 0.166557 -0.007360
C39   C     C_R   0.481130 0.593998 0.115264 -0.168852
C40   C     C_R   0.430010 0.559934 0.239879 0.133127
C41   C     C_R   0.320676 0.519070 0.289559 -0.531486
C42   C     C_R   0.167385 0.458440 0.267139 0.242145
H40   H     H_    0.293663 0.667670 0.801503 0.195032
H41   H     H_    0.608673 0.626847 0.128435 0.181263
H42   H     H_    0.360344 0.527906 0.345791 0.184398
H43   H     H_    0.685374 0.382979 0.000144 0.149807
H44   H     H_    0.801784 0.321188 0.078750 0.135467
H45   H     H_    0.393494 0.673446 0.920902 0.154545
H46   H     H_    0.509671 0.631599 0.010018 0.152154
C43   C     C_R   0.761337 0.179573 0.521991 -0.520870
C44   C     C_R   0.428005 0.804492 0.468785 -0.536937
C45   C     C_R   0.424782 0.970676 0.423331 0.093019
C46   C     C_R   0.345154 0.869394 0.432970 0.211386
C47   C     C_R   0.579430 0.845358 0.505139 0.297897
C48   C     C_R   0.645535 0.956813 0.508195 -0.087054
C49   C     C_R   0.563392 0.021846 0.468750 -0.070204
C50   C     C_R   0.621816 0.135249 0.477701 0.263612
C51   C     C_R   0.853633 0.114510 0.552383 0.207233
C52   C     C_R   0.793577 0.004625 0.547395 -0.197808
H47   H     H_    0.866589 0.957496 0.572705 0.165654
H48   H     H_    0.805018 0.265440 0.529194 0.169597
H49   H     H_    0.370849 0.722552 0.470742 0.171686
N1    N     N_R   0.747437 0.721271 0.751088 0.203913
O25   O     O_R   0.594753 0.676197 0.753423 -0.382989
O26   O     O_R   0.846551 0.723690 0.806109 -0.454843
C53   C     C_3   0.678544 0.862097 0.129893 -0.797355
H50   H     H_    0.751980 0.796841 0.112233 0.254393
H51   H     H_    0.546609 0.833073 0.114232 0.250439
H52   H     H_    0.723125 0.930755 0.101428 0.266769
N2    N     N_R   0.356740 0.191487 0.196200 0.272317
O27   O     O_R   0.354561 0.166161 0.125923 -0.382645
O28   O     O_R   0.247878 0.138234 0.232748 -0.376360
C54   C     C_3   0.512511 0.408658 0.892697 -0.851081
H53   H     H_    0.475042 0.479151 0.873870 0.269337
H54   H     H_    0.455490 0.330941 0.861407 0.283641
H55   H     H_    0.460674 0.408914 0.947431 0.218483
C55   C     C_3   0.395567 0.001348 0.350953 -0.746996
H56   H     H_    0.355394 0.930479 0.309139 0.198709
H57   H     H_    0.301582 0.055521 0.354141 0.293914
H58   H     H_    0.514954 0.033421 0.330208 0.226522

loop_
_geom_bond_atom_site_label_1
_geom_bond_atom_site_label_2
_geom_bond_distance
_ccdc_geom_bond_type
C22   C23   1.431860 A    
O10   C8    1.408157 S    
C2    H4    1.110038 S    
C48   C49   1.430007 A    
C41   C42   1.394995 A    
O8    Ba1   2.737310 S    
P2    C47   1.862106 S    
C16   H36   1.109485 S    
O14   P8    1.727410 S    
C4    C5    1.524305 S    
P7    O22   1.752299 S    
C8    N1    1.465340 S    
C30   C31   1.421465 A    
C7    H17   1.108441 S    
C14   H31   1.109843 S    
P3    O11   1.750710 S    
C5    H10   1.107768 S    
C2    H5    1.110031 S    
O11   C2    1.408021 S    
C39   H41   1.077526 S    
C53   H52   1.110296 S    
C33   C34   1.391933 A    
N2    O27   1.300380 A    
N2    O28   1.301031 A    
C6    C7    1.519023 S    
C35   C36   1.432352 A    
O1    Ba1   2.840592 S    
P1    O1    1.514194 D    
C11   H24   1.109493 S    
C4    O15   1.397802 S    
Ba1   O16   2.803589 S    
C31   C42   1.420928 A    
H1    C10   1.111566 S    
C40   C41   1.399215 A    
C38   C39   1.400467 A    
P8    C25   1.870526 S    
C52   H47   1.068245 S    
C55   H58   1.099514 S    
P2    O10   1.768304 S    
C34   C35   1.410845 A    
C17   C20   1.424185 A    
O19   C13   1.405033 S    
C1    H2    1.108050 S    
O6    C10   1.403772 S    
P5    O19   1.751512 S    
C11   H23   1.104847 S    
C8    C9    1.532380 S    
P4    C27   1.897477 S    
C29   C36   1.420312 A    
P2    Ba1   3.421773 S    
Ba1   Ba2   4.580728 S    
Ba1   O13   2.811476 S    
C31   C32   1.398184 A    
C9    H20   1.109690 S    
C48   C52   1.415505 A    
C26   C27   1.399635 A    
C54   H54   1.098959 S    
C16   H37   1.108877 S    
P4    O13   1.574109 S    
C14   H30   1.110067 S    
C43   H48   1.082522 S    
C21   C54   1.505223 S    
P7    O21   1.574881 D    
C2    C3    1.521572 S    
H35   C16   1.108910 S    
C38   C40   1.415661 A    
C24   C35   1.419893 A    
C13   H29   1.107946 S    
P5    C51   1.852294 S    
P6    C40   1.849930 S    
C4    H8    1.096394 S    
Ba2   O21   2.894480 S    
C14   H32   1.109883 S    
P1    Ba1   3.384067 S    
Ba2   O20   2.802969 S    
C33   H40   1.078215 S    
P1    O2    1.574109 S    
C9    H21   1.110560 S    
C12   H26   1.110861 S    
O3    P6    1.750295 S    
C11   C12   1.535220 S    
C15   O24   1.406433 S    
C54   H55   1.109569 S    
O2    Ba2   2.812127 S    
P8    O24   1.750940 S    
C19   C21   1.394609 A    
C18   H44   1.078455 S    
C25   C26   1.410790 A    
C6    H13   1.100767 S    
O2    Ba1   2.909876 S    
C32   H39   1.078862 S    
C41   H42   1.081738 S    
C53   H51   1.110812 S    
C1    H3    1.110504 S    
O3    Ba1   2.792052 S    
O16   P7    1.739914 S    
C44   C47   1.398527 A    
P3    C46   1.848568 S    
N1    O26   1.301368 A    
C8    H18   1.104261 S    
P2    O7    1.488532 D    
C22   C25   1.436366 A    
P3    O8    1.721031 S    
C43   C50   1.398674 A    
C45   C46   1.391628 A    
C3    H7    1.110239 S    
C10   H22   1.108177 S    
P7    C50   1.853512 S    
C4    H9    1.110653 S    
C9    H19   1.098685 S    
Ba1   O20   2.889935 S    
C47   C48   1.430142 A    
C17   C29   1.412700 A    
C15   C16   1.519565 S    
C44   C46   1.392060 A    
C54   H53   1.098996 S    
O17   Ba2   2.737939 S    
C11   O22   1.396403 S    
O13   Ba2   2.910771 S    
C28   C33   1.401413 A    
P4    O12   1.514538 D    
C1    C10   1.532765 S    
C44   H49   1.081726 S    
C43   C51   1.386090 A    
C3    H6    1.107300 S    
C5    H12   1.106847 S    
O7    Ba1   2.894248 S    
N1    O25   1.299656 A    
C13   C14   1.520593 S    
C53   H50   1.108895 S    
C12   N2    1.463512 S    
C30   C38   1.414029 A    
O14   Ba2   2.791392 S    
P4    O15   1.751284 S    
O5    C6    1.391359 S    
O4    P6    1.542180 D    
P5    O18   1.546396 D    
C12   H25   1.104522 S    
C5    H11   1.106537 S    
C49   C50   1.431182 A    
C13   H28   1.108093 S    
C36   C37   1.413223 A    
C37   H46   1.077974 S    
C15   H34   1.110138 S    
C1    C53   1.526604 S    
P8    O23   1.543753 D    
C19   C20   1.397561 A    
O16   Ba2   2.889039 S    
C23   C28   1.427562 A    
C7    H16   1.104776 S    
C21   C22   1.431572 A    
C6    H14   1.105272 S    
C3    H27   1.107454 S    
C55   H57   1.106668 S    
C23   C24   1.436882 A    
C19   H43   1.077688 S    
C37   C39   1.393528 A    
C26   H38   1.081691 S    
C45   C55   1.494704 S    
C20   C24   1.414409 A    
C15   H33   1.110275 S    
P2    O20   1.590057 S    
C45   C49   1.422487 A    
C17   C18   1.415155 A    
C7    H15   1.105415 S    
C27   C28   1.423473 A    
P3    O9    1.543533 D    
P4    Ba2   3.384653 S    
P1    O5    1.747289 S    
C34   H45   1.077982 S    
C55   H56   1.100844 S    
C29   C30   1.430208 A    
P1    C42   1.869608 S    
P5    O17   1.757689 S    
O6    P6    1.751274 S    
C18   C32   1.388836 A    
C51   C52   1.397041 A    
O12   Ba2   2.840917 S    
