data_mof_unit_18114.cif
_audit_creation_date              2012-12-10T20:39:06-0500
_audit_creation_method            fapswitch 2.2
_symmetry_space_group_name_H-M    P1
_symmetry_Int_Tables_number       1
_space_group_crystal_system       triclinic
_cell_length_a                    18.819153
_cell_length_b                    10.73565
_cell_length_c                    9.870963
_cell_angle_alpha                 89.465691
_cell_angle_beta                  90.063975
_cell_angle_gamma                 91.188917
_cell_volume                      1993.77141528

loop_
_atom_site_label
_atom_site_type_symbol
_atom_type_description
_atom_site_fract_x
_atom_site_fract_y
_atom_site_fract_z
_atom_type_partial_charge
C1    C     C_R   0.501961 0.259511 0.499596 0.921228
C2    C     C_R   0.290379 0.538958 0.497996 -0.040236
C3    C     C_R   0.931078 0.637727 0.487922 0.284956
C4    C     C_R   0.074597 0.645082 0.482478 0.284233
C5    C     C_R   0.819052 0.595777 0.616483 -0.161431
C6    C     C_R   0.748136 0.556472 0.619796 -0.215691
C7    C     C_R   0.711807 0.530586 0.498723 -0.021296
C8    C     C_R   0.747390 0.544034 0.374590 -0.196066
C9    C     C_R   0.817998 0.583462 0.371240 -0.163877
C10   C     C_R   0.854581 0.609344 0.492053 0.089349
C11   C     C_R   0.536563 0.062883 0.608594 -0.136857
C12   C     C_R   0.365044 0.505599 0.499821 0.852700
C13   C     C_R   0.514196 0.128012 0.494164 -0.164202
C14   C     C_R   0.511476 0.063682 0.369113 0.506933
C15   C     C_R   0.511552 0.934415 0.371473 -0.305155
C16   C     C_R   0.519830 0.870494 0.494868 -0.150381
C17   C     C_R   0.543791 0.937028 0.607449 -0.075795
C18   C     C_3   0.537076 0.926511 0.759582 0.897956
C19   C     C_3   0.520312 0.066316 0.756236 0.292134
C20   C     C_R   0.439088 0.519041 0.071354 0.059244
C21   C     C_R   0.561306 0.485388 0.072016 -0.110355
C22   C     C_R   0.561208 0.484160 0.928390 -0.205099
C23   C     C_R   0.505016 0.739678 0.499370 0.921345
C24   C     C_R   0.439127 0.523876 0.928815 0.141584
C25   C     C_3   0.370056 0.452261 0.923081 0.238738
C26   C     C_3   0.374260 0.437773 0.076913 0.237287
C27   C     C_R   0.635303 0.504073 0.499927 0.822136
C28   C     C_R   0.265295 0.625518 0.591186 -0.139060
C29   C     C_R   0.195067 0.663669 0.584923 -0.195296
C30   C     C_R   0.150273 0.618780 0.482218 0.086012
C31   C     C_R   0.176432 0.536452 0.385766 -0.147638
C32   C     C_R   0.245814 0.496430 0.394303 -0.218854
H1    H     H_    0.500281 0.885634 0.277990 0.175252
H2    H     H_    0.558411 0.128161 0.812305 0.054282
H3    H     H_    0.610623 0.472054 0.125833 0.136768
H4    H     H_    0.175792 0.727789 0.659871 0.154094
H5    H     H_    0.142545 0.499152 0.306489 0.145438
H6    H     H_    0.721573 0.548358 0.716846 0.139962
H7    H     H_    0.720494 0.525928 0.279527 0.143479
N1    N     N_R   0.036883 0.635706 0.365953 -0.178028
N2    N     N_R   0.966430 0.632516 0.368625 -0.181437
N3    N     N_R   0.968818 0.653081 0.604047 -0.178972
N4    N     N_R   0.039461 0.656754 0.601389 -0.175452
N5    N     N_R   0.499530 0.499140 0.142800 -0.069223
N6    N     N_R   0.499530 0.499180 0.857150 -0.124275
O1    O     O_R   0.500010 0.316790 0.614690 -0.608365
O2    O     O_R   0.500000 0.316760 0.385350 -0.538403
O3    O     O_R   0.398140 0.500000 0.614710 -0.589039
O4    O     O_R   0.398130 0.499970 0.385370 -0.609998
O5    O     O_R   0.500000 0.683240 0.614650 -0.579044
O6    O     O_R   0.499990 0.683210 0.385310 -0.637538
O7    O     O_R   0.601870 0.500030 0.614630 -0.644675
O8    O     O_R   0.601860 0.500000 0.385290 -0.635505
Zn1   Zn    Zn3+2 0.500000 0.500020 0.653130 0.962295
Zn2   Zn    Zn3+2 0.500000 0.499980 0.346870 0.979352
H8    H     H_    0.300231 0.664838 0.667524 0.212680
O9    O     O_3   0.479192 0.849731 0.804682 -0.582480
C33   C     C_3   0.481795 0.829273 0.946443 -0.194587
H9    H     H_    0.505412 0.908365 0.003738 0.138847
H10   H     H_    0.513423 0.745948 0.969582 0.163999
H11   H     H_    0.426969 0.811979 0.984288 0.173166
O10   O     O_3   0.603124 0.905293 0.826129 -0.690708
C34   C     C_3   0.633449 0.792749 0.784221 -0.331297
H12   H     H_    0.653747 0.800885 0.678784 0.169143
H13   H     H_    0.595698 0.712628 0.793699 0.212505
H14   H     H_    0.679458 0.772930 0.850740 0.185629
O11   O     O_3   0.446976 0.087580 0.772858 -0.590560
C35   C     C_3   0.434909 0.143518 0.898258 -0.195571
H15   H     H_    0.449752 0.082554 0.983931 0.182880
H16   H     H_    0.377101 0.158911 0.907427 0.187884
H17   H     H_    0.464136 0.234218 0.905385 0.174936
H18   H     H_    0.610410 0.469700 0.875017 0.151489
O12   O     O_3   0.314541 0.531310 0.883766 -0.612462
C36   C     C_3   0.251005 0.460305 0.870942 -0.324523
H19   H     H_    0.236482 0.412001 0.967290 0.145898
H20   H     H_    0.254915 0.392190 0.787144 0.176537
H21   H     H_    0.207166 0.524069 0.846102 0.205931
H22   H     H_    0.373734 0.366732 0.861724 0.112223
H23   H     H_    0.330887 0.481828 0.134736 0.109575
O13   O     O_3   0.393209 0.315796 0.116444 -0.589388
C37   C     C_3   0.335457 0.250664 0.176290 -0.269798
H24   H     H_    0.283567 0.271611 0.128012 0.110278
H25   H     H_    0.334425 0.269238 0.286549 0.184144
H26   H     H_    0.343912 0.149378 0.164785 0.196459
H27   H     H_    0.264052 0.431494 0.320552 0.125838
H28   H     H_    0.846113 0.614076 0.711317 0.147943
H29   H     H_    0.843999 0.592230 0.273710 0.148312
O14   O     O_3   0.499760 0.123762 0.246907 -0.578376
C38   C     C_3   0.565592 0.138003 0.179633 -0.279860
H30   H     H_    0.605495 0.188959 0.242913 0.156487
H31   H     H_    0.557748 0.194333 0.086336 0.185538
H32   H     H_    0.586410 0.046228 0.148958 0.151777

loop_
_geom_bond_atom_site_label_1
_geom_bond_atom_site_label_2
_ccdc_geom_bond_type
C8    C9    A    
C34   H13   S    
C3    N3    A    
O12   C36   S    
C12   O3    A    
C2    C12   S    
C12   O4    A    
C28   H8    S    
C7    C8    A    
O3    Zn1   S    
C29   H4    S    
C11   C19   S    
O5    Zn1   S    
C36   H20   S    
C24   N6    A    
C28   C29   A    
C5    C6    A    
C1    O1    A    
C33   H10   S    
C15   C16   A    
C7    C27   S    
C2    C32   A    
C18   C19   S    
C37   H25   S    
C35   H15   S    
C11   C17   A    
C20   C24   A    
C16   C17   A    
C36   H21   S    
C6    H6    S    
C19   O11   S    
C8    H7    S    
C38   H31   S    
C9    C10   A    
C25   O12   S    
C33   H11   S    
C34   H14   S    
C13   C14   A    
C22   H18   S    
C20   N5    A    
O7    Zn1   S    
C37   H24   S    
O8    Zn2   S    
C36   H19   S    
O11   C35   S    
C4    N1    A    
C24   C25   S    
C1    O2    A    
C23   O5    A    
C25   C26   S    
O4    Zn2   S    
C26   O13   S    
C25   H22   S    
C29   C30   A    
C21   N5    A    
C18   O9    S    
C23   O6    A    
C31   C32   A    
O1    Zn1   S    
O10   C34   S    
C17   C18   S    
C38   H32   S    
C5    H28   S    
N1    N2    A    
N6    Zn1   S    
C16   C23   S    
C1    C13   S    
N3    N4    A    
C37   H26   S    
C27   O7    A    
O2    Zn2   S    
C3    N2    A    
C18   O10   S    
O13   C37   S    
C19   H2    S    
C27   O8    A    
C6    C7    A    
C21   H3    S    
C4    N4    A    
C26   H23   S    
C33   H9    S    
C14   O14   S    
C5    C10   A    
C3    C10   S    
C9    H29   S    
C11   C13   A    
N5    Zn2   S    
O9    C33   S    
C30   C31   A    
C20   C26   S    
C35   H17   S    
C32   H27   S    
O6    Zn2   S    
C34   H12   S    
C31   H5    S    
C22   N6    A    
O14   C38   S    
C35   H16   S    
C14   C15   A    
C2    C28   A    
C38   H30   S    
C21   C22   A    
C15   H1    S    
C4    C30   S    
