data_mof_unit_11844.cif
_audit_creation_date              2012-10-26T21:21:02-0400
_audit_creation_method            fapswitch 2.2
_symmetry_space_group_name_H-M    P1
_symmetry_Int_Tables_number       1
_space_group_crystal_system       triclinic
_cell_length_a                    10.837882
_cell_length_b                    10.942798
_cell_length_c                    9.768621
_cell_angle_alpha                 90.845791
_cell_angle_beta                  89.296769
_cell_angle_gamma                 92.485074
_cell_volume                      1157.23261418

loop_
_atom_site_label
_atom_site_type_symbol
_atom_type_description
_atom_site_fract_x
_atom_site_fract_y
_atom_site_fract_z
_atom_type_partial_charge
C1    C     C_R   0.497201 0.265636 0.498473 0.551679
C2    C     C_2   0.475375 0.133767 0.491224 0.053992
C3    C     C_2   0.401645 0.492230 0.923749 -0.018054
C4    C     C_R   0.262847 0.505496 0.501447 0.556715
C5    C     C_2   0.408628 0.459211 0.072363 0.179661
C6    C     C_R   0.499399 0.734251 0.501216 0.533829
C7    C     C_R   0.737491 0.509158 0.499491 0.521192
C8    C     C_R   0.132842 0.656134 0.708891 -0.106726
C9    C     C_R   0.069952 0.720130 0.809400 -0.129240
C10   C     C_R   0.945394 0.738248 0.794979 -0.092897
C11   C     C_R   0.883739 0.694751 0.677453 0.038783
C12   C     C_R   0.068380 0.591035 0.603200 0.019566
C13   C     C_R   0.938701 0.603536 0.593142 0.037073
C14   C     C_2   0.361920 0.085462 0.564207 0.546133
C15   C     C_2   0.305424 0.378646 0.123131 0.603805
C16   C     C_3   0.583939 0.599269 0.108881 -0.113379
C17   C     C_3   0.518887 0.715866 0.070418 -0.411753
C18   C     C_3   0.777688 0.768591 0.631255 -0.263982
C19   C     C_3   0.818423 0.903487 0.612594 -0.457515
C20   C     C_3   0.651116 0.122527 0.318986 -0.264963
C21   C     C_3   0.734503 0.031594 0.246880 -0.455991
C22   C     C_R   0.129277 0.516991 0.504735 0.001267
C23   C     C_R   0.061752 0.452410 0.404571 -0.133882
C24   C     C_R   0.934956 0.455644 0.402225 -0.152144
C25   C     C_R   0.871965 0.527075 0.497171 -0.008635
C26   C     C_2   0.519770 0.932341 0.393457 -0.091279
C27   C     C_2   0.510324 0.866083 0.506768 -0.101770
C28   C     C_2   0.543756 0.065211 0.403091 -0.032481
Cu1   Cu    Cu3+1 0.500020 0.500020 0.638630 0.948634
Cu2   Cu    Cu3+1 0.499980 0.499980 0.361370 0.959239
H1    H     H_    0.106992 0.393889 0.331260 0.173450
H2    H     H_    0.208462 0.974033 0.560314 0.336722
H3    H     H_    0.249758 0.231595 0.233512 0.329843
H4    H     H_    0.435905 0.728617 0.135902 0.177772
H5    H     H_    0.583854 0.796166 0.083188 0.099662
H6    H     H_    0.491141 0.714251 0.961698 0.155542
H7    H     H_    0.645087 0.625529 0.194824 0.189725
H8    H     H_    0.650732 0.571750 0.029373 0.096042
H9    H     H_    0.843742 0.947867 0.711781 0.155817
H10   H     H_    0.898670 0.911286 0.540879 0.164838
H11   H     H_    0.742262 0.954713 0.570041 0.141915
H12   H     H_    0.312235 0.504855 0.878924 0.169689
H13   H     H_    0.743578 0.736382 0.530462 0.148846
H14   H     H_    0.702183 0.761971 0.708870 0.170543
H15   H     H_    0.768741 0.964834 0.320262 0.154130
H16   H     H_    0.683949 0.982468 0.163230 0.145142
H17   H     H_    0.815445 0.082040 0.200711 0.152344
H18   H     H_    0.614052 0.181235 0.238786 0.200597
H19   H     H_    0.710674 0.180687 0.387888 0.139523
H20   H     H_    0.573390 0.455108 0.883474 0.226567
H21   H     H_    0.231657 0.660409 0.717554 0.151917
H22   H     H_    0.119996 0.763973 0.893296 0.125872
H23   H     H_    0.901053 0.799159 0.866847 0.110947
H24   H     H_    0.885282 0.398051 0.328245 0.138549
H25   H     H_    0.519081 0.888865 0.293305 0.149179
H26   H     H_    0.517906 0.909752 0.607186 0.110817
N1    N     N_2   0.498640 0.498660 0.846910 -0.380300
N2    N     N_2   0.498610 0.498630 0.153040 -0.255835
O1    O     O_R   0.500020 0.321960 0.617040 -0.459837
O2    O     O_R   0.282202 0.998793 0.500470 -0.703147
O3    O     O_2   0.200680 0.392941 0.082843 -0.563179
O4    O     O_R   0.327673 0.281479 0.208864 -0.656936
O5    O     O_R   0.499980 0.321920 0.382900 -0.461575
O6    O     O_R   0.319670 0.500020 0.617100 -0.505899
O7    O     O_R   0.319630 0.499980 0.382950 -0.475365
O8    O     O_R   0.500020 0.678080 0.617100 -0.518644
O9    O     O_R   0.499980 0.678040 0.382960 -0.520640
O10   O     O_R   0.680370 0.500020 0.617050 -0.498267
O11   O     O_R   0.680330 0.499980 0.382900 -0.534113
O12   O     O_2   0.336069 0.125064 0.678249 -0.499131

loop_
_geom_bond_atom_site_label_1
_geom_bond_atom_site_label_2
_ccdc_geom_bond_type
C7    O11   A    
C17   H4    S    
C23   C24   A    
C3    H12   S    
Cu1   Cu2   S    
C17   H6    S    
C18   H14   S    
Cu1   O10   S    
C11   C13   A    
C9    C10   A    
C4    O6    A    
C26   C28   S    
C6    C27   S    
C7    C25   S    
C16   H7    S    
C8    C12   A    
C26   H25   S    
Cu2   N2    S    
C15   O3    D    
Cu1   O6    S    
C11   C18   S    
C16   N2    S    
C18   H13   S    
C24   C25   A    
C12   C13   A    
C14   O12   D    
C8    H21   S    
C13   C25   A    
C26   C27   D    
C20   H18   S    
Cu2   O9    S    
C19   H9    S    
C5    N2    D    
C20   H19   S    
C3    N1    D    
C17   H5    S    
C6    O9    A    
C15   O4    S    
Cu1   N1    S    
C21   H16   S    
C9    H22   S    
C21   H15   S    
C1    O1    A    
C4    O7    A    
C2    C14   S    
C5    C15   S    
Cu2   O7    S    
C16   C17   S    
C10   C11   A    
H2    O2    S    
C24   H24   S    
Cu1   O8    S    
C12   C22   A    
C6    O8    A    
Cu2   O11   S    
C4    C22   S    
C20   C21   S    
C18   C19   S    
C19   H10   S    
C14   O2    S    
C1    C2    S    
C10   H23   S    
Cu1   O1    S    
C27   H26   S    
H3    O4    S    
C2    C28   D    
C20   C28   S    
C3    C5    S    
C7    O10   A    
Cu2   O5    S    
H20   N1    S    
C22   C23   A    
C1    O5    A    
C19   H11   S    
C16   H8    S    
C8    C9    A    
C21   H17   S    
C23   H1    S    
