data_mof_unit_57261.cif
_audit_creation_date              2012-12-10T20:38:16-0500
_audit_creation_method            fapswitch 2.2
_symmetry_space_group_name_H-M    P1
_symmetry_Int_Tables_number       1
_space_group_crystal_system       triclinic
_cell_length_a                    9.885703
_cell_length_b                    10.718257
_cell_length_c                    16.545554
_cell_angle_alpha                 90.825914
_cell_angle_beta                  85.369652
_cell_angle_gamma                 90.485634
_cell_volume                      1747.1753095

loop_
_atom_site_label
_atom_site_type_symbol
_atom_type_description
_atom_site_fract_x
_atom_site_fract_y
_atom_site_fract_z
_atom_type_partial_charge
C1    C     C_R   0.500931 0.739677 0.499003 0.875060
C2    C     C_R   0.342097 0.438832 0.780336 -0.243422
C3    C     C_R   0.412764 0.499861 0.132496 -0.104953
C4    C     C_R   0.408851 0.521656 0.216160 0.473114
C5    C     C_R   0.651433 0.482955 0.212672 -0.290158
C6    C     C_R   0.657054 0.464878 0.128792 0.010288
C7    C     C_R   0.535929 0.465005 0.089463 -0.068397
C8    C     C_2   0.457362 0.342871 0.976070 -0.164357
C9    C     C_2   0.538642 0.432304 0.003153 -0.105731
C10   C     C_R   0.526836 0.503640 0.257197 -0.194876
C11   C     C_R   0.405969 0.933537 0.454660 0.054268
C12   C     C_R   0.480986 0.488836 0.652918 0.873333
C13   C     C_R   0.506444 0.870958 0.491537 -0.053189
C14   C     C_R   0.618484 0.936889 0.517326 -0.189670
C15   C     C_R   0.616978 0.065636 0.518183 -0.162977
C16   C     C_R   0.503276 0.127969 0.493508 -0.073005
C17   C     C_R   0.403084 0.060941 0.456431 0.063052
C18   C     C_3   0.249972 0.062807 0.464100 -0.122685
C19   C     C_3   0.255126 0.920323 0.461772 -0.523679
C20   C     C_R   0.925017 0.591588 0.540374 0.068465
C21   C     C_R   0.933728 0.419384 0.452012 -0.044681
C22   C     C_R   0.077700 0.420395 0.451495 -0.001255
C23   C     C_R   0.499835 0.260066 0.499329 0.878349
C24   C     C_R   0.066981 0.592314 0.539356 0.100164
C25   C     C_3   0.066316 0.629601 0.626165 0.247121
C26   C     C_3   0.911008 0.627326 0.628759 0.251589
C27   C     C_R   0.518290 0.502707 0.346025 0.912091
C28   C     C_R   0.467570 0.437272 0.734362 -0.059260
C29   C     C_R   0.574489 0.368634 0.761321 -0.194965
C30   C     C_R   0.563752 0.319858 0.838601 -0.185310
C31   C     C_R   0.444088 0.335684 0.888852 0.104090
C32   C     C_R   0.327365 0.384513 0.856988 0.017244
H1    H     H_    0.667864 0.355280 0.723489 0.210738
H2    H     H_    0.702533 0.889790 0.541700 0.167092
H3    H     H_    0.700585 0.115572 0.542717 0.190030
H4    H     H_    0.216443 0.875526 0.518978 0.279241
H5    H     H_    0.217757 0.876139 0.406517 0.189671
H6    H     H_    0.884103 0.352333 0.414616 0.155333
H7    H     H_    0.136545 0.355976 0.412922 0.181080
H8    H     H_    0.112681 0.556927 0.662328 0.130540
H9    H     H_    0.860546 0.719560 0.639024 0.097499
H10   H     H_    0.743846 0.476162 0.243396 0.206133
H11   H     H_    0.605402 0.486031 0.961029 0.162932
H12   H     H_    0.255848 0.482237 0.756334 0.179543
H13   H     H_    0.389597 0.290134 0.017952 0.201763
H14   H     H_    0.652695 0.279522 0.861924 0.179345
N1    N     N_R   0.857140 0.500860 0.500530 -0.092664
N2    N     N_R   0.142780 0.500820 0.500530 -0.132769
O1    O     O_R   0.385310 0.683210 0.499990 -0.595175
O2    O     O_R   0.614650 0.683240 0.500000 -0.632187
O3    O     O_R   0.371780 0.500000 0.615800 -0.623400
O4    O     O_R   0.601120 0.500040 0.615800 -0.565348
O5    O     O_R   0.385350 0.316760 0.500000 -0.620714
O6    O     O_R   0.614690 0.316790 0.500010 -0.622268
O7    O     O_R   0.398880 0.499960 0.384200 -0.556292
O8    O     O_R   0.628220 0.500000 0.384200 -0.629176
Zn1   Zn    Zn3+2 0.346870 0.499980 0.499990 1.007408
Zn2   Zn    Zn3+2 0.653130 0.500020 0.500010 0.992130
C33   C     C_2   0.790558 0.448101 0.083366 0.926098
O9    O     O_2   0.809274 0.361742 0.034732 -0.615735
O10   O     O_R   0.893853 0.534596 0.094514 -0.762054
H15   H     H_    0.973447 0.523517 0.052706 0.366604
C34   C     C_2   0.188383 0.113794 0.544846 0.946876
O11   O     O_2   0.086662 0.178364 0.547988 -0.621363
O12   O     O_R   0.247396 0.085132 0.616312 -0.806098
H16   H     H_    0.197701 0.124433 0.666188 0.343146
C35   C     C_2   0.189493 0.113854 0.390240 0.892361
O13   O     O_2   0.260674 0.169787 0.338481 -0.619276
O14   O     O_R   0.051340 0.095440 0.381111 -0.784040
H17   H     H_    0.022001 0.133981 0.329786 0.348591
O15   O     O_3   0.287490 0.556645 0.257735 -0.563677
C36   C     C_3   0.285196 0.687962 0.264679 -0.224949
H18   H     H_    0.292838 0.732401 0.204069 0.160840
H19   H     H_    0.367281 0.723690 0.301269 0.136377
H20   H     H_    0.186798 0.715884 0.296450 0.195921
O16   O     O_3   0.120951 0.751019 0.632896 -0.624012
C37   C     C_3   0.132007 0.782593 0.715017 -0.273202
H21   H     H_    0.189884 0.871401 0.717969 0.225626
H22   H     H_    0.188585 0.711179 0.746648 0.162057
H23   H     H_    0.030144 0.798720 0.746644 0.155704
O17   O     O_3   0.854852 0.529430 0.677224 -0.584828
C38   C     C_3   0.839144 0.570708 0.758830 -0.298998
H24   H     H_    0.759860 0.643782 0.767349 0.163836
H25   H     H_    0.936336 0.604724 0.780544 0.180103
H26   H     H_    0.806967 0.491009 0.797821 0.200750
C39   C     C_2   0.191011 0.383328 0.902161 0.910850
O18   O     O_2   0.166630 0.313622 0.959419 -0.591183
O19   O     O_R   0.088080 0.458920 0.877040 -0.851157
H27   H     H_    0.998609 0.447042 0.910530 0.354320
C40   C     C_2   0.288340 0.520389 0.090661 0.958056
O20   O     O_2   0.180722 0.475098 0.117984 -0.540718
O21   O     O_R   0.293955 0.593965 0.021369 -0.817320
H28   H     H_    0.201565 0.606040 0.000361 0.344356

loop_
_geom_bond_atom_site_label_1
_geom_bond_atom_site_label_2
_ccdc_geom_bond_type
C10   C27   S    
C22   N2    A    
C5    H10   S    
C34   O12   S    
O17   C38   S    
N2    Zn1   S    
C37   H21   S    
C11   C19   S    
C12   C28   S    
C3    C40   S    
C28   C29   A    
C3    C7    A    
C19   H4    S    
C25   H8    S    
C5    C6    A    
C27   O7    A    
C18   C34   S    
C15   C16   A    
C29   H1    S    
O1    Zn1   S    
C2    C32   A    
C18   C19   S    
C8    H13   S    
C19   H5    S    
C21   H6    S    
C20   C24   A    
C2    H12   S    
C8    C9    D    
O3    Zn1   S    
C1    O2    A    
C33   O9    D    
C13   C14   A    
O14   H17   S    
C36   H20   S    
C15   H3    S    
C12   O4    A    
C23   O5    A    
C37   H22   S    
C9    H11   S    
C33   O10   S    
C35   O13   D    
O2    Zn2   S    
C24   C25   S    
C36   H19   S    
O5    Zn1   S    
C27   O8    A    
C16   C17   A    
C25   C26   S    
C35   O14   S    
C24   N2    A    
C29   C30   A    
C40   O21   S    
C31   C32   A    
C32   C39   S    
C17   C18   S    
O16   C37   S    
O4    Zn2   S    
O12   H16   S    
C16   C23   S    
C38   H25   S    
O7    Zn1   S    
C1    C13   S    
C4    C10   A    
C3    C4    A    
C12   O3    A    
C23   O6    A    
O6    Zn2   S    
C37   H23   S    
C7    C9    S    
C11   C17   A    
C39   O18   D    
C8    C31   S    
C6    C33   S    
C30   H14   S    
C36   H18   S    
C14   H2    S    
C6    C7    A    
C26   O17   S    
C38   H26   S    
C25   O16   S    
C18   C35   S    
C5    C10   A    
N1    Zn2   S    
C11   C13   A    
C40   O20   D    
C30   C31   A    
C20   C26   S    
C22   H7    S    
O21   H28   S    
O8    Zn2   S    
C39   O19   S    
O10   H15   S    
C20   N1    A    
C34   O11   D    
O15   C36   S    
O19   H27   S    
C38   H24   S    
C14   C15   A    
C2    C28   A    
C21   C22   A    
C1    O1    A    
C4    O15   S    
C26   H9    S    
C21   N1    A    
