data_mof_unit_16018.cif
_audit_creation_date              2012-12-10T17:03:42-0500
_audit_creation_method            fapswitch 2.2
_symmetry_space_group_name_H-M    P1
_symmetry_Int_Tables_number       1
_space_group_crystal_system       triclinic
_cell_length_a                    10.029149
_cell_length_b                    10.725324
_cell_length_c                    13.13014
_cell_angle_alpha                 90.204767
_cell_angle_beta                  70.046366
_cell_angle_gamma                 90.30648
_cell_volume                      1327.54872053

loop_
_atom_site_label
_atom_site_type_symbol
_atom_type_description
_atom_site_fract_x
_atom_site_fract_y
_atom_site_fract_z
_atom_type_partial_charge
C1    C     C_R   0.501643 0.737414 0.497569 0.926799
C2    C     C_R   0.431019 0.472500 0.984772 0.088290
C3    C     C_R   0.459780 0.438517 0.875791 0.086698
C4    C     C_R   0.539321 0.456568 0.029734 0.079064
C5    C     C_R   0.663407 0.388134 0.973021 0.175072
C6    C     C_R   0.679326 0.338199 0.871513 -0.258355
C7    C     C_R   0.578842 0.363082 0.823244 -0.205696
C8    C     C_R   0.528687 0.509587 0.128882 -0.260408
C9    C     C_R   0.748382 0.413337 0.123988 -0.207329
C10   C     C_R   0.369564 0.482904 0.821873 -0.126569
C11   C     C_2   0.606458 0.067141 0.509063 -0.208631
C12   C     C_R   0.421186 0.493237 0.704020 0.858534
C13   C     C_2   0.485996 0.132808 0.532899 0.058010
C14   C     C_2   0.604443 0.933266 0.516024 -0.159181
C15   C     C_2   0.507488 0.869271 0.488637 -0.292306
C16   C     C_2   0.105320 0.436835 0.431072 -0.133273
C17   C     C_2   0.957137 0.442991 0.427128 -0.145537
C18   C     C_R   0.496948 0.262692 0.506293 0.848439
C19   C     C_R   0.578752 0.499164 0.295797 0.869238
C20   C     C_R   0.768512 0.369117 0.019762 -0.202526
C21   C     C_R   0.625732 0.480706 0.179372 -0.059100
C22   C     C_R   0.236726 0.532870 0.881451 -0.192452
C23   C     C_R   0.198065 0.547429 0.992862 -0.150124
C24   C     C_R   0.295268 0.521039 0.044169 -0.199293
H1    H     H_    0.824343 0.389898 0.162902 0.149975
H2    H     H_    0.686359 0.887813 0.539184 0.170076
H3    H     H_    0.431321 0.914050 0.458634 0.166053
H4    H     H_    0.181003 0.378266 0.371665 0.162806
H5    H     H_    0.079498 0.559426 0.551333 0.160558
H6    H     H_    0.937030 0.395753 0.360583 0.153485
H7    H     H_    0.868896 0.537460 0.565170 0.168632
H8    H     H_    0.770837 0.281986 0.828445 0.148903
H9    H     H_    0.863071 0.316108 0.977557 0.139506
H10   H     H_    0.441872 0.570477 0.170977 0.150125
H11   H     H_    0.164626 0.564271 0.841538 0.158532
H12   H     H_    0.260219 0.536263 0.130573 0.133067
H13   H     H_    0.094809 0.584600 0.038950 0.147335
H14   H     H_    0.594487 0.321335 0.744896 0.172704
H15   H     H_    0.710206 0.111147 0.476191 0.153256
N1    N     N_2   0.148270 0.498670 0.498870 -0.190239
N2    N     N_2   0.852610 0.498640 0.498840 -0.189482
O1    O     O_R   0.386950 0.680940 0.500020 -0.610714
O2    O     O_R   0.613110 0.680900 0.499980 -0.606801
O3    O     O_R   0.330780 0.500000 0.653640 -0.609730
O4    O     O_R   0.556930 0.499960 0.653610 -0.609338
O5    O     O_R   0.386890 0.319100 0.500020 -0.614230
O6    O     O_R   0.613050 0.319060 0.499980 -0.625347
O7    O     O_R   0.443070 0.500040 0.346390 -0.609487
O8    O     O_R   0.669220 0.500000 0.346360 -0.611774
Zn1   Zn    Zn3+2 0.349000 0.500030 0.500020 0.935215
Zn2   Zn    Zn3+2 0.651000 0.499970 0.499980 0.932705
N3    N     N_2   0.350134 0.080796 0.592562 -0.302358
H16   H     H_    0.266529 0.120052 0.575480 0.234925
C25   C     C_3   0.322299 0.071195 0.707872 -0.763132
H17   H     H_    0.217810 0.025433 0.747236 0.233057
H18   H     H_    0.320181 0.165567 0.743743 0.224045
H19   H     H_    0.404819 0.013920 0.724083 0.258310

loop_
_geom_bond_atom_site_label_1
_geom_bond_atom_site_label_2
_ccdc_geom_bond_type
C16   H4    S    
C2    C4    A    
C23   C24   A    
C6    C7    A    
C1    C15   S    
C23   H13   S    
C13   N3    S    
C1    O2    A    
O5    Zn1   S    
C9    C20   A    
C15   H3    S    
O1    Zn1   S    
C4    C8    A    
C9    C21   A    
C18   O6    A    
O7    Zn1   S    
C2    C3    A    
C9    H1    S    
C12   O3    A    
C3    C10   A    
C8    H10   S    
C10   C22   A    
C11   H15   S    
C17   H6    S    
C11   C13   D    
O2    Zn2   S    
C24   H12   S    
C10   C12   S    
C13   C18   S    
C16   N1    D    
N1    Zn1   S    
C20   H9    S    
C18   O5    A    
H5    N1    S    
C19   C21   S    
C7    H14   S    
N3    C25   S    
C8    C21   A    
C3    C7    A    
C2    C24   A    
C5    C6    A    
C11   C14   S    
C25   H18   S    
C17   N2    D    
C22   H11   S    
O4    Zn2   S    
C25   H17   S    
C1    O1    A    
N3    H16   S    
C6    H8    S    
O3    Zn1   S    
C5    C20   A    
C19   O8    A    
C14   C15   D    
C4    C5    A    
O6    Zn2   S    
H7    N2    S    
C22   C23   A    
N2    Zn2   S    
C14   H2    S    
C16   C17   S    
C19   O7    A    
C12   O4    A    
O8    Zn2   S    
C25   H19   S    
