data_mof_unit_25746.cif
_audit_creation_date              2012-12-10T17:33:00-0500
_audit_creation_method            fapswitch 2.2
_symmetry_space_group_name_H-M    P1
_symmetry_Int_Tables_number       1
_space_group_crystal_system       triclinic
_cell_length_a                    12.476305
_cell_length_b                    13.528997
_cell_length_c                    14.297293
_cell_angle_alpha                 94.108419
_cell_angle_beta                  108.423817
_cell_angle_gamma                 117.794746
_cell_volume                      1955.23208474

loop_
_atom_site_label
_atom_site_type_symbol
_atom_type_description
_atom_site_fract_x
_atom_site_fract_y
_atom_site_fract_z
_atom_type_partial_charge
C1    C     C_R   0.652273 0.714089 0.510036 0.833799
C2    C     C_R   0.865798 0.521609 0.922912 0.039359
C3    C     C_R   0.861736 0.589368 0.000396 -0.105267
C4    C     C_R   0.965830 0.492349 0.947927 -0.043964
C5    C     C_R   0.050418 0.519737 0.051866 0.018591
C6    C     C_R   0.024554 0.565811 0.128685 0.478936
C7    C     C_R   0.934642 0.603639 0.102033 -0.206482
C8    C     C_R   0.988186 0.441887 0.871684 -0.100264
C9    C     C_R   0.073112 0.399423 0.895374 0.404399
C10   C     C_R   0.146869 0.414995 0.998735 -0.020554
C11   C     C_R   0.149851 0.489894 0.075544 0.002883
C12   C     C_R   0.620489 0.519664 0.686960 0.799720
C13   C     C_R   0.217115 0.357826 0.027979 -0.140741
C14   C     C_R   0.291523 0.377703 0.130822 -0.188636
C15   C     C_R   0.251518 0.529851 0.173526 0.240813
C16   C     C_R   0.170781 0.967338 0.400521 0.177173
C17   C     C_R   0.265023 0.165870 0.488121 -0.201081
C18   C     C_R   0.757736 0.923300 0.596967 0.004845
C19   C     C_R   0.883806 0.015122 0.663643 0.391935
C20   C     C_R   0.993761 0.033179 0.644377 0.226409
C21   C     C_R   0.975462 0.974565 0.549357 -0.043207
C22   C     C_R   0.854489 0.869638 0.494765 -0.001258
C23   C     C_R   0.349568 0.287268 0.491885 0.803005
C24   C     C_R   0.074404 0.013180 0.509072 0.078338
C25   C     C_R   0.066760 0.933148 0.433467 0.058402
C26   C     C_R   0.951126 0.824875 0.386819 -0.167564
C27   C     C_R   0.843114 0.797988 0.411105 -0.106422
C28   C     C_R   0.170381 0.131714 0.531999 0.384205
C29   C     C_R   0.270309 0.082176 0.430252 -0.210705
C30   C     C_R   0.748714 0.838254 0.526488 -0.174531
C31   C     C_R   0.269558 0.708502 0.643514 0.390880
C32   C     C_R   0.647652 0.337123 0.365192 0.415423
C33   C     C_R   0.722649 0.304266 0.329899 0.251159
C34   C     C_R   0.380955 0.481892 0.313212 0.810736
C35   C     C_R   0.859283 0.376413 0.368302 0.463277
C36   C     C_R   0.927356 0.470922 0.457271 -0.246212
C37   C     C_R   0.847615 0.502731 0.489973 0.067153
C38   C     C_R   0.070102 0.535388 0.514987 -0.125754
C39   C     C_R   0.131004 0.644553 0.584770 -0.101276
C40   C     C_R   0.052536 0.686682 0.596654 0.269142
C41   C     C_R   0.917068 0.609103 0.567847 0.367231
C42   C     C_R   0.155741 0.495714 0.508830 0.564565
C43   C     C_R   0.346689 0.668922 0.625127 0.027686
C44   C     C_R   0.696164 0.539752 0.796120 -0.310173
C45   C     C_R   0.309188 0.464241 0.204244 -0.128654
C46   C     C_R   0.781611 0.638384 0.974699 0.191221
C47   C     C_R   0.709247 0.622575 0.872042 0.337590
C48   C     C_R   0.764969 0.480926 0.824440 0.328768
Cu1   Cu    Cu3+1 0.416420 0.526630 0.522910 1.008648
Cu2   Cu    Cu3+1 0.583580 0.473370 0.477090 1.034547
H1    H     H_    0.919544 0.641428 0.162135 0.161679
H2    H     H_    0.209029 0.292749 0.973080 0.190258
H3    H     H_    0.345104 0.107164 0.399103 0.227093
H4    H     H_    0.939112 0.763947 0.325527 0.163531
H5    H     H_    0.750598 0.720461 0.363196 0.167186
H6    H     H_    0.452390 0.717743 0.667497 0.185626
H7    H     H_    0.336862 0.326867 0.152729 0.184116
H8    H     H_    0.942082 0.436139 0.792037 0.224724
N1    N     N_R   0.290690 0.566960 0.557640 -0.271134
N2    N     N_R   0.709100 0.433710 0.442970 -0.197912
O1    O     O_R   0.545970 0.684450 0.528810 -0.563906
O2    O     O_R   0.687130 0.639470 0.490120 -0.543816
O3    O     O_R   0.519670 0.535100 0.660030 -0.576412
O4    O     O_R   0.660830 0.490120 0.621340 -0.492326
O5    O     O_R   0.312870 0.360530 0.509880 -0.559109
O6    O     O_R   0.454030 0.315550 0.471190 -0.524158
O7    O     O_R   0.339170 0.509880 0.378660 -0.573361
O8    O     O_R   0.480330 0.464900 0.339970 -0.549434
I1    I     I_    0.182312 0.858860 0.296162 -0.317763
O9    O     O_3   0.159138 0.212932 0.585465 -0.648011
H9    H     H_    0.249231 0.274066 0.633510 0.346804
I2    I     I_    0.586368 0.925543 0.592416 -0.201969
I3    I     I_    0.179353 0.117086 0.772810 -0.273810
O10   O     O_3   0.903976 0.085937 0.749695 -0.643364
H10   H     H_    0.823794 0.050414 0.764578 0.357101
I4    I     I_    0.366744 0.710045 0.251917 -0.217399
O11   O     O_3   0.110256 0.802625 0.643174 -0.692535
H11   H     H_    0.041019 0.822615 0.630744 0.338853
O12   O     O_3   0.332275 0.806473 0.722173 -0.635635
H12   H     H_    0.279732 0.789871 0.764647 0.365405
O13   O     O_3   0.103356 0.381824 0.463250 -0.629838
H13   H     H_    0.143692 0.381841 0.413877 0.363443
O14   O     O_3   0.511950 0.278324 0.317868 -0.696806
H14   H     H_    0.484048 0.241640 0.245317 0.313073
O15   O     O_3   0.918842 0.356841 0.308999 -0.620328
H15   H     H_    0.996910 0.431456 0.318281 0.339700
O16   O     O_3   0.665117 0.205185 0.253275 -0.638478
H16   H     H_    0.582547 0.145985 0.257380 0.341302
O17   O     O_3   0.858655 0.636733 0.622741 -0.695218
H17   H     H_    0.924142 0.683982 0.692972 0.309972
O18   O     O_3   0.083521 0.346958 0.814956 -0.650859
H18   H     H_    0.172202 0.356585 0.838117 0.340823
I5    I     I_    0.778622 0.750346 0.086137 -0.252969
O19   O     O_3   0.652719 0.689026 0.848893 -0.663870
H19   H     H_    0.665299 0.714343 0.787912 0.327914
O20   O     O_3   0.727058 0.378101 0.761094 -0.695803
H20   H     H_    0.632334 0.339882 0.715708 0.338842
O21   O     O_3   0.083069 0.568696 0.229153 -0.732107
H21   H     H_    0.052618 0.601191 0.272304 0.322786

loop_
_geom_bond_atom_site_label_1
_geom_bond_atom_site_label_2
_ccdc_geom_bond_type
C41   O17   S    
O16   H16   S    
Cu1   O3    S    
C17   C29   A    
C19   C20   A    
C4    C8    A    
C1    O2    A    
C9    O18   S    
O13   H13   S    
O11   H11   S    
C26   C27   A    
C17   C23   S    
Cu1   O5    S    
C6    O21   S    
C23   O6    A    
C36   C37   A    
C5    C11   A    
C3    C7    A    
C5    C6    A    
C12   O4    A    
C27   H5    S    
Cu2   O4    S    
C18   C19   A    
C32   O14   S    
C8    H8    S    
C11   C15   A    
C35   C36   A    
C8    C9    A    
O9    H9    S    
C18   C30   A    
C48   O20   S    
C9    C10   A    
C44   C47   A    
C43   N1    A    
C15   I4    S    
C21   C22   A    
C37   C41   A    
C42   O13   S    
C26   H4    S    
C14   C45   A    
C18   I2    S    
Cu1   O1    S    
O10   H10   S    
C24   C25   A    
C34   O8    A    
C39   C40   A    
C12   O3    A    
C2    C48   A    
C16   C29   A    
O15   H15   S    
C42   N1    A    
C2    C4    A    
C13   H2    S    
O14   H14   S    
O20   H20   S    
C34   C45   S    
Cu2   O6    S    
C31   C43   A    
C40   C41   A    
O21   H21   S    
C22   C27   A    
Cu2   O2    S    
C15   C45   A    
O18   H18   S    
C16   C25   A    
C14   H7    S    
C46   C47   A    
Cu1   O7    S    
C17   C28   A    
C19   O10   S    
C28   O9    S    
C16   I1    S    
C24   C28   A    
C4    C5    A    
C10   C13   A    
C1    O1    A    
C34   O7    A    
C31   O12   S    
C6    C7    A    
C3    C46   A    
Cu1   N1    S    
Cu2   N2    S    
C32   C33   A    
C23   O5    A    
C36   C38   A    
C2    C3    A    
C25   C26   A    
C7    H1    S    
C12   C44   S    
C22   C30   A    
C35   O15   S    
C38   C39   A    
C46   I5    S    
C29   H3    S    
C1    C30   S    
C33   C35   A    
C47   O19   S    
C31   C39   A    
C20   I3    S    
C33   O16   S    
O19   H19   S    
C37   N2    A    
C10   C11   A    
O12   H12   S    
C38   C42   A    
C43   H6    S    
C20   C21   A    
Cu1   Cu2   S    
C21   C24   A    
C32   N2    A    
C40   O11   S    
O17   H17   S    
C13   C14   A    
Cu2   O8    S    
C44   C48   A    
