data_mof_unit_34389.cif
_audit_creation_date              2012-12-10T18:11:03-0500
_audit_creation_method            fapswitch 2.2
_symmetry_space_group_name_H-M    P1
_symmetry_Int_Tables_number       1
_space_group_crystal_system       triclinic
_cell_length_a                    10.744859
_cell_length_b                    9.468577
_cell_length_c                    10.622446
_cell_angle_alpha                 90.166639
_cell_angle_beta                  88.619808
_cell_angle_gamma                 90.245464
_cell_volume                      1080.3842777

loop_
_atom_site_label
_atom_site_type_symbol
_atom_type_description
_atom_site_fract_x
_atom_site_fract_y
_atom_site_fract_z
_atom_type_partial_charge
C1    C     C_R   0.260195 0.499430 0.506803 0.788158
C2    C     C_3   0.500500 0.499341 0.122566 0.010696
C3    C     C_3   0.068300 0.613906 0.605381 -0.128075
C4    C     C_3   0.067985 0.346867 0.547485 -0.102111
C5    C     C_3   0.923502 0.610866 0.603988 -0.369071
C6    C     C_3   0.924678 0.352444 0.551353 -0.439293
C7    C     C_3   0.077378 0.533276 0.379398 -0.475503
C8    C     C_3   0.122122 0.497553 0.513613 0.082905
C9    C     C_3   0.877871 0.499216 0.508196 0.095389
C10   C     C_3   0.934277 0.532441 0.376240 -0.351476
C11   C     C_3   0.618282 0.084467 0.445867 -0.081193
C12   C     C_3   0.616797 0.916349 0.442806 -0.064348
C13   C     C_3   0.489775 0.083886 0.632526 -0.209996
C14   C     C_3   0.492332 0.916698 0.632628 -0.229929
C15   C     C_3   0.393684 0.082408 0.433150 -0.225092
C16   C     C_3   0.391783 0.916014 0.436060 -0.223226
C17   C     C_R   0.500291 0.499761 0.259475 0.816335
C18   C     C_R   0.739870 0.500009 0.502960 0.810336
C19   C     C_R   0.499665 0.500352 0.740670 0.802120
C20   C     C_3   0.401842 0.573500 0.045181 -0.181951
C21   C     C_3   0.493168 0.366312 0.040439 -0.147783
C22   C     C_3   0.394504 0.440541 0.960911 -0.146214
C23   C     C_3   0.499862 0.501405 0.877671 0.011066
C24   C     C_3   0.507243 0.634686 0.959743 -0.158984
C25   C     C_3   0.598652 0.427454 0.955127 -0.160424
C26   C     C_3   0.605984 0.560505 0.039532 -0.134865
Cu1   Cu    Cu3+1 0.499860 0.642410 0.500060 0.911178
Cu2   Cu    Cu3+1 0.499860 0.357590 0.500060 0.936620
H1    H     H_    0.307295 0.391436 0.928177 0.198743
H2    H     H_    0.902657 0.637314 0.344435 0.227987
H3    H     H_    0.902527 0.452745 0.306683 0.209152
H4    H     H_    0.696316 0.115159 0.507748 0.128107
H5    H     H_    0.697113 0.882110 0.499593 0.136872
H6    H     H_    0.567321 0.123981 0.690454 0.140591
H7    H     H_    0.572898 0.880503 0.687782 0.141864
H8    H     H_    0.304465 0.120809 0.475436 0.157146
H9    H     H_    0.303637 0.881406 0.483812 0.150670
H10   H     H_    0.394876 0.119863 0.334277 0.124308
H11   H     H_    0.387060 0.873273 0.338977 0.131549
H12   H     H_    0.402155 0.120829 0.679654 0.182309
H13   H     H_    0.407351 0.876155 0.682691 0.148754
H14   H     H_    0.321270 0.633104 0.085092 0.138803
H15   H     H_    0.486191 0.255960 0.074633 0.125112
H16   H     H_    0.512926 0.744732 0.924176 0.129233
H17   H     H_    0.679161 0.367757 0.915200 0.135753
H18   H     H_    0.692588 0.609318 0.074829 0.171590
H19   H     H_    0.097681 0.718781 0.567481 0.093625
H20   H     H_    0.095508 0.274011 0.469152 0.109223
H21   H     H_    0.880756 0.587254 0.697940 0.194143
H22   H     H_    0.886183 0.330539 0.647764 0.153848
H23   H     H_    0.889878 0.717576 0.577575 0.154209
H24   H     H_    0.889576 0.267428 0.489008 0.204321
H25   H     H_    0.112945 0.638961 0.349482 0.179191
H26   H     H_    0.114874 0.455340 0.309647 0.175043
N1    N     N_3   0.500250 0.143650 0.502780 -0.151125
N2    N     N_3   0.500250 0.856350 0.502780 -0.148079
O1    O     O_R   0.317570 0.620260 0.500070 -0.620968
O2    O     O_R   0.317570 0.379740 0.500070 -0.568465
O3    O     O_R   0.499850 0.620240 0.316900 -0.588512
O4    O     O_R   0.499850 0.379760 0.316900 -0.596093
O5    O     O_R   0.682190 0.620260 0.500030 -0.578564
O6    O     O_R   0.682190 0.379740 0.500030 -0.574946
O7    O     O_R   0.499910 0.620280 0.683200 -0.610027
O8    O     O_R   0.499910 0.379720 0.683200 -0.577600
C27   C     C_2   0.650153 0.148022 0.317978 0.463520
H27   H     H_    0.586488 0.136824 0.241094 0.019971
O9    O     O_2   0.750029 0.206618 0.297889 -0.585073
C28   C     C_2   0.640934 0.857945 0.311306 0.439520
H28   H     H_    0.573150 0.871218 0.238327 0.032854
O10   O     O_2   0.739350 0.800800 0.283859 -0.596444
C29   C     C_2   0.121529 0.608565 0.736281 0.413435
H29   H     H_    0.220204 0.628307 0.747652 0.067014
O11   O     O_2   0.056927 0.583371 0.829757 -0.548634
C30   C     C_2   0.113971 0.275725 0.665394 0.351385
H30   H     H_    0.071750 0.176440 0.694801 0.056226
O12   O     O_2   0.199017 0.323734 0.726390 -0.576810

loop_
_geom_bond_atom_site_label_1
_geom_bond_atom_site_label_2
_ccdc_geom_bond_type
C7    C10   S    
C14   N2    S    
C22   H1    S    
C1    C8    S    
C3    C29   S    
C4    C8    S    
C6    C9    S    
C7    C8    S    
C12   C28   S    
C30   O12   D    
C24   C26   S    
C15   C16   S    
C13   H12   S    
Cu1   O5    S    
C21   H15   S    
C10   H3    S    
C20   C24   S    
C19   O7    A    
C28   H28   S    
C27   O9    D    
C23   C24   S    
C9    C10   S    
C4    C30   S    
C16   H9    S    
C21   C22   S    
C2    C17   S    
C5    H21   S    
Cu2   N1    S    
Cu2   O4    S    
C30   H30   S    
C2    C20   S    
C4    C6    S    
C3    C8    S    
Cu1   O1    S    
C14   H7    S    
C29   O11   D    
Cu1   N2    S    
C18   O6    A    
C16   H11   S    
C25   C26   S    
C15   N1    S    
C19   C23   S    
C16   N2    S    
C15   H10   S    
C5    C9    S    
C1    O1    A    
C10   H2    S    
C19   O8    A    
C2    C21   S    
C2    C26   S    
C6    H22   S    
C12   N2    S    
Cu1   O7    S    
C17   O3    A    
C14   H13   S    
Cu2   O8    S    
C20   C22   S    
C11   H4    S    
C24   H16   S    
C7    H25   S    
C25   H17   S    
C15   H8    S    
C11   N1    S    
C4    H20   S    
C21   C25   S    
C3    C5    S    
C20   H14   S    
C11   C12   S    
C18   O5    A    
Cu2   O2    S    
C13   H6    S    
Cu1   O3    S    
C1    O2    A    
C3    H19   S    
C23   C25   S    
C26   H18   S    
C17   O4    A    
C9    C18   S    
C29   H29   S    
C28   O10   D    
C27   H27   S    
Cu1   Cu2   S    
C22   C23   S    
C5    H23   S    
C7    H26   S    
C6    H24   S    
C12   H5    S    
C13   C14   S    
C11   C27   S    
C13   N1    S    
Cu2   O6    S    
