data_mof_unit_65436.cif
_audit_creation_date              2012-12-10T16:44:46-0500
_audit_creation_method            fapswitch 2.2
_symmetry_space_group_name_H-M    P1
_symmetry_Int_Tables_number       1
_space_group_crystal_system       triclinic
_cell_length_a                    18.414008
_cell_length_b                    18.510348
_cell_length_c                    18.539953
_cell_angle_alpha                 120.188313
_cell_angle_beta                  119.770171
_cell_angle_gamma                 90.305215
_cell_volume                      4459.1676139

loop_
_atom_site_label
_atom_site_type_symbol
_atom_type_description
_atom_site_fract_x
_atom_site_fract_y
_atom_site_fract_z
_atom_type_partial_charge
C1    C     C_R   0.138588 0.361401 0.999926 0.880653
C2    C     C_R   0.890646 0.348119 0.279267 0.457572
C3    C     C_R   0.943996 0.395977 0.274575 -0.308129
C4    C     C_R   0.862861 0.639805 0.001600 0.887646
C5    C     C_R   0.918193 0.376440 0.181040 -0.249515
C6    C     C_2   0.732481 0.787196 0.949273 0.504323
C7    C     C_2   0.691219 0.802697 0.996220 -0.383094
C8    C     C_2   0.782237 0.724453 0.944276 -0.283084
C9    C     C_2   0.813518 0.701044 0.008950 -0.371832
C10   C     C_2   0.733064 0.283869 0.448481 -0.105372
C11   C     C_2   0.704993 0.194259 0.388171 -0.438402
C12   C     C_R   0.579416 0.126383 0.818788 -0.172057
C13   C     C_2   0.805093 0.333074 0.558067 0.464042
C14   C     C_2   0.803959 0.305509 0.612300 -0.414589
C15   C     C_2   0.339596 0.284190 0.054855 0.501120
C16   C     C_R   0.138702 0.638719 0.277144 0.851746
C17   C     C_2   0.306124 0.194250 0.993887 -0.414000
C18   C     C_2   0.281120 0.338300 0.050274 -0.253846
C19   C     C_2   0.192875 0.304999 0.000243 -0.362870
C20   C     C_2   0.239518 0.733334 0.914820 0.387833
C21   C     C_2   0.300851 0.812502 0.002257 -0.192247
C22   C     C_2   0.170539 0.686706 0.910375 -0.086526
C23   C     C_R   0.664759 0.187728 0.909117 0.009124
C24   C     C_2   0.197914 0.674655 0.984333 -0.346909
C25   C     C_2   0.218505 0.777291 0.555868 -0.167482
C26   C     C_2   0.307504 0.802435 0.612196 -0.292043
C27   C     C_2   0.162544 0.718192 0.443486 -0.172590
C28   C     C_R   0.861793 0.361270 0.723104 0.867819
C29   C     C_2   0.195542 0.696610 0.387917 -0.289408
C30   C     C_R   0.638972 0.139020 0.277379 0.883390
C31   C     C_R   0.361467 0.860943 0.722881 0.838536
C32   C     C_R   0.638299 0.861053 0.999294 0.883023
C33   C     C_R   0.361559 0.138817 0.999420 0.878241
C34   C     C_R   0.715987 0.243313 0.907097 -0.037345
C35   C     C_R   0.359883 0.861265 0.000190 0.902678
C36   C     C_R   0.641164 0.140040 0.001236 0.866839
C37   C     C_R   0.140082 0.636059 0.996869 0.866542
C38   C     C_R   0.858543 0.359981 0.998325 0.880324
C39   C     C_R   0.677372 0.237704 0.814709 0.490864
C40   C     C_R   0.596158 0.171281 0.725698 -0.214160
C41   C     C_R   0.547293 0.116722 0.728063 -0.223727
C42   C     C_1   0.692283 0.335394 0.411480 0.285467
C43   C     C_3   0.938381 0.398669 0.598970 0.092295
C44   C     C_3   0.013202 0.402042 0.690451 -0.361509
C45   C     C_R   0.697532 0.196099 0.001334 -0.117801
C46   C     C_3   0.096705 0.401699 0.691770 -0.941488
C47   C     C_3   0.468601 0.351654 0.090662 0.103203
C48   C     C_3   0.569977 0.381784 0.162948 -0.275902
C49   C     C_3   0.615730 0.398205 0.120247 -0.975106
C50   C     C_3   0.674898 0.359158 0.811888 0.006393
C51   C     C_3   0.708418 0.412766 0.786774 -0.277072
C52   C     C_3   0.660965 0.479555 0.783651 -0.935449
C53   C     C_3   0.179283 0.662294 0.742869 0.094237
C54   C     C_3   0.209771 0.647649 0.674894 -0.296912
C55   C     C_3   0.131244 0.608501 0.565642 -1.005309
C56   C     C_R   0.781542 0.259938 0.092978 -0.094852
C57   C     C_1   0.297022 0.861459 0.089997 0.087490
C58   C     C_1   0.077593 0.662500 0.832617 0.183056
C59   C     C_3   0.826793 0.156179 0.199135 0.051721
C60   C     C_3   0.792203 0.098714 0.219710 -0.274162
C61   C     C_3   0.841353 0.033252 0.223226 -0.984688
C62   C     C_3   0.853014 0.414933 0.391216 0.121032
C63   C     C_3   0.895971 0.516127 0.459587 -0.418927
C64   C     C_3   0.835457 0.562062 0.485516 -0.885167
C65   C     C_3   0.803377 0.875076 0.933100 0.071313
C66   C     C_3   0.788799 0.945754 0.912367 -0.289117
C67   C     C_R   0.833697 0.313644 0.090159 0.015151
C68   C     C_3   0.876505 0.009577 0.958491 -0.980948
C69   C     C_R   0.801702 0.304140 0.997713 -0.122734
C70   C     C_R   0.816564 0.272858 0.188586 0.356048
H1    H     H_    0.005215 0.449346 0.343768 0.181582
H2    H     H_    0.268890 0.692310 0.038458 0.161045
H3    H     H_    0.184482 0.799525 0.592945 0.180694
H4    H     H_    0.343702 0.779267 0.578390 0.156368
H5    H     H_    0.091356 0.692846 0.405721 0.178391
H6    H     H_    0.265610 0.722277 0.422334 0.153175
H7    H     H_    0.569211 0.164598 0.654913 0.155560
H8    H     H_    0.482887 0.068054 0.659670 0.162938
H9    H     H_    0.535320 0.085004 0.816138 0.152048
H10   H     H_    0.964631 0.414096 0.182663 0.175117
H11   H     H_    0.965465 0.453293 0.600242 0.177641
H12   H     H_    0.694935 0.771792 0.033794 0.120557
H13   H     H_    0.918197 0.335260 0.525859 0.134242
H14   H     H_    0.029903 0.463328 0.762662 0.244112
H15   H     H_    0.991094 0.343363 0.686328 0.198219
H16   H     H_    0.081901 0.340867 0.620364 0.269029
H17   H     H_    0.148990 0.402818 0.757915 0.262415
H18   H     H_    0.122454 0.461251 0.699340 0.270192
H19   H     H_    0.449735 0.406972 0.086019 0.120787
H20   H     H_    0.446747 0.293716 0.013214 0.126413
H21   H     H_    0.593795 0.443891 0.238250 0.215979
H22   H     H_    0.588917 0.329907 0.174973 0.267883
H23   H     H_    0.794268 0.697878 0.885501 0.198043
H24   H     H_    0.598902 0.450688 0.108634 0.264862
H25   H     H_    0.688984 0.420256 0.174927 0.265938
H26   H     H_    0.594800 0.336111 0.046319 0.268644
H27   H     H_    0.690561 0.404950 0.889823 0.146664
H28   H     H_    0.601278 0.327328 0.754967 0.141937
H29   H     H_    0.781111 0.448348 0.845315 0.213461
H30   H     H_    0.696460 0.366862 0.710977 0.215499
H31   H     H_    0.588721 0.444368 0.721793 0.261191
H32   H     H_    0.688794 0.519252 0.768359 0.276975
H33   H     H_    0.670151 0.525214 0.857839 0.260527
H34   H     H_    0.805970 0.728610 0.070994 0.157280
H35   H     H_    0.146180 0.713369 0.748641 0.140385
H36   H     H_    0.131319 0.598491 0.707184 0.143065
H37   H     H_    0.254005 0.712103 0.707034 0.232589
H38   H     H_    0.248283 0.601497 0.673677 0.230683
H39   H     H_    0.090352 0.652338 0.564415 0.264945
H40   H     H_    0.089599 0.541570 0.530630 0.277247
H41   H     H_    0.156072 0.601687 0.519626 0.278380
H42   H     H_    0.899262 0.192825 0.261079 0.159528
H43   H     H_    0.817296 0.112436 0.124248 0.129487
H44   H     H_    0.801711 0.142337 0.294393 0.216784
H45   H     H_    0.736532 0.159083 0.420903 0.157663
H46   H     H_    0.720031 0.061424 0.158631 0.210629
H47   H     H_    0.832569 0.988545 0.149272 0.255150
H48   H     H_    0.814093 0.992293 0.237693 0.273996
H49   H     H_    0.913413 0.069418 0.285489 0.264982
H50   H     H_    0.786874 0.393784 0.320402 0.143926
H51   H     H_    0.838415 0.394996 0.430794 0.174800
H52   H     H_    0.959780 0.537242 0.531784 0.229024
H53   H     H_    0.909906 0.537212 0.419904 0.228239
H54   H     H_    0.771225 0.542797 0.414602 0.260572
H55   H     H_    0.868187 0.635227 0.534597 0.262942
H56   H     H_    0.756595 0.242521 0.575151 0.131653
H57   H     H_    0.822579 0.543652 0.527679 0.290196
H58   H     H_    0.830978 0.832085 0.892635 0.151332
H59   H     H_    0.852737 0.909423 0.017028 0.122549
H60   H     H_    0.745334 0.912857 0.828508 0.233215
H61   H     H_    0.754713 0.984350 0.945825 0.241049
H62   H     H_    0.919803 0.045171 0.042808 0.260114
H63   H     H_    0.863104 0.059429 0.941321 0.276445
H64   H     H_    0.911591 0.972703 0.925538 0.273683
H65   H     H_    0.235907 0.158183 0.934355 0.122743
H66   H     H_    0.313204 0.409193 0.092895 0.191561
H67   H     H_    0.157991 0.235490 0.959260 0.157120
N1    N     N_1   0.659601 0.376707 0.382200 -0.213605
N2    N     N_1   0.294022 0.900616 0.160031 -0.189211
N3    N     N_1   0.003417 0.643190 0.770362 -0.183177
O1    O     O_3   0.000000 0.500000 0.000000 -0.505242
O2    O     O_R   0.325040 0.054120 0.939900 -0.652952
O3    O     O_R   0.444330 0.884140 0.060080 -0.636156
O4    O     O_R   0.054210 0.325030 0.939940 -0.648111
O5    O     O_R   0.615830 0.175840 0.060080 -0.613979
O6    O     O_R   0.324160 0.884140 0.939910 -0.647317
O7    O     O_R   0.615850 0.055700 0.939930 -0.670067
O8    O     O_R   0.614980 0.885710 0.939940 -0.586248
O9    O     O_R   0.445830 0.174930 0.060060 -0.607940
O10   O     O_R   0.614300 0.054120 0.229160 -0.645961
O11   O     O_R   0.325070 0.885060 0.770830 -0.650671
O12   O     O_R   0.054160 0.614240 0.229150 -0.645982
O13   O     O_R   0.885070 0.614240 0.060060 -0.647742
O14   O     O_R   0.174980 0.614900 0.229170 -0.639809
O15   O     O_R   0.885740 0.445830 0.770840 -0.594027
O16   O     O_R   0.175880 0.615810 0.060090 -0.646114
O17   O     O_R   0.884210 0.324110 0.939920 -0.597069
O18   O     O_R   0.055710 0.615810 0.939920 -0.629723
O19   O     O_R   0.884190 0.444260 0.060070 -0.660841
O20   O     O_3   0.866262 0.413663 0.606567 -0.613596
O21   O     O_3   0.430234 0.328860 0.129421 -0.602703
O22   O     O_3   0.717839 0.295612 0.808735 -0.642238
O23   O     O_R   0.885120 0.325030 0.770840 -0.633379
O24   O     O_3   0.254445 0.689706 0.839170 -0.647221
O25   O     O_3   0.778840 0.215218 0.196830 -0.628207
O26   O     O_3   0.912470 0.373435 0.373351 -0.659125
O27   O     O_3   0.720453 0.822997 0.895491 -0.605156
O28   O     O_R   0.175010 0.445830 0.060100 -0.641595
O29   O     O_R   0.885710 0.614900 0.939900 -0.640034
O30   O     O_3   0.500040 0.999960 0.000000 -0.505168
O31   O     O_R   0.614930 0.174930 0.229160 -0.618242
O32   O     O_R   0.445880 0.885710 0.770850 -0.639782
O33   O     O_R   0.614330 0.885060 0.060100 -0.652376
Zn1   Zn    Zn3+2 0.956610 0.542450 0.085830 0.954276
Zn2   Zn    Zn3+2 0.129220 0.543380 0.085850 0.963761
Zn3   Zn    Zn3+2 0.957530 0.543380 0.914160 0.979813
Zn4   Zn    Zn3+2 0.956640 0.370790 0.914170 0.986449
Zn5   Zn    Zn3+2 0.543440 0.957510 0.914170 0.970159
Zn6   Zn    Zn3+2 0.542510 0.956570 0.085840 0.971968
Zn7   Zn    Zn3+2 0.370820 0.956570 0.914150 0.956878
Zn8   Zn    Zn3+2 0.543410 0.129170 0.085830 0.982029

loop_
_geom_bond_atom_site_label_1
_geom_bond_atom_site_label_2
_ccdc_geom_bond_type
O15   Zn3   S    
C15   C18   S    
C66   C68   S    
O16   Zn2   S    
C23   C45   A    
C42   N1    T    
C43   H13   S    
C60   H44   S    
C5    C67   A    
C52   H33   S    
C29   H6    S    
C53   C54   S    
C21   C57   S    
C67   C69   A    
C12   C23   A    
C52   H32   S    
O4    Zn4   S    
C62   C63   S    
O14   Zn2   S    
O30   Zn5   S    
O1    Zn4   S    
C68   H63   S    
C38   O19   A    
C46   H17   S    
C66   H60   S    
C30   O10   A    
C61   H49   S    
C31   O32   A    
O33   Zn6   S    
C58   N3    T    
C20   O24   S    
C12   H9    S    
O5    Zn8   S    
C27   C29   D    
C57   N2    T    
C18   C19   D    
C68   H62   S    
C59   H42   S    
C6    O27   S    
C53   H36   S    
O2    Zn7   S    
C11   C30   S    
C8    C9    D    
C48   H21   S    
C17   H65   S    
C28   O15   A    
C18   H66   S    
O3    Zn6   S    
C49   H24   S    
C11   H45   S    
C2    O26   S    
C13   O20   S    
C62   H50   S    
C59   O25   S    
C59   H43   S    
O12   Zn1   S    
C64   H57   S    
C4    O13   A    
C38   C69   S    
C59   C60   S    
C13   C14   D    
C55   H39   S    
O9    Zn8   S    
C47   H19   S    
C37   O16   A    
C17   C33   S    
C27   H5    S    
C44   C46   S    
C50   C51   S    
C46   H18   S    
C51   H29   S    
C52   H31   S    
C50   H28   S    
C1    C19   S    
C4    O29   A    
C61   H47   S    
C34   C39   A    
C65   H58   S    
C45   C56   A    
C43   O20   S    
C70   O25   S    
C41   H8    S    
C6    C8    S    
C1    O28   A    
C3    C5    A    
C25   C26   D    
C64   H54   S    
O13   Zn1   S    
O19   Zn1   S    
C51   C52   S    
O30   Zn7   S    
C60   C61   S    
C39   O22   S    
C35   O6    A    
C37   O18   A    
C3    H1    S    
C43   C44   S    
O23   Zn4   S    
C12   C41   A    
O1    Zn3   S    
C31   O11   A    
C36   O7    A    
C65   H59   S    
C47   C48   S    
C19   H67   S    
C23   C34   A    
C24   C37   S    
O6    Zn7   S    
C36   C45   S    
C16   O12   A    
O17   Zn4   S    
C49   H25   S    
C5    H10   S    
C10   C42   S    
C34   C69   A    
C21   C35   S    
C54   H37   S    
O18   Zn3   S    
C48   C49   S    
C62   O26   S    
C20   C22   S    
C65   C66   S    
C56   C70   A    
O30   Zn8   S    
C16   O14   A    
O1    Zn1   S    
C43   H11   S    
C47   H20   S    
C22   C24   D    
C60   H46   S    
C44   H15   S    
C39   C40   A    
C63   H52   S    
C24   H2    S    
C66   H61   S    
O32   Zn5   S    
C51   H30   S    
C15   C17   D    
C54   C55   S    
C40   C41   A    
C50   H27   S    
O8    Zn5   S    
C7    C32   S    
C55   H41   S    
C61   H48   S    
C15   O21   S    
C8    H23   S    
C38   O17   A    
C44   H14   S    
C10   C13   S    
C22   C58   S    
C63   H53   S    
C53   O24   S    
C6    C7    D    
C32   O8    A    
C33   O2    A    
C25   C27   S    
C56   C67   A    
C32   O33   A    
C65   O27   S    
C14   H56   S    
C54   H38   S    
O30   Zn6   S    
C50   O22   S    
C68   H64   S    
C2    C3    A    
C16   C29   S    
C55   H40   S    
C1    O4    A    
C33   O9    A    
O7    Zn5   S    
O11   Zn7   S    
C9    H34   S    
C26   H4    S    
O29   Zn3   S    
O28   Zn2   S    
C25   H3    S    
C49   H26   S    
O31   Zn8   S    
C30   O31   A    
C10   C11   D    
C63   C64   S    
C47   O21   S    
C53   H35   S    
C36   O5    A    
C26   C31   S    
C7    H12   S    
C20   C21   D    
C64   H55   S    
C48   H22   S    
O1    Zn2   S    
C40   H7    S    
C14   C28   S    
C4    C9    S    
C2    C70   A    
C62   H51   S    
C28   O23   A    
C35   O3    A    
O10   Zn6   S    
C46   H16   S    
