data_mof_unit_66555.cif
_audit_creation_date              2013-03-05T15:40:28-0500
_audit_creation_method            fapswitch 2.2
_symmetry_space_group_name_H-M    P1
_symmetry_Int_Tables_number       1
_space_group_crystal_system       triclinic
_cell_length_a                    7.655195
_cell_length_b                    8.847844
_cell_length_c                    13.428802
_cell_angle_alpha                 100.088517
_cell_angle_beta                  77.886085
_cell_angle_gamma                 103.545331
_cell_volume                      856.9376789

loop_
_atom_site_label
_atom_site_type_symbol
_atom_site_description
_atom_site_fract_x
_atom_site_fract_y
_atom_site_fract_z
_atom_type_partial_charge
O1    O     O_R   0.383920 0.714220 0.492660 -0.623349
O2    O     O_R   0.685730 0.742660 0.511730 -0.619502
C1    C     C_R   0.545001 0.799787 0.503841 0.767860
O3    O     O_R   0.275440 0.478800 0.636790 -0.571798
O4    O     O_R   0.577250 0.507240 0.655860 -0.583532
C2    C     C_R   0.398784 0.491297 0.694649 0.715497
Cu1   Cu    Cu3+1 0.321300 0.483160 0.488710 1.043130
Cu2   Cu    Cu3+1 0.678700 0.516840 0.511290 1.039380
O5    O     O_R   0.314270 0.257340 0.488270 -0.546911
O6    O     O_R   0.616080 0.285780 0.507340 -0.525473
O7    O     O_R   0.422750 0.492760 0.344140 -0.580361
O8    O     O_R   0.724560 0.521200 0.363210 -0.542352
C3    C     C_R   0.453707 0.200536 0.498444 0.887834
C4    C     C_R   0.600166 0.511198 0.306597 0.874662
C5    C     C_R   0.812935 0.733320 0.083009 -0.202596
H1    H     H_    0.789411 0.854376 0.922392 0.151840
H2    H     H_    0.919296 0.834584 0.064321 0.164484
C6    C     C_R   0.662777 0.539793 0.197961 -0.187075
C7    C     C_R   0.152946 0.400087 0.846891 0.316765
C8    C     C_R   0.119350 0.347006 0.943007 -0.251760
C9    C     C_R   0.256129 0.377088 0.001853 -0.190355
C10   C     C_R   0.425314 0.475518 0.971076 0.130355
C11   C     C_R   0.451111 0.540305 0.878295 0.079003
C12   C     C_R   0.558749 0.528931 0.036035 -0.005838
C13   C     C_R   0.689871 0.667990 0.017185 0.096702
C14   C     C_R   0.695762 0.743622 0.933554 -0.097561
C15   C     C_R   0.577260 0.680238 0.865381 -0.120138
C16   C     C_R   0.562738 0.454170 0.121171 0.231465
C17   C     C_R   0.799497 0.672774 0.173806 -0.080545
C18   C     C_R   0.331588 0.479976 0.807578 -0.192601
H3    H     H_    0.220519 0.336531 0.076290 0.187900
H4    H     H_    0.984359 0.285379 0.974005 0.206640
H5    H     H_    0.568546 0.749729 0.809257 0.095779
C19   C     C_2   0.563840 0.968710 0.512483 -0.309095
H6    H     H_    0.688511 0.041315 0.533065 0.238344
C20   C     C_2   0.428730 0.032230 0.498518 -0.372009
H7    H     H_    0.298604 0.959325 0.484603 0.194724
N1    N     N_2   0.947230 0.542220 0.528320 -0.131173
N2    N     N_2   0.052770 0.457780 0.471680 0.032905
C21   C     C_R   0.949719 0.739705 0.231260 0.115083
C22   C     C_R   0.986992 0.901158 0.266094 -0.141834
C23   C     C_R   0.159247 0.974494 0.288790 -0.010282
C24   C     C_R   0.294287 0.887764 0.277171 -0.119100
C25   C     C_R   0.255352 0.726848 0.246304 -0.140063
C26   C     C_R   0.083837 0.652370 0.223851 -0.060161
H8    H     H_    0.887248 0.971404 0.268764 0.178862
H9    H     H_    0.191267 0.099698 0.310625 0.227663
H10   H     H_    0.430231 0.945397 0.290184 0.168175
H11   H     H_    0.361086 0.661693 0.234580 0.147459
H12   H     H_    0.060280 0.529389 0.192939 0.161761
C27   C     C_R   0.997369 0.687131 0.606615 0.331362
C28   C     C_R   0.864266 0.777790 0.656594 -0.111574
C29   C     C_R   0.895641 0.924626 0.715764 -0.191015
C30   C     C_R   0.062101 0.984666 0.744465 -0.042497
C31   C     C_R   0.191609 0.895111 0.716122 -0.247864
C32   C     C_R   0.157581 0.751208 0.653128 -0.048108
H13   H     H_    0.725227 0.740778 0.660464 0.176144
H14   H     H_    0.784217 0.985164 0.745733 0.187351
H15   H     H_    0.086793 0.092935 0.794683 0.170763
H16   H     H_    0.319779 0.936634 0.744402 0.147885
H17   H     H_    0.273373 0.710962 0.650112 0.167076
N3    N     N_R   0.968053 0.319794 0.420418 0.270459
O9    O     O_R   0.961634 0.189258 0.453725 -0.399839
O10   O     O_R   0.950639 0.315485 0.325704 -0.398548
N4    N     N_R   0.499932 0.286448 0.119285 0.111851
O11   O     O_R   0.501494 0.196487 0.031402 -0.349305
O12   O     O_R   0.487216 0.220814 0.200587 -0.413032
N5    N     N_R   0.999850 0.390136 0.798309 0.143192
O13   O     O_R   0.863109 0.271493 0.807368 -0.386037
O14   O     O_R   0.968416 0.519110 0.779328 -0.367073

loop_
_geom_bond_atom_site_label_1
_geom_bond_atom_site_label_2
_geom_bond_distance
_ccdc_geom_bond_type
C25   H11   1.070305 S    
O4    Cu2   1.942538 S    
C31   C32   1.401555 A    
C5    H2    1.086267 S    
N3    O9    1.296765 A    
C29   H14   1.082059 S    
C11   C15   1.392985 A    
C22   C23   1.396906 A    
C4    C6    1.483585 S    
C7    C8    1.403259 A    
Cu2   O8    1.951036 S    
C24   C25   1.390708 A    
C24   H10   1.081711 S    
O2    C1    1.322512 A    
C6    C16   1.417662 A    
Cu1   Cu2   2.756970 S    
N4    O11   1.302268 A    
C6    C17   1.413988 A    
O1    Cu1   1.981343 S    
C29   C30   1.368151 A    
C8    C9    1.390943 A    
Cu1   O7    1.942537 S    
C9    H3    1.080635 S    
C14   C15   1.380560 A    
O4    C2    1.339583 A    
C22   H8    1.083334 S    
Cu2   N1    2.071596 S    
C26   H12   1.081709 S    
O3    Cu1   1.951036 S    
C17   C21   1.470282 S    
C9    C10   1.407035 A    
C21   C22   1.404228 A    
C2    C18   1.508669 S    
O8    C4    1.316591 A    
C5    C17   1.390901 A    
C19   C20   1.345889 D    
C30   H15   1.072627 S    
C10   C11   1.419104 A    
H1    C14   1.083495 S    
C21   C26   1.401055 A    
N2    N3    1.380963 S    
O7    C4    1.327785 A    
C10   C12   1.425177 A    
C5    C13   1.385064 A    
C15   H5    1.073857 S    
C28   H13   1.030678 S    
O5    C3    1.321819 A    
C27   C28   1.428042 A    
C11   C18   1.407930 A    
C7    N5    1.435047 S    
C23   H9    1.078164 S    
N1    N2    1.270904 D    
C12   C13   1.417527 A    
C3    C20   1.456423 S    
O3    C2    1.317720 A    
C19   H6    1.077599 S    
C8    H4    1.083283 S    
C30   C31   1.363661 A    
Cu1   O5    1.985106 S    
N5    O14   1.296669 A    
Cu1   N2    2.071595 S    
C32   H17   1.020739 S    
C20   H7    1.085457 S    
N3    O10   1.299508 A    
N1    C27   1.537295 S    
C1    C19   1.453751 S    
N4    O12   1.299908 A    
C13   C14   1.392480 A    
C31   H16   1.086524 S    
C7    C18   1.422472 A    
C16   N4    1.446275 S    
Cu2   O6    1.981343 S    
O2    Cu2   1.985106 S    
C25   C26   1.392957 A    
C12   C16   1.426402 A    
C23   C24   1.394204 A    
C28   C29   1.396146 A    
N5    O13   1.299633 A    
O1    C1    1.310285 A    
O6    C3    1.311405 A    
C27   C32   1.444818 A    
