data_mof_unit_45616.cif
_audit_creation_date              2012-12-10T19:46:55-0500
_audit_creation_method            fapswitch 2.2
_symmetry_space_group_name_H-M    P1
_symmetry_Int_Tables_number       1
_space_group_crystal_system       triclinic
_cell_length_a                    10.875597
_cell_length_b                    10.879459
_cell_length_c                    13.119698
_cell_angle_alpha                 90.198429
_cell_angle_beta                  90.078849
_cell_angle_gamma                 90.420435
_cell_volume                      1552.27806519

loop_
_atom_site_label
_atom_site_type_symbol
_atom_type_description
_atom_site_fract_x
_atom_site_fract_y
_atom_site_fract_z
_atom_type_partial_charge
C1    C     C_R   0.508772 0.259934 0.499724 0.830624
C2    C     C_R   0.491102 0.882235 0.772701 -0.136382
C3    C     C_R   0.600713 0.119635 0.319417 0.123560
C4    C     C_R   0.418553 0.881841 0.684092 0.130821
C5    C     C_R   0.706440 0.194464 0.326204 -0.117015
C6    C     C_R   0.301077 0.827472 0.686238 -0.106361
C7    C     C_R   0.754269 0.251048 0.239179 -0.108565
C8    C     C_R   0.257179 0.773506 0.775792 -0.135728
C9    C     C_R   0.697894 0.232315 0.144547 -0.115651
C10   C     C_R   0.330103 0.773621 0.863610 -0.120624
C11   C     C_R   0.538925 0.933515 0.413958 -0.271343
C12   C     C_R   0.495484 0.740509 0.500423 0.819654
C13   C     C_R   0.473778 0.066904 0.587591 -0.221792
C14   C     C_R   0.497659 0.873146 0.501615 -0.094942
C15   C     C_R   0.512563 0.127421 0.499336 -0.084552
C16   C     C_R   0.259591 0.499948 0.499908 0.914573
C17   C     C_R   0.740224 0.496204 0.500269 0.886835
C18   C     C_R   0.465125 0.940099 0.589735 -0.015445
C19   C     C_R   0.548776 0.060633 0.412001 -0.006909
C20   C     C_1   0.499800 0.500022 0.173572 0.158869
C21   C     C_1   0.499719 0.499954 0.826425 0.146264
C22   C     C_1   0.499582 0.499981 0.050687 -0.097360
C23   C     C_R   0.872610 0.498405 0.501693 -0.273415
C24   C     C_1   0.499531 0.499937 0.949318 -0.121055
C25   C     C_R   0.252911 0.814477 0.294627 -0.117362
C26   C     C_R   0.783860 0.142973 0.679553 -0.139743
C27   C     C_R   0.190832 0.748380 0.370035 -0.232026
C28   C     C_R   0.850398 0.222121 0.616534 -0.225532
C29   C     C_R   0.127082 0.639637 0.345234 0.105194
C30   C     C_R   0.871217 0.344729 0.645651 0.097815
C31   C     C_R   0.127041 0.596576 0.243709 0.595595
C32   C     C_R   0.828091 0.388110 0.740608 0.555241
C33   C     C_R   0.188347 0.664875 0.168189 -0.236695
C34   C     C_R   0.127060 0.501046 0.500138 -0.288349
C35   C     C_R   0.759257 0.306787 0.802936 -0.241986
C36   C     C_R   0.251851 0.772725 0.193879 -0.198385
C37   C     C_R   0.737945 0.185409 0.772302 -0.181434
C38   C     C_R   0.934823 0.571082 0.429626 0.483126
C39   C     C_R   0.065017 0.431667 0.574655 0.443544
C40   C     C_3   0.143242 0.395631 0.198412 -0.373324
C41   C     C_3   0.861826 0.532358 0.870128 -0.364397
C42   C     C_3   0.847041 0.756850 0.401965 -0.294684
C43   C     C_3   0.143479 0.407610 0.735715 -0.227501
C44   C     C_R   0.936829 0.428369 0.574448 -0.100262
C45   C     C_R   0.062669 0.569276 0.426308 -0.131608
C46   C     C_R   0.593723 0.156801 0.136808 -0.146065
C47   C     C_R   0.446968 0.827957 0.862079 -0.135496
C48   C     C_R   0.545360 0.100299 0.223758 -0.151455
Cu1   Cu    Cu3+1 0.499990 0.499990 0.592680 1.001434
Cu2   Cu    Cu3+1 0.500010 0.500010 0.407320 0.994383
H1    H     H_    0.299511 0.824464 0.135502 0.141812
H2    H     H_    0.766966 0.048864 0.656043 0.145664
H3    H     H_    0.191917 0.781999 0.447674 0.116461
H4    H     H_    0.885092 0.188241 0.544500 0.139798
H5    H     H_    0.186367 0.634403 0.089573 0.133190
H6    H     H_    0.720176 0.336630 0.874485 0.130259
H7    H     H_    0.734862 0.276340 0.077240 0.126171
H8    H     H_    0.296125 0.731602 0.932798 0.119644
H9    H     H_    0.550244 0.142316 0.063429 0.126422
H10   H     H_    0.503376 0.827859 0.930118 0.129108
H11   H     H_    0.464158 0.042634 0.216747 0.115576
H12   H     H_    0.685156 0.124303 0.820577 0.138572
H13   H     H_    0.581928 0.923626 0.772179 0.114640
H14   H     H_    0.202938 0.377586 0.265633 0.184579
H15   H     H_    0.200338 0.414440 0.129851 0.159697
H16   H     H_    0.089326 0.310603 0.183063 0.189169
H17   H     H_    0.920067 0.461531 0.907206 0.150451
H18   H     H_    0.770606 0.538230 0.907635 0.186973
H19   H     H_    0.908636 0.622334 0.881328 0.195104
H20   H     H_    0.933820 0.806229 0.421811 0.149495
H21   H     H_    0.786903 0.749754 0.470262 0.145986
H22   H     H_    0.798022 0.813043 0.344661 0.188653
H23   H     H_    0.750895 0.209902 0.398964 0.092874
H24   H     H_    0.073515 0.368569 0.787900 0.157676
H25   H     H_    0.138305 0.509966 0.736367 0.145673
H26   H     H_    0.234912 0.382640 0.766615 0.175306
H27   H     H_    0.243548 0.827473 0.618957 0.096359
H28   H     H_    0.834920 0.309563 0.245186 0.167051
H29   H     H_    0.166421 0.732125 0.777241 0.121636
H30   H     H_    0.566822 0.881202 0.347470 0.161677
H31   H     H_    0.446361 0.118733 0.654520 0.167242
H32   H     H_    0.301258 0.898554 0.314231 0.144448
N1    N     N_1   0.500030 0.500030 0.268070 -0.131172
N2    N     N_1   0.499970 0.499970 0.731930 -0.127326
O1    O     O_R   0.499980 0.319630 0.578260 -0.580304
O2    O     O_3   0.847798 0.511732 0.764449 -0.589291
O3    O     O_3   0.870440 0.640182 0.359141 -0.544898
O4    O     O_3   0.130636 0.353985 0.637964 -0.578861
O5    O     O_R   0.500020 0.680370 0.421740 -0.575393
O6    O     O_R   0.500000 0.319650 0.421740 -0.581074
O7    O     O_R   0.500000 0.680350 0.578260 -0.572866
O8    O     O_R   0.319630 0.500000 0.578260 -0.559319
O9    O     O_R   0.680370 0.500000 0.421740 -0.541374
O10   O     O_R   0.319650 0.500020 0.421740 -0.599857
O11   O     O_R   0.680350 0.499980 0.578260 -0.568309
O12   O     O_3   0.060594 0.492129 0.217873 -0.581414

loop_
_geom_bond_atom_site_label_1
_geom_bond_atom_site_label_2
_ccdc_geom_bond_type
C33   H5    S    
C1    O6    A    
C46   H9    S    
C27   C29   A    
C14   C18   A    
C12   O7    A    
C37   H12   S    
C41   H17   S    
C15   C19   A    
C41   O2    S    
C11   C19   A    
C17   C23   S    
C13   C18   A    
C43   O4    S    
Cu1   N2    S    
C35   C37   A    
Cu1   O7    S    
C11   C14   A    
C31   O12   S    
C13   H31   S    
C3    C48   A    
C42   H20   S    
C33   C36   A    
C38   C45   A    
C16   C34   S    
C47   H10   S    
Cu2   O6    S    
C8    H29   S    
C31   C33   A    
C3    C19   S    
C17   O11   A    
C4    C18   S    
C43   H24   S    
C9    C46   A    
C40   H16   S    
C43   H25   S    
C30   C44   S    
C39   O4    S    
C40   O12   S    
Cu2   N1    S    
C41   H18   S    
C1    O1    A    
C46   C48   A    
C34   C39   A    
C32   C35   A    
Cu1   O1    S    
C12   O5    A    
C4    C6    A    
C5    C7    A    
C28   H4    S    
Cu2   O10   S    
C6    H27   S    
C6    C8    A    
C23   C44   A    
C29   C45   S    
C2    C4    A    
C26   H2    S    
Cu2   O5    S    
C21   N2    T    
C32   O2    S    
C42   H22   S    
C26   C37   A    
C34   C45   A    
Cu1   O11   S    
C36   H1    S    
C7    H28   S    
C1    C15   S    
C12   C14   S    
C16   O8    A    
C40   H15   S    
C13   C15   A    
C25   H32   S    
C22   C24   T    
C21   C24   S    
C17   O9    A    
Cu1   O8    S    
C2    H13   S    
C41   H19   S    
C43   H26   S    
C7    C9    A    
C10   H8    S    
C35   H6    S    
C16   O10   A    
C20   C22   S    
C3    C5    A    
C27   H3    S    
Cu2   O9    S    
C39   C44   A    
C2    C47   A    
C25   C27   A    
C23   C38   A    
C26   C28   A    
C40   H14   S    
C38   O3    S    
C28   C30   A    
C29   C31   A    
C30   C32   A    
C48   H11   S    
C42   H21   S    
C9    H7    S    
C5    H23   S    
C11   H30   S    
C25   C36   A    
C8    C10   A    
Cu1   Cu2   S    
C20   N1    T    
C10   C47   A    
C42   O3    S    
