data_mof_unit_20848.cif
_audit_creation_date              2012-12-11T15:08:46-0500
_audit_creation_method            fapswitch 2.2
_symmetry_space_group_name_H-M    P1
_symmetry_Int_Tables_number       1
_space_group_crystal_system       triclinic
_cell_length_a                    19.563606
_cell_length_b                    11.247952
_cell_length_c                    18.715196
_cell_angle_alpha                 90.015237
_cell_angle_beta                  90.09857
_cell_angle_gamma                 89.993307
_cell_volume                      4118.28199261

loop_
_atom_site_label
_atom_site_type_symbol
_atom_type_description
_atom_site_fract_x
_atom_site_fract_y
_atom_site_fract_z
_atom_type_partial_charge
C1    C     C_R   0.274201 0.040943 0.855272 0.531801
C2    C     C_3   0.693274 0.527154 0.957194 -0.240415
C3    C     C_R   0.227237 0.545473 0.353346 0.535821
C4    C     C_R   0.468245 0.822963 0.644997 0.544836
C5    C     C_R   0.529678 0.822937 0.353669 0.542073
C6    C     C_R   0.968245 0.322963 0.644997 0.544836
C7    C     C_R   0.029678 0.322937 0.353669 0.542073
C8    C     C_R   0.261359 0.641444 0.643147 0.540582
C9    C     C_R   0.739602 0.638628 0.355702 0.537816
C10   C     C_R   0.761359 0.141444 0.643147 0.540582
C11   C     C_R   0.239602 0.138628 0.355702 0.537816
C12   C     C_3   0.480617 0.908273 0.036161 -0.129980
C13   C     C_3   0.806725 0.027119 0.042784 -0.240363
C14   C     C_3   0.519402 0.908261 0.963869 -0.129882
C15   C     C_3   0.980617 0.408272 0.036162 -0.129981
C16   C     C_3   0.019403 0.408261 0.963870 -0.129882
C17   C     C_3   0.431588 0.809359 0.008816 -0.157663
C18   C     C_3   0.568421 0.809312 0.991184 -0.157492
C19   C     C_3   0.931588 0.309359 0.008816 -0.157663
C20   C     C_3   0.068421 0.309312 0.991185 -0.157490
C21   C     C_3   0.469969 0.812939 0.936704 0.050932
C22   C     C_3   0.530041 0.812912 0.063296 0.051108
C23   C     C_3   0.969969 0.312939 0.936704 0.050933
C24   C     C_3   0.193275 0.027152 0.957195 -0.240415
C25   C     C_3   0.030041 0.312912 0.063297 0.051108
C26   C     C_3   0.529631 0.594767 0.926533 -0.379169
C27   C     C_3   0.470369 0.594800 0.073414 -0.379329
C28   C     C_3   0.029631 0.094767 0.926533 -0.379170
C29   C     C_3   0.970369 0.094799 0.073414 -0.379329
C30   C     C_3   0.317234 0.550209 0.962763 -0.238343
C31   C     C_3   0.682766 0.550213 0.037223 -0.238313
C32   C     C_3   0.817233 0.050207 0.962763 -0.238342
C33   C     C_3   0.182767 0.050207 0.037224 -0.238314
C34   C     C_3   0.176705 0.518320 0.024152 -0.207748
C35   C     C_3   0.823298 0.518283 0.975821 -0.207781
C36   C     C_3   0.676705 0.018317 0.024151 -0.207748
C37   C     C_R   0.725798 0.040927 0.144723 0.530892
C38   C     C_3   0.323298 0.018284 0.975821 -0.207781
C39   C     C_3   0.235183 0.705144 0.054983 -0.254634
C40   C     C_3   0.764827 0.705147 0.945066 -0.254694
C41   C     C_3   0.735183 0.205143 0.054983 -0.254634
C42   C     C_3   0.264826 0.205146 0.945066 -0.254693
C43   C     C_3   0.236773 0.571333 0.068628 0.063291
C44   C     C_3   0.763231 0.571342 0.931371 0.063004
C45   C     C_3   0.736773 0.071332 0.068628 0.063291
C46   C     C_3   0.263231 0.071341 0.931371 0.063004
C47   C     C_3   0.252352 0.607395 0.930990 0.056990
C48   C     C_R   0.774201 0.540944 0.855272 0.531800
C49   C     C_3   0.747648 0.607366 0.069014 0.057293
C50   C     C_3   0.752352 0.107395 0.930990 0.056990
C51   C     C_3   0.247648 0.107365 0.069014 0.057293
C52   C     C_3   0.191986 0.522332 0.943088 -0.249109
C53   C     C_3   0.808014 0.522280 0.056885 -0.249194
C54   C     C_3   0.691985 0.022332 0.943087 -0.249109
C55   C     C_3   0.308016 0.022282 0.056885 -0.249192
C56   C     C_3   0.235453 0.723382 0.973320 -0.220574
C57   C     C_3   0.764547 0.723358 0.026733 -0.220471
C58   C     C_3   0.735454 0.223381 0.973320 -0.220574
C59   C     C_R   0.225798 0.540928 0.144724 0.530892
C60   C     C_3   0.264544 0.223357 0.026733 -0.220468
C61   C     C_3   0.493985 0.699648 0.457892 -0.234498
C62   C     C_3   0.492058 0.699404 0.537941 -0.227368
C63   C     C_3   0.993985 0.199648 0.457892 -0.234498
C64   C     C_3   0.992058 0.199404 0.537941 -0.227368
C65   C     C_R   0.442716 0.815978 0.862542 0.538698
C66   C     C_R   0.557288 0.815951 0.137459 0.538500
C67   C     C_R   0.942716 0.315978 0.862542 0.538699
C68   C     C_R   0.057287 0.315951 0.137459 0.538500
C69   C     C_3   0.567525 0.883139 0.472938 -0.223971
C70   C     C_3   0.518101 0.714564 0.964011 0.039348
C71   C     C_3   0.437391 0.910218 0.526635 -0.214112
C72   C     C_3   0.067525 0.383139 0.472938 -0.223971
C73   C     C_3   0.937391 0.410218 0.526635 -0.214112
C74   C     C_3   0.445384 0.901877 0.444612 -0.256759
C75   C     C_3   0.558241 0.881776 0.555049 -0.263200
C76   C     C_3   0.945384 0.401877 0.444612 -0.256759
C77   C     C_3   0.058242 0.381776 0.555049 -0.263199
C78   C     C_3   0.508225 0.827401 0.429928 0.059468
C79   C     C_3   0.488279 0.828338 0.568465 0.064100
C80   C     C_3   0.008224 0.327401 0.429928 0.059468
C81   C     C_3   0.481900 0.714577 0.035960 0.039316
C82   C     C_3   0.988279 0.328338 0.568465 0.064100
C83   C     C_3   0.184481 0.662553 0.456937 -0.236074
C84   C     C_3   0.822362 0.642182 0.538925 -0.228666
C85   C     C_3   0.684481 0.162553 0.456937 -0.236074
C86   C     C_3   0.322363 0.142182 0.538925 -0.228666
C87   C     C_3   0.186225 0.665879 0.536965 -0.226123
C88   C     C_3   0.820258 0.645578 0.458933 -0.233717
C89   C     C_3   0.686225 0.165879 0.536965 -0.226123
C90   C     C_3   0.320258 0.145578 0.458933 -0.233717
C91   C     C_3   0.239364 0.460576 0.472652 -0.224180
C92   C     C_3   0.018102 0.214564 0.964011 0.039348
C93   C     C_3   0.745044 0.454203 0.527200 -0.212624
C94   C     C_3   0.739364 0.960576 0.472652 -0.224180
C95   C     C_3   0.245044 0.954203 0.527200 -0.212624
C96   C     C_3   0.309312 0.634943 0.442366 -0.256223
C97   C     C_3   0.698530 0.649213 0.557607 -0.263096
C98   C     C_3   0.809312 0.134943 0.442366 -0.256223
C99   C     C_3   0.198530 0.149213 0.557607 -0.263096
C100  C     C_3   0.240651 0.577102 0.428999 0.061745
C101  C     C_3   0.760636 0.571190 0.569500 0.066703
C102  C     C_3   0.740651 0.077102 0.428999 0.061745
C103  C     C_3   0.981900 0.214577 0.035960 0.039316
C104  C     C_3   0.260636 0.071190 0.569500 0.066703
C105  C     C_3   0.253145 0.608369 0.566942 0.066782
C106  C     C_3   0.749000 0.603796 0.431644 0.061090
C107  C     C_3   0.753145 0.108369 0.566942 0.066782
C108  C     C_3   0.249000 0.103796 0.431644 0.061090
C109  C     C_3   0.245070 0.476174 0.554441 -0.264191
C110  C     C_3   0.743624 0.471824 0.445436 -0.257393
C111  C     C_3   0.745070 0.976174 0.554441 -0.264191
C112  C     C_3   0.243624 0.971824 0.445436 -0.257393
C113  C     C_R   0.261443 0.640206 0.854237 0.533603
C114  C     C_3   0.306725 0.527120 0.042784 -0.240365
C115  C     C_R   0.738562 0.640179 0.145770 0.532753
C116  C     C_R   0.761442 0.140206 0.854237 0.533603
C117  C     C_R   0.238562 0.140178 0.145771 0.532752
C118  C     C_3   0.318726 0.643908 0.524123 -0.214887
C119  C     C_3   0.692096 0.664308 0.475838 -0.226532
C120  C     C_3   0.818726 0.143908 0.524123 -0.214887
C121  C     C_3   0.192096 0.164308 0.475838 -0.226532
C122  C     C_R   0.273784 0.042317 0.645369 0.538967
C123  C     C_R   0.727237 0.045473 0.353346 0.535821
C124  C     C_R   0.773784 0.542317 0.645369 0.538967
Cr1   Cr    Cr6+3 0.229620 0.836040 0.749110 0.988511
Cr2   Cr    Cr6+3 0.613980 0.676590 0.250790 0.985539
Cr3   Cr    Cr6+3 0.886020 0.176590 0.749210 0.986429
Cr4   Cr    Cr6+3 0.113980 0.176590 0.250790 0.985539
Cr5   Cr    Cr6+3 0.770380 0.836040 0.250890 0.987689
Cr6   Cr    Cr6+3 0.729620 0.336040 0.749110 0.988511
Cr7   Cr    Cr6+3 0.270380 0.336040 0.250890 0.987690
Cr8   Cr    Cr6+3 0.387630 0.990680 0.750730 0.995803
Cr9   Cr    Cr6+3 0.612370 0.990680 0.249270 0.994881
Cr10  Cr    Cr6+3 0.887630 0.490680 0.750730 0.995803
Cr11  Cr    Cr6+3 0.112370 0.490680 0.249270 0.994881
Cr12  Cr    Cr6+3 0.386020 0.676590 0.749210 0.986430
H1    H     H_    0.377257 0.796620 0.021633 0.091570
H2    H     H_    0.719949 0.746547 0.919242 0.100901
H3    H     H_    0.192342 0.930231 0.542241 0.122037
H4    H     H_    0.289596 0.426419 0.575941 0.110803
H5    H     H_    0.694461 0.440054 0.422642 0.115410
H6    H     H_    0.789596 0.926419 0.575941 0.110803
H7    H     H_    0.194461 0.940054 0.422642 0.115410
H8    H     H_    0.316019 0.433920 0.055582 0.130262
H9    H     H_    0.683971 0.433960 0.944349 0.130297
H10   H     H_    0.816022 0.933920 0.055584 0.130260
H11   H     H_    0.183971 0.933960 0.944348 0.130297
H12   H     H_    0.343793 0.577994 0.073990 0.116799
H13   H     H_    0.780068 0.246509 0.080818 0.100629
H14   H     H_    0.656209 0.578077 0.926017 0.116918
H15   H     H_    0.843793 0.077998 0.073989 0.116798
H16   H     H_    0.156209 0.078077 0.926019 0.116918
H17   H     H_    0.361565 0.610277 0.955045 0.135258
H18   H     H_    0.638432 0.610288 0.044970 0.135331
H19   H     H_    0.861565 0.110274 0.955044 0.135258
H20   H     H_    0.138431 0.110276 0.044972 0.135332
H21   H     H_    0.328956 0.465233 0.934991 0.114135
H22   H     H_    0.671049 0.465229 0.064956 0.114008
H23   H     H_    0.828955 0.965230 0.934991 0.114135
H24   H     H_    0.219949 0.246546 0.919241 0.100900
H25   H     H_    0.171054 0.965220 0.064956 0.114007
H26   H     H_    0.663420 0.931023 0.044416 0.095339
H27   H     H_    0.336585 0.930990 0.955510 0.095211
H28   H     H_    0.163418 0.431026 0.044417 0.095340
H29   H     H_    0.836585 0.430989 0.955510 0.095211
H30   H     H_    0.704575 0.933606 0.922307 0.109635
H31   H     H_    0.295421 0.933557 0.077625 0.109400
H32   H     H_    0.204577 0.433605 0.922309 0.109636
H33   H     H_    0.795416 0.433556 0.077623 0.109402
H34   H     H_    0.479696 0.553288 0.913427 0.148322
H35   H     H_    0.271175 0.792811 0.958558 0.111223
H36   H     H_    0.558500 0.607216 0.876140 0.157502
H37   H     H_    0.555212 0.530840 0.962556 0.096782
H38   H     H_    0.520304 0.553305 0.086512 0.148318
H39   H     H_    0.441502 0.607284 0.123810 0.157110
H40   H     H_    0.444790 0.530872 0.037378 0.096848
H41   H     H_    0.979696 0.053288 0.913426 0.148322
H42   H     H_    0.058500 0.107216 0.876140 0.157502
H43   H     H_    0.055212 0.030840 0.962556 0.096781
H44   H     H_    0.020304 0.053304 0.086512 0.148317
H45   H     H_    0.941503 0.107283 0.123811 0.157110
H46   H     H_    0.728823 0.792796 0.041529 0.111321
H47   H     H_    0.944790 0.030871 0.037378 0.096848
H48   H     H_    0.771176 0.292809 0.958559 0.111222
H49   H     H_    0.228817 0.292791 0.041528 0.111317
H50   H     H_    0.182968 0.750736 0.957866 0.131356
H51   H     H_    0.817033 0.750677 0.042204 0.131427
H52   H     H_    0.682968 0.250736 0.957865 0.131357
H53   H     H_    0.622752 0.796536 0.978369 0.091546
H54   H     H_    0.317030 0.250680 0.042205 0.131428
H55   H     H_    0.629425 0.071206 0.033792 0.135457
H56   H     H_    0.370579 0.071157 0.966206 0.135435
H57   H     H_    0.129426 0.571210 0.033791 0.135456
H58   H     H_    0.870578 0.571157 0.966207 0.135435
H59   H     H_    0.146023 0.553773 0.913680 0.124228
H60   H     H_    0.853975 0.553689 0.086310 0.124011
H61   H     H_    0.646022 0.053774 0.913681 0.124228
H62   H     H_    0.353977 0.053695 0.086309 0.124011
H63   H     H_    0.532430 0.632623 0.441845 0.136465
H64   H     H_    0.877257 0.296619 0.021633 0.091570
H65   H     H_    0.451043 0.641550 0.555506 0.137329
H66   H     H_    0.032430 0.132623 0.441845 0.136465
H67   H     H_    0.951043 0.141550 0.555506 0.137329
H68   H     H_    0.445299 0.667656 0.435596 0.116651
H69   H     H_    0.538590 0.654345 0.558783 0.113151
H70   H     H_    0.945299 0.167656 0.435596 0.116651
H71   H     H_    0.038590 0.154345 0.558783 0.113151
H72   H     H_    0.608160 0.825137 0.459686 0.111989
H73   H     H_    0.384551 0.898631 0.543466 0.111898
H74   H     H_    0.108160 0.325137 0.459686 0.111989
H75   H     H_    0.122752 0.296535 0.978371 0.091544
H76   H     H_    0.884551 0.398631 0.543466 0.111898
H77   H     H_    0.598586 0.828375 0.581536 0.106338
H78   H     H_    0.399513 0.861863 0.419576 0.103246
H79   H     H_    0.098586 0.328375 0.581536 0.106338
H80   H     H_    0.899513 0.361863 0.419576 0.103246
H81   H     H_    0.466378 0.989859 0.065851 0.117635
H82   H     H_    0.533649 0.989837 0.934205 0.117725
H83   H     H_    0.966377 0.489859 0.065851 0.117635
H84   H     H_    0.033650 0.489837 0.934206 0.117725
H85   H     H_    0.453502 0.991432 0.421117 0.115321
H86   H     H_    0.188827 0.747139 0.078377 0.128105
H87   H     H_    0.561500 0.973129 0.577300 0.110895
H88   H     H_    0.953502 0.491432 0.421117 0.115321
H89   H     H_    0.061500 0.473129 0.577300 0.110895
H90   H     H_    0.452202 0.001872 0.540985 0.119973
H91   H     H_    0.577167 0.974805 0.454616 0.128995
H92   H     H_    0.952202 0.501872 0.540985 0.119973
H93   H     H_    0.077167 0.474805 0.454616 0.128995
H94   H     H_    0.131788 0.638211 0.441188 0.135282
H95   H     H_    0.871928 0.609622 0.555970 0.136309
H96   H     H_    0.631788 0.138211 0.441188 0.135282
H97   H     H_    0.811190 0.747120 0.921697 0.128219
H98   H     H_    0.371928 0.109622 0.555970 0.136309
H99   H     H_    0.192801 0.751509 0.434351 0.116878
H100  H     H_    0.821449 0.734445 0.560083 0.113176
H101  H     H_    0.692801 0.251509 0.434351 0.116878
H102  H     H_    0.321449 0.234444 0.560083 0.113176
H103  H     H_    0.177093 0.756187 0.554550 0.136572
H104  H     H_    0.834660 0.736795 0.442885 0.135579
H105  H     H_    0.677093 0.256187 0.554550 0.136572
H106  H     H_    0.334660 0.236795 0.442885 0.135579
H107  H     H_    0.141119 0.617421 0.558170 0.113573
H108  H     H_    0.688826 0.247138 0.078377 0.128106
H109  H     H_    0.860034 0.587976 0.436091 0.117819
H110  H     H_    0.641119 0.117421 0.558170 0.113573
H111  H     H_    0.360034 0.087976 0.436091 0.117819
H112  H     H_    0.689596 0.929276 0.461204 0.112362
H113  H     H_    0.277715 0.880459 0.543003 0.112836
H114  H     H_    0.189596 0.429276 0.461204 0.112362
H115  H     H_    0.777715 0.380458 0.543003 0.112836
H116  H     H_    0.698984 0.942047 0.582095 0.105313
H117  H     H_    0.285991 0.923291 0.419263 0.102529
H118  H     H_    0.198984 0.442047 0.582095 0.105313
H119  H     H_    0.311189 0.247119 0.921698 0.128218
H120  H     H_    0.785991 0.423291 0.419263 0.102529
H121  H     H_    0.349611 0.577921 0.418455 0.116143
H122  H     H_    0.651764 0.607521 0.580028 0.111757
H123  H     H_    0.849611 0.077921 0.418455 0.116143
H124  H     H_    0.151764 0.107521 0.580028 0.111757
H125  H     H_    0.311805 0.723641 0.416884 0.102075
H126  H     H_    0.705054 0.736024 0.584859 0.104801
H127  H     H_    0.811805 0.223641 0.416884 0.102075
H128  H     H_    0.205054 0.236024 0.584859 0.104801
H129  H     H_    0.339694 0.729404 0.540199 0.111241
H130  H     H_    0.280069 0.746510 0.080818 0.100631
H131  H     H_    0.700829 0.754716 0.464292 0.112630
H132  H     H_    0.839694 0.229404 0.540199 0.111241
H133  H     H_    0.200829 0.254716 0.464292 0.112630
H134  H     H_    0.357302 0.576106 0.537942 0.119413
H135  H     H_    0.641283 0.634005 0.457796 0.128436
H136  H     H_    0.857302 0.076106 0.537942 0.119413
H137  H     H_    0.141283 0.134005 0.457796 0.128436
H138  H     H_    0.279437 0.399305 0.453765 0.132148
H139  H     H_    0.692342 0.430232 0.542241 0.122037
H140  H     H_    0.779437 0.899305 0.453765 0.132148
O1    O     O_R   0.214130 0.708570 0.829890 -0.528330
O2    O     O_R   0.542830 0.717300 0.331620 -0.531665
O3    O     O_R   0.957170 0.217300 0.668380 -0.531667
O4    O     O_R   0.042830 0.217300 0.331620 -0.531665
O5    O     O_R   0.320870 0.624890 0.673130 -0.511542
O6    O     O_R   0.679130 0.624890 0.326870 -0.511244
O7    O     O_R   0.820870 0.124890 0.673130 -0.511543
O8    O     O_R   0.179130 0.124890 0.326870 -0.511244
O9    O     O_3   0.334430 0.834430 0.749680 -0.285063
O10   O     O_3   0.665570 0.834430 0.250320 -0.281766
O11   O     O_3   0.834430 0.334430 0.749680 -0.285062
O12   O     O_R   0.785870 0.708570 0.170110 -0.528870
O13   O     O_3   0.165570 0.334430 0.250320 -0.281765
O14   O     O_R   0.236050 0.959150 0.825270 -0.515369
O15   O     O_R   0.763950 0.959150 0.174730 -0.515872
O16   O     O_R   0.736050 0.459150 0.825270 -0.515368
O17   O     O_R   0.263950 0.459150 0.174730 -0.515872
O18   O     O_R   0.332100 0.076650 0.832310 -0.533643
O19   O     O_R   0.667900 0.076650 0.167690 -0.534194
O20   O     O_R   0.832100 0.576650 0.832310 -0.533643
O21   O     O_R   0.167900 0.576650 0.167690 -0.534194
O22   O     O_R   0.446500 0.918620 0.826240 -0.503284
O23   O     O_R   0.714130 0.208570 0.829890 -0.528330
O24   O     O_R   0.553500 0.918620 0.173760 -0.504051
O25   O     O_R   0.946500 0.418620 0.826240 -0.503284
O26   O     O_R   0.053500 0.418620 0.173760 -0.504051
O27   O     O_R   0.457310 0.715830 0.831280 -0.529651
O28   O     O_R   0.542690 0.715830 0.168720 -0.530367
O29   O     O_R   0.957310 0.215830 0.831280 -0.529651
O30   O     O_R   0.042690 0.215830 0.168720 -0.530368
O31   O     O_R   0.321000 0.623520 0.824130 -0.522258
O32   O     O_R   0.679000 0.623520 0.175870 -0.522742
O33   O     O_R   0.821000 0.123520 0.824130 -0.522258
O34   O     O_R   0.285870 0.208570 0.170110 -0.528870
O35   O     O_R   0.179000 0.123520 0.175870 -0.522742
O36   O     O_R   0.213990 0.710040 0.667000 -0.532881
O37   O     O_R   0.786010 0.710040 0.333000 -0.532791
O38   O     O_R   0.713990 0.210040 0.667000 -0.532881
O39   O     O_R   0.286010 0.210040 0.333000 -0.532791
O40   O     O_R   0.235920 0.960520 0.674260 -0.511847
O41   O     O_R   0.764080 0.960520 0.325740 -0.511574
O42   O     O_R   0.735920 0.460520 0.674260 -0.511847
O43   O     O_R   0.264080 0.460520 0.325740 -0.511575
O44   O     O_R   0.331960 0.078120 0.669410 -0.534149
O45   O     O_R   0.446360 0.919990 0.675230 -0.507251
O46   O     O_R   0.668040 0.078120 0.330590 -0.533914
O47   O     O_R   0.831960 0.578120 0.669410 -0.534149
O48   O     O_R   0.168040 0.578120 0.330590 -0.533914
O49   O     O_R   0.553640 0.919990 0.324770 -0.507242
O50   O     O_R   0.946360 0.419990 0.675230 -0.507251
O51   O     O_R   0.053640 0.419990 0.324770 -0.507242
O52   O     O_R   0.457170 0.717300 0.668380 -0.531667

loop_
_geom_bond_atom_site_label_1
_geom_bond_atom_site_label_2
_ccdc_geom_bond_type
C63   H66   S    
C35   C53   S    
C36   H55   S    
C73   C82   S    
C73   H76   S    
C115  O32   A    
C117  O35   A    
C69   C78   S    
C33   H20   S    
C76   H88   S    
Cr2   O2    S    
C19   H64   S    
C1    O18   A    
C14   C21   S    
C1    C46   S    
C41   H13   S    
C94   C111  S    
Cr7   O17   S    
C111  H6    S    
C3    C100  S    
C38   C55   S    
C110  H120  S    
C96   H121  S    
C40   H2    S    
C3    O43   A    
C91   C100  S    
C93   C110  S    
C99   C121  S    
C26   H36   S    
C74   H78   S    
C11   O8    A    
Cr3   O33   S    
Cr1   O9    S    
Cr4   O30   S    
C41   H108  S    
Cr3   O11   S    
C13   H15   S    
C86   C90   S    
C93   C101  S    
C26   H37   S    
Cr11  O48   S    
C98   C102  S    
C17   C21   S    
C33   H25   S    
C62   H65   S    
C71   C74   S    
C20   C92   S    
C30   C47   S    
C39   C56   S    
C16   C20   S    
C90   H111  S    
C50   C54   S    
Cr11  O13   S    
C49   C115  S    
C83   H99   S    
C83   C100  S    
C56   H35   S    
C105  C118  S    
C37   C45   S    
C102  C123  S    
C107  C120  S    
C69   H72   S    
C5    O49   A    
C84   C88   S    
C40   H97   S    
C27   H40   S    
C98   C120  S    
C47   C52   S    
C83   H94   S    
C119  H135  S    
C95   H3    S    
C120  H136  S    
C24   C46   S    
C61   H68   S    
C13   C45   S    
C77   C82   S    
C49   C53   S    
C66   O24   A    
C86   H102  S    
C51   C55   S    
Cr10  O20   S    
C57   H51   S    
C26   H34   S    
C60   H54   S    
Cr9   O10   S    
C53   H60   S    
C41   C45   S    
C14   H82   S    
C17   H1    S    
C75   C79   S    
C44   C48   S    
Cr9   O46   S    
C91   H114  S    
C2    H14   S    
C122  O44   A    
C123  O41   A    
C13   C32   S    
C86   C104  S    
C8    C105  S    
C61   H63   S    
C71   C79   S    
Cr12  O27   S    
C74   H85   S    
Cr8   O22   S    
C67   O25   A    
C68   O30   A    
C41   C58   S    
C34   H28   S    
C15   C25   S    
C104  C122  S    
C12   C22   S    
C109  H118  S    
C4    O52   A    
C49   C57   S    
C23   C67   S    
C6    O50   A    
C35   H58   S    
C2    C44   S    
C71   H73   S    
C63   H70   S    
C39   H86   S    
C85   H101  S    
C48   O20   A    
C43   C59   S    
C116  O33   A    
C37   O19   A    
Cr12  O9    S    
C27   H38   S    
C57   H46   S    
C97   H122  S    
C9    O37   A    
C63   C80   S    
C64   H71   S    
C101  C124  S    
C87   H103  S    
Cr7   O13   S    
Cr9   O49   S    
C111  H116  S    
C75   H77   S    
C97   C119  S    
C110  H5    S    
C118  H129  S    
Cr8   O9    S    
C87   C105  S    
C64   C82   S    
C8    O36   A    
C94   C102  S    
C124  O47   A    
C38   H27   S    
C16   C23   S    
Cr2   O10   S    
C7    O51   A    
C4    O45   A    
Cr4   O8    S    
C15   H83   S    
Cr11  O26   S    
C121  H133  S    
C31   H18   S    
C67   O29   A    
C105  C109  S    
C18   C22   S    
C107  C111  S    
C91   H138  S    
C42   H24   S    
C5    O2    A    
C76   C80   S    
C24   H11   S    
Cr5   O37   S    
C90   H106  S    
C90   C108  S    
C72   C80   S    
C42   H119  S    
C96   C100  S    
Cr10  O47   S    
C51   C117  S    
Cr9   O24   S    
C9    O6    A    
C16   H84   S    
C61   C62   S    
C38   C46   S    
C36   C54   S    
C63   C64   S    
C40   C44   S    
Cr2   O28   S    
C11   C108  S    
C23   C92   S    
C51   C60   S    
Cr3   O3    S    
C94   H112  S    
Cr4   O4    S    
C85   C102  S    
C47   C56   S    
C118  H134  S    
C98   H123  S    
C30   H21   S    
C83   C87   S    
Cr6   O38   S    
C77   H89   S    
C60   H49   S    
C120  H132  S    
Cr7   O43   S    
C106  C119  S    
Cr8   O44   S    
C55   H31   S    
C108  C121  S    
C123  O46   A    
C65   O27   A    
C2    H9    S    
C15   C19   S    
C52   H59   S    
C66   O28   A    
C86   H98   S    
C54   H61   S    
C109  H4    S    
C112  H7    S    
C84   H100  S    
C54   H30   S    
C93   H139  S    
C95   C112  S    
Cr11  O21   S    
C43   C114  S    
C94   H140  S    
C20   C25   S    
C88   H104  S    
C58   H48   S    
C42   C46   S    
C68   O26   A    
C24   H16   S    
C116  O23   A    
C12   C17   S    
Cr10  O25   S    
C28   H41   S    
C53   H33   S    
C32   H23   S    
C99   C104  S    
C36   H26   S    
C25   C68   S    
C31   C49   S    
Cr1   O40   S    
C6    O3    A    
Cr8   O45   S    
C34   C43   S    
C50   C58   S    
C22   C81   S    
C27   H39   S    
C85   C89   S    
C108  C112  S    
C114  H8    S    
C10   O7    A    
Cr2   O32   S    
C48   O16   A    
C76   H80   S    
C65   O22   A    
C37   O15   A    
C89   C107  S    
Cr10  O11   S    
Cr12  O5    S    
C97   H126  S    
C34   H57   S    
C10   O38   A    
C64   H67   S    
C56   H50   S    
C99   H128  S    
C26   C70   S    
C73   C76   S    
Cr12  O52   S    
C7    O4    A    
C113  O1    A    
C12   H81   S    
C77   H79   S    
C30   C114  S    
C47   C113  S    
C40   C57   S    
C21   C65   S    
Cr6   O11   S    
C73   H92   S    
C33   C51   S    
C34   C52   S    
C24   C33   S    
Cr6   O23   S    
C114  H12   S    
Cr1   O1    S    
Cr2   O6    S    
C1    O14   A    
C69   C75   S    
C17   C81   S    
C28   H43   S    
C121  H137  S    
C31   H22   S    
C74   C78   S    
Cr6   O16   S    
Cr10  O50   S    
C5    C78   S    
C7    C80   S    
Cr5   O41   S    
C18   C70   S    
C18   H53   S    
C96   H125  S    
C6    C82   S    
C14   C18   S    
C19   C23   S    
C95   H113  S    
C39   H130  S    
C29   H45   S    
C96   C118  S    
Cr5   O10   S    
C55   H62   S    
C15   C16   S    
Cr3   O29   S    
C89   H110  S    
C29   C103  S    
C20   H75   S    
Cr3   O7    S    
C70   C81   S    
C84   H95   S    
C22   C66   S    
C92   C103  S    
C113  O31   A    
C88   H109  S    
C59   O21   A    
C19   C103  S    
C98   H127  S    
C30   H17   S    
C72   H74   S    
Cr6   O42   S    
C29   H44   S    
Cr7   O39   S    
C115  O12   A    
C62   H69   S    
Cr1   O14   S    
C75   H87   S    
C84   C101  S    
C10   C107  S    
C85   H96   S    
C13   H10   S    
C69   H91   S    
Cr11  O51   S    
Cr7   O34   S    
C72   H93   S    
C58   H52   S    
C62   C79   S    
C27   C81   S    
C71   H90   S    
C4    C79   S    
C42   C60   S    
C25   C103  S    
C39   C43   S    
C9    C106  S    
C2    C31   S    
Cr4   O35   S    
C72   C77   S    
C32   H19   S    
C88   C106  S    
C87   H107  S    
C3    O48   A    
C59   O17   A    
C61   C78   S    
C119  H131  S    
C36   C45   S    
C28   C92   S    
Cr1   O36   S    
C35   C44   S    
C32   C50   S    
Cr4   O13   S    
C12   C14   S    
C38   H56   S    
C89   H105  S    
C95   C104  S    
C106  C110  S    
C117  O34   A    
C29   H47   S    
Cr5   O12   S    
C122  O40   A    
C21   C70   S    
C91   C109  S    
C124  O42   A    
C52   H32   S    
C8    O5    A    
Cr12  O31   S    
C112  H117  S    
C99   H124  S    
C11   O39   A    
C35   H29   S    
Cr8   O18   S    
C50   C116  S    
Cr9   O19   S    
Cr5   O15   S    
C28   H42   S    
C97   C101  S    
C93   H115  S    
