data_mof_unit_9246.cif
_audit_creation_date              2012-12-10T16:57:45-0500
_audit_creation_method            fapswitch 2.2
_symmetry_space_group_name_H-M    P1
_symmetry_Int_Tables_number       1
_space_group_crystal_system       triclinic
_cell_length_a                    7.762512
_cell_length_b                    8.577438
_cell_length_c                    19.065462
_cell_angle_alpha                 91.070148
_cell_angle_beta                  85.266329
_cell_angle_gamma                 93.727977
_cell_volume                      1262.30548951

loop_
_atom_site_label
_atom_site_type_symbol
_atom_type_description
_atom_site_fract_x
_atom_site_fract_y
_atom_site_fract_z
_atom_type_partial_charge
C1    C     C_R   0.545892 0.794816 0.498180 0.966556
C2    C     C_R   0.454109 0.205184 0.501804 0.970043
C3    C     C_2   0.570058 0.958289 0.497114 -0.372278
C4    C     C_2   0.429945 0.041701 0.502834 -0.372580
C5    C     C_R   0.501465 0.501522 0.634599 0.907019
C6    C     C_R   0.499674 0.504153 0.365465 0.904114
C7    C     C_R   0.353226 0.492156 0.754060 -0.207169
C8    C     C_R   0.658063 0.590958 0.254519 -0.208426
C9    C     C_R   0.353625 0.518108 0.826226 -0.077317
C10   C     C_R   0.663308 0.625358 0.183487 -0.075980
C11   C     C_R   0.508999 0.572797 0.854769 -0.104457
C12   C     C_R   0.512549 0.597219 0.147564 -0.105429
C13   C     C_R   0.662002 0.597176 0.810590 0.656096
C14   C     C_R   0.356869 0.540872 0.184164 0.659768
C15   C     C_R   0.660486 0.568609 0.738872 -0.277982
C16   C     C_R   0.352452 0.509514 0.255447 -0.280637
C17   C     C_R   0.506057 0.517489 0.710360 -0.138029
C18   C     C_R   0.503532 0.531706 0.290438 -0.136371
C19   C     C_R   0.519891 0.609389 0.071373 0.321409
C20   C     C_R   0.516857 0.595154 0.930341 0.328392
H1    H     H_    0.233805 0.451080 0.731976 0.176611
H2    H     H_    0.774103 0.613396 0.282110 0.176703
H3    H     H_    0.779053 0.590825 0.705461 0.177526
H4    H     H_    0.232025 0.465034 0.282924 0.177502
H5    H     H_    0.702334 0.009471 0.491650 0.181163
H6    H     H_    0.297670 0.990515 0.508293 0.181527
H7    H     H_    0.013921 0.382040 0.447310 0.192407
H8    H     H_    0.986076 0.617953 0.552695 0.191986
N1    N     N_R   0.651793 0.543339 0.961904 -0.086378
N2    N     N_R   0.386414 0.664302 0.039791 -0.084361
N3    N     N_R   0.653058 0.550032 0.031354 -0.142777
N4    N     N_R   0.385283 0.657788 0.970212 -0.145960
N5    N     N_2   0.950330 0.457950 0.481240 -0.173723
N6    N     N_2   0.049670 0.542050 0.518760 -0.173122
O1    O     O_R   0.389250 0.738570 0.504600 -0.610449
O2    O     O_R   0.610750 0.261430 0.495400 -0.609757
O3    O     O_R   0.678400 0.711620 0.492580 -0.632169
O4    O     O_R   0.321600 0.288380 0.507420 -0.629364
O5    O     O_R   0.355380 0.513500 0.607880 -0.615466
O6    O     O_R   0.644620 0.486500 0.392120 -0.617599
O7    O     O_R   0.644530 0.486550 0.595850 -0.626606
O8    O     O_R   0.355470 0.513450 0.404150 -0.626666
Zn1   Zn    Zn3+2 0.306930 0.517990 0.508030 0.950372
Zn2   Zn    Zn3+2 0.693070 0.482010 0.491970 0.948200
C21   C     C_1   0.195236 0.480816 0.869643 0.291734
N7    N     N_1   0.068515 0.450591 0.904396 -0.092609
C22   C     C_1   0.823261 0.692968 0.149251 0.280124
N8    N     N_1   0.951117 0.747441 0.121852 -0.103590
F1    F     F_    0.812287 0.652049 0.836622 -0.657812
F2    F     F_    0.211222 0.508635 0.150345 -0.654190

loop_
_geom_bond_atom_site_label_1
_geom_bond_atom_site_label_2
_ccdc_geom_bond_type
C4    H6    S    
C9    C21   S    
O1    Zn1   S    
C2    O4    A    
C8    H2    S    
C22   N8    T    
C1    O3    A    
N1    N3    A    
C19   N3    A    
O3    Zn2   S    
C15   H3    S    
N5    N6    D    
H8    N6    S    
O4    Zn1   S    
C16   H4    S    
C21   N7    T    
H7    N5    S    
N2    N4    A    
C9    C11   A    
N5    Zn2   S    
C14   F2    S    
C10   C12   A    
C13   F1    S    
C2    C4    S    
C12   C19   S    
C8    C10   A    
C12   C14   A    
C14   C16   A    
C20   N1    A    
C13   C15   A    
C6    O8    A    
C6    C18   S    
O7    Zn2   S    
C6    O6    A    
C11   C20   S    
O2    Zn2   S    
C11   C13   A    
C5    C17   S    
O8    Zn1   S    
C3    C4    D    
C7    C9    A    
O6    Zn2   S    
C3    H5    S    
C1    O1    A    
C16   C18   A    
C20   N4    A    
C2    O2    A    
C10   C22   S    
C15   C17   A    
C5    O5    A    
C5    O7    A    
O5    Zn1   S    
C1    C3    S    
C7    H1    S    
C19   N2    A    
C8    C18   A    
N6    Zn1   S    
C7    C17   A    
