data_mof_unit_49521.cif
_audit_creation_date              2012-12-10T17:02:29-0500
_audit_creation_method            fapswitch 2.2
_symmetry_space_group_name_H-M    P1
_symmetry_Int_Tables_number       1
_space_group_crystal_system       triclinic
_cell_length_a                    10.835182
_cell_length_b                    11.045831
_cell_length_c                    9.771089
_cell_angle_alpha                 111.185883
_cell_angle_beta                  97.600048
_cell_angle_gamma                 91.233528
_cell_volume                      1077.77649369

loop_
_atom_site_label
_atom_site_type_symbol
_atom_type_description
_atom_site_fract_x
_atom_site_fract_y
_atom_site_fract_z
_atom_type_partial_charge
C1    C     C_R   0.490953 0.253966 0.440519 0.866902
C2    C     C_R   0.509044 0.746033 0.559481 0.866931
C3    C     C_2   0.485846 0.114670 0.406850 -0.358826
C4    C     C_2   0.514136 0.885331 0.593154 -0.358848
C5    C     C_2   0.502408 0.069561 0.516707 -0.154463
C6    C     C_2   0.497594 0.930441 0.483303 -0.154473
C7    C     C_2   0.507847 0.513234 0.081877 -0.078999
C8    C     C_2   0.492128 0.486790 0.918127 -0.078907
C9    C     C_R   0.261811 0.484750 0.498601 0.806803
C10   C     C_R   0.738194 0.515232 0.501383 0.806783
C11   C     C_R   0.142919 0.513931 0.769478 -0.133008
C12   C     C_R   0.856980 0.485696 0.230306 -0.132956
C13   C     C_R   0.101615 0.578116 0.904693 -0.148701
C14   C     C_R   0.898251 0.421438 0.095098 -0.148685
C15   C     C_R   0.993709 0.643977 0.908298 -0.155394
C16   C     C_R   0.006303 0.355781 0.091593 -0.155540
C17   C     C_R   0.921550 0.635867 0.775817 -0.131659
C18   C     C_R   0.078529 0.364068 0.224116 -0.131654
C19   C     C_R   0.956446 0.560734 0.636828 0.083008
C20   C     C_R   0.043579 0.439168 0.363077 0.083044
C21   C     C_R   0.076685 0.514773 0.634772 0.081329
C22   C     C_R   0.923297 0.485051 0.365100 0.081308
C23   C     C_R   0.874559 0.530591 0.501177 -0.239521
C24   C     C_R   0.125453 0.469313 0.498735 -0.239547
Cu1   Cu    Cu3+1 0.521920 0.521810 0.644910 0.932821
Cu2   Cu    Cu3+1 0.478080 0.478190 0.355090 0.932783
H1    H     H_    0.223720 0.459173 0.771564 0.141011
H2    H     H_    0.776116 0.540369 0.228104 0.141142
H3    H     H_    0.154350 0.578081 0.006833 0.149480
H4    H     H_    0.845408 0.421325 0.992891 0.149422
H5    H     H_    0.839116 0.690072 0.783329 0.142609
H6    H     H_    0.161024 0.309938 0.216625 0.142660
H7    H     H_    0.480328 0.864530 0.367741 0.179470
H8    H     H_    0.519703 0.135470 0.632272 0.179455
H9    H     H_    0.531432 0.951487 0.708529 0.149682
H10   H     H_    0.468518 0.048515 0.291473 0.149679
H11   H     H_    0.426007 0.408191 0.843749 0.145950
H12   H     H_    0.573946 0.591857 0.156259 0.145949
H13   H     H_    0.616822 0.628977 0.935934 0.183926
H14   H     H_    0.383194 0.371008 0.064062 0.183915
N1    N     N_2   0.445130 0.445420 0.137360 -0.286556
N2    N     N_2   0.554870 0.554580 0.862640 -0.286557
O1    O     O_R   0.511700 0.332340 0.577400 -0.580231
O2    O     O_R   0.488300 0.667660 0.422600 -0.580220
O3    O     O_R   0.474680 0.295500 0.332650 -0.579621
O4    O     O_R   0.525320 0.704500 0.667350 -0.579601
O5    O     O_R   0.338170 0.518410 0.622370 -0.578005
O6    O     O_R   0.661830 0.481590 0.377630 -0.578073
O7    O     O_R   0.301150 0.481570 0.377630 -0.572224
O8    O     O_R   0.698850 0.518430 0.622370 -0.572175
H15   H     H_    0.036038 0.301282 0.986371 0.134201
H16   H     H_    0.963980 0.698472 0.013544 0.134180

loop_
_geom_bond_atom_site_label_1
_geom_bond_atom_site_label_2
_ccdc_geom_bond_type
Cu1   N2    S    
C19   C23   A    
C16   H15   S    
C9    C24   S    
Cu2   O6    S    
C10   C23   S    
Cu1   O5    S    
C2    C4    S    
C6    H7    S    
C11   H1    S    
C5    H8    S    
Cu1   O1    S    
C7    N1    D    
C12   C14   A    
C4    H9    S    
Cu2   O2    S    
C7    C8    S    
C16   C18   A    
C15   H16   S    
C2    O4    A    
C11   C13   A    
C1    O3    A    
C3    H10   S    
C14   H4    S    
C13   H3    S    
H14   N1    S    
C19   C21   A    
C7    H12   S    
C8    N2    D    
C9    O5    A    
H13   N2    S    
C18   C20   A    
C13   C15   A    
C10   O6    A    
C5    C6    S    
C17   H5    S    
C14   C16   A    
Cu2   O7    S    
C18   H6    S    
C8    H11   S    
C11   C21   A    
C10   O8    A    
C12   C22   A    
C9    O7    A    
C12   H2    S    
C4    C6    D    
C21   C24   A    
C2    O2    A    
C1    C3    S    
C15   C17   A    
Cu1   O8    S    
Cu2   O3    S    
C17   C19   A    
Cu1   Cu2   S    
C22   C23   A    
Cu1   O4    S    
C1    O1    A    
C20   C24   A    
Cu2   N1    S    
C20   C22   A    
C3    C5    D    
