data_mof_unit_21838.cif
_audit_creation_date              2012-12-10T19:29:17-0500
_audit_creation_method            fapswitch 2.2
_symmetry_space_group_name_H-M    P1
_symmetry_Int_Tables_number       1
_space_group_crystal_system       triclinic
_cell_length_a                    15.866535
_cell_length_b                    17.850241
_cell_length_c                    16.580135
_cell_angle_alpha                 89.930105
_cell_angle_beta                  90.281928
_cell_angle_gamma                 93.2956
_cell_volume                      4688.02561182

loop_
_atom_site_label
_atom_site_type_symbol
_atom_type_description
_atom_site_fract_x
_atom_site_fract_y
_atom_site_fract_z
_atom_type_partial_charge
C1    C     C_R   0.503962 0.355438 0.500293 0.878539
C2    C     C_R   0.496021 0.644563 0.499712 0.878059
C3    C     C_R   0.492181 0.767417 0.573694 0.391904
C4    C     C_R   0.507165 0.232446 0.426465 0.391583
C5    C     C_R   0.490646 0.727827 0.499306 -0.278345
C6    C     C_R   0.509251 0.272171 0.500767 -0.278088
C7    C     C_R   0.483143 0.769281 0.426340 -0.157596
C8    C     C_R   0.517173 0.230847 0.573763 -0.157134
C9    C     C_R   0.491134 0.848090 0.428180 0.445474
C10   C     C_R   0.509169 0.152041 0.572117 0.444912
C11   C     C_R   0.500119 0.886132 0.501815 -0.123364
C12   C     C_R   0.499608 0.113862 0.498610 -0.123381
C13   C     C_1   0.500166 0.966454 0.500854 0.147579
C14   C     C_1   0.499548 0.033542 0.499686 0.147060
C15   C     C_R   0.565546 0.540637 0.830308 -0.177569
C16   C     C_R   0.434383 0.459486 0.169669 -0.178069
C17   C     C_R   0.563351 0.539812 0.743798 0.089196
C18   C     C_R   0.436549 0.460325 0.256179 0.088718
C19   C     C_R   0.437044 0.461385 0.744939 0.000333
C20   C     C_R   0.563046 0.538501 0.255056 0.000661
C21   C     C_R   0.438933 0.459187 0.830556 0.297211
C22   C     C_R   0.561183 0.540684 0.169436 0.297045
C23   C     C_R   0.339766 0.499721 0.499838 0.823933
C24   C     C_R   0.660234 0.500280 0.500162 0.823871
C25   C     C_R   0.502400 0.499613 0.873885 -0.049082
C26   C     C_R   0.497634 0.500376 0.126100 -0.048861
C27   C     C_1   0.500610 0.499839 0.963069 0.005045
C28   C     C_1   0.499435 0.500139 0.036915 0.005111
C29   C     C_3   0.966992 0.431376 0.482467 0.305921
C30   C     C_3   0.033012 0.568634 0.517543 0.305870
C31   C     C_3   0.026203 0.479735 0.427165 0.313252
C32   C     C_3   0.973800 0.520275 0.572846 0.313271
C33   C     C_1   0.250312 0.499413 0.499660 -0.147204
C34   C     C_1   0.749690 0.500592 0.500342 -0.147000
C35   C     C_3   0.023565 0.450093 0.556567 -0.213792
C36   C     C_3   0.976438 0.549917 0.443443 -0.213772
C37   C     C_3   0.083379 0.498685 0.500985 -0.049165
C38   C     C_3   0.916624 0.501325 0.499025 -0.049186
C39   C     C_1   0.174906 0.499082 0.500074 0.152844
C40   C     C_1   0.825096 0.500926 0.499932 0.152882
C41   C     C_R   0.502543 0.846229 0.575056 -0.140595
C42   C     C_R   0.496661 0.153635 0.425315 -0.140876
Cu1   Cu    Cu3+1 0.500000 0.499980 0.580420 1.000801
Cu2   Cu    Cu3+1 0.500000 0.500020 0.419580 1.000951
N1    N     N_R   0.499980 0.499970 0.701220 -0.246275
N2    N     N_R   0.500020 0.500030 0.298780 -0.245966
O1    O     O_R   0.499990 0.391240 0.567930 -0.573707
O2    O     O_R   0.500010 0.608760 0.432070 -0.573809
O3    O     O_R   0.500000 0.391270 0.432120 -0.508545
O4    O     O_R   0.500000 0.608730 0.567880 -0.508617
O5    O     O_R   0.379070 0.499980 0.567900 -0.569317
O6    O     O_R   0.620930 0.500020 0.432100 -0.569035
O7    O     O_R   0.379080 0.500010 0.432080 -0.613489
O8    O     O_R   0.620920 0.499990 0.567920 -0.613880
O9    O     O_3   0.061329 0.457012 0.353674 -0.579751
C43   C     C_3   0.997748 0.446801 0.294252 0.078691
H1    H     H_    0.984041 0.501795 0.267313 0.156506
H2    H     H_    0.938135 0.419485 0.318209 0.177418
C44   C     C_3   0.029252 0.397106 0.227731 -0.758389
H3    H     H_    0.043227 0.341400 0.252772 0.252113
H4    H     H_    0.980216 0.389207 0.179997 0.200376
H5    H     H_    0.087574 0.423530 0.200639 0.261393
O10   O     O_3   0.938678 0.542999 0.646338 -0.579750
C45   C     C_3   0.002262 0.553206 0.705758 0.078755
H6    H     H_    0.061881 0.580506 0.681799 0.177373
H7    H     H_    0.015954 0.498212 0.732707 0.156527
C46   C     C_3   0.970772 0.602919 0.772271 -0.758513
H8    H     H_    0.912444 0.576511 0.799368 0.261389
H9    H     H_    0.019811 0.610816 0.820004 0.200377
H10   H     H_    0.956812 0.658625 0.747220 0.252090
C47   C     C_2   0.361629 0.424041 0.706526 0.484461
H11   H     H_    0.299430 0.438960 0.725588 0.094234
O11   O     O_2   0.367085 0.373216 0.658241 -0.554605
C48   C     C_2   0.638508 0.575787 0.293457 0.483963
H12   H     H_    0.700687 0.560901 0.274295 0.094403
O12   O     O_2   0.633114 0.626533 0.341848 -0.554619
O13   O     O_3   0.375409 0.419292 0.872040 -0.594549
C49   C     C_3   0.399978 0.345205 0.883875 0.048648
H13   H     H_    0.452950 0.344539 0.928105 0.160341
H14   H     H_    0.419660 0.319185 0.826318 0.144530
C50   C     C_3   0.325653 0.297333 0.916995 -0.726505
H15   H     H_    0.272286 0.296128 0.873321 0.249881
H16   H     H_    0.344523 0.239094 0.927097 0.203889
H17   H     H_    0.304770 0.320656 0.975120 0.264350
O14   O     O_3   0.624813 0.580446 0.127957 -0.594721
C51   C     C_3   0.600438 0.654586 0.116076 0.048701
H18   H     H_    0.580677 0.680641 0.173589 0.144666
H19   H     H_    0.547577 0.655347 0.071733 0.160506
C52   C     C_3   0.674940 0.702340 0.083121 -0.726437
H20   H     H_    0.695929 0.678972 0.025056 0.264173
H21   H     H_    0.656218 0.760614 0.072955 0.204122
H22   H     H_    0.728188 0.703464 0.126925 0.249779
O15   O     O_3   0.924840 0.362046 0.462371 -0.587529
C53   C     C_3   0.983375 0.305963 0.454305 0.101814
H23   H     H_    0.999513 0.283788 0.514698 0.160355
H24   H     H_    0.042508 0.326446 0.423463 0.186630
C54   C     C_3   0.943248 0.241703 0.404654 -0.787352
H25   H     H_    0.926587 0.262109 0.343631 0.242451
H26   H     H_    0.988282 0.196707 0.398455 0.213763
H27   H     H_    0.885161 0.218193 0.434736 0.255229
O16   O     O_3   0.075171 0.637961 0.537638 -0.587615
C55   C     C_3   0.016642 0.694046 0.545717 0.101736
H28   H     H_    0.957518 0.673567 0.576577 0.186621
H29   H     H_    0.000485 0.716218 0.485327 0.160330
C56   C     C_3   0.056789 0.758308 0.595354 -0.787507
H30   H     H_    0.114867 0.781814 0.565253 0.255180
H31   H     H_    0.011760 0.803307 0.601564 0.213771
H32   H     H_    0.073469 0.737904 0.656373 0.242461
C57   C     C_2   0.951103 0.605040 0.380899 0.337321
H33   H     H_    0.999337 0.635754 0.346029 0.096366
O17   O     O_2   0.876822 0.615640 0.368820 -0.540922
C58   C     C_2   0.048902 0.394972 0.619113 0.337379
H34   H     H_    0.000668 0.364258 0.653984 0.096444
O18   O     O_2   0.123183 0.384372 0.631192 -0.540909
C59   C     C_2   0.516612 0.884658 0.654215 0.408359
H35   H     H_    0.498916 0.856122 0.709925 0.107152
O19   O     O_2   0.551468 0.947258 0.658738 -0.514564
C60   C     C_2   0.481888 0.115069 0.346326 0.408407
H36   H     H_    0.499197 0.143471 0.290438 0.106968
O20   O     O_2   0.446864 0.052512 0.342165 -0.513463
O21   O     O_3   0.484853 0.729225 0.646247 -0.522722
C61   C     C_3   0.398187 0.719755 0.665654 0.067803
H37   H     H_    0.363625 0.683410 0.620373 0.145512
H38   H     H_    0.368463 0.774770 0.668628 0.109442
C62   C     C_3   0.388809 0.682405 0.747833 -0.720184
H39   H     H_    0.423598 0.716892 0.794238 0.247677
H40   H     H_    0.321046 0.676419 0.764457 0.187830
H41   H     H_    0.414248 0.625915 0.746141 0.251759
O22   O     O_3   0.514091 0.270503 0.353808 -0.522536
C63   C     C_3   0.600628 0.279671 0.333807 0.067763
H42   H     H_    0.630112 0.224549 0.330728 0.109293
H43   H     H_    0.635655 0.315997 0.378801 0.145558
C64   C     C_3   0.609554 0.316845 0.251501 -0.719936
H44   H     H_    0.584493 0.373480 0.253300 0.251760
H45   H     H_    0.677190 0.322479 0.234369 0.187729
H46   H     H_    0.574190 0.282439 0.205403 0.247942
C65   C     C_2   0.461710 0.733592 0.347418 0.435524
H47   H     H_    0.499469 0.691230 0.322003 0.115849
O23   O     O_2   0.401580 0.753630 0.308329 -0.508933
C66   C     C_2   0.539040 0.266684 0.652510 0.436206
H48   H     H_    0.501215 0.308886 0.678168 0.115338
O24   O     O_2   0.599599 0.246940 0.691176 -0.509247
O25   O     O_3   0.487983 0.888408 0.356820 -0.505373
C67   C     C_3   0.570492 0.897146 0.324994 0.096867
H49   H     H_    0.603190 0.843427 0.325233 0.124109
H50   H     H_    0.608760 0.939858 0.360387 0.138758
C68   C     C_3   0.565797 0.923552 0.237915 -0.710873
H51   H     H_    0.536112 0.978261 0.234607 0.269340
H52   H     H_    0.630378 0.930321 0.212422 0.183211
H53   H     H_    0.527985 0.881571 0.201397 0.252972
O26   O     O_3   0.512866 0.111882 0.643539 -0.505663
C69   C     C_3   0.430598 0.103104 0.675927 0.097804
H54   H     H_    0.392530 0.059570 0.641489 0.139809
H55   H     H_    0.397315 0.156521 0.674881 0.123256
C70   C     C_3   0.436089 0.078165 0.763458 -0.710813
H56   H     H_    0.473540 0.121101 0.799048 0.252073
H57   H     H_    0.371693 0.071136 0.789324 0.183136
H58   H     H_    0.466562 0.023876 0.767663 0.270856
C71   C     C_2   0.633495 0.583519 0.876622 0.333382
H59   H     H_    0.649482 0.566209 0.937271 0.113374
O27   O     O_2   0.670641 0.639590 0.849177 -0.525486
C72   C     C_2   0.366377 0.416688 0.123348 0.333075
H60   H     H_    0.350403 0.434033 0.062706 0.113598
O28   O     O_2   0.329178 0.360635 0.150775 -0.525834
C73   C     C_2   0.632834 0.580494 0.700797 0.614472
H61   H     H_    0.693910 0.556260 0.697373 0.029371
O29   O     O_2   0.624408 0.643119 0.673669 -0.469919
C74   C     C_2   0.366905 0.419822 0.299129 0.614583
H62   H     H_    0.305801 0.444051 0.302156 0.029310
O30   O     O_2   0.375244 0.357345 0.326683 -0.469813

loop_
_geom_bond_atom_site_label_1
_geom_bond_atom_site_label_2
_ccdc_geom_bond_type
Cu2   O3    S    
C24   O6    A    
C30   C32   S    
O9    C43   S    
C73   H61   S    
C70   H57   S    
C59   O19   D    
C56   H30   S    
C19   C47   S    
C68   H51   S    
C50   H17   S    
C58   O18   D    
C50   H15   S    
C9    O25   S    
O13   C49   S    
C56   H31   S    
C33   C39   T    
C48   O12   D    
C34   C40   T    
C68   H52   S    
C17   N1    A    
C72   H60   S    
C57   O17   D    
C49   H14   S    
C15   C25   A    
C24   O8    A    
C59   H35   S    
C54   H25   S    
C43   H1    S    
C55   C56   S    
C7    C9    A    
C22   O14   S    
C60   H36   S    
C12   C42   A    
C2    O4    A    
C50   H16   S    
Cu2   O7    S    
C23   C33   S    
C1    O3    A    
C29   C38   S    
C62   H41   S    
O26   C69   S    
C71   O27   D    
C32   C38   S    
C52   H21   S    
C53   H24   S    
Cu2   O6    S    
C74   O30   D    
C44   H3    S    
C73   O29   D    
C38   C40   S    
C13   C14   T    
C70   H58   S    
C53   H23   S    
C41   C59   S    
C67   C68   S    
C18   N2    A    
C58   H34   S    
C54   H26   S    
O16   C55   S    
Cu2   N2    S    
C23   O7    A    
C72   O28   D    
C16   C26   A    
C56   H32   S    
C44   H4    S    
C48   H12   S    
C1    C6    S    
C45   C46   S    
C68   H53   S    
C66   H48   S    
C4    C6    A    
C7    C65   S    
C18   C74   S    
C49   H13   S    
C42   C60   S    
C6    C8    A    
C53   C54   S    
C16   C72   S    
O14   C51   S    
C24   C34   S    
C31   C37   S    
C30   C37   S    
C46   H9    S    
C45   H7    S    
C63   H43   S    
Cu1   Cu2   S    
C32   C35   S    
C15   C71   S    
C62   H40   S    
C10   O26   S    
C64   H46   S    
C65   O23   D    
Cu1   O8    S    
C23   O5    A    
C71   H59   S    
C69   C70   S    
C29   C31   S    
C20   C48   S    
O15   C53   S    
C52   H22   S    
C55   H29   S    
Cu1   N1    S    
O21   C61   S    
C10   C12   A    
C67   H50   S    
C74   H62   S    
C20   C22   A    
C9    C11   A    
C64   H44   S    
C63   C64   S    
C61   H38   S    
C36   C57   S    
C70   H56   S    
C54   H27   S    
C47   O11   D    
O22   C63   S    
C69   H55   S    
C15   C17   A    
C21   C25   A    
C3    C41   A    
C44   H5    S    
C35   C37   S    
C51   H18   S    
C16   C18   A    
C1    O1    A    
C32   O10   S    
C12   C14   S    
C67   H49   S    
C3    C5    A    
C51   C52   S    
C19   N1    A    
Cu1   O4    S    
C4    O22   S    
C66   O24   D    
C46   H8    S    
C25   C27   S    
C65   H47   S    
C29   C35   S    
C26   C28   S    
C43   C44   S    
C30   C36   S    
C8    C66   S    
C46   H10   S    
C2    O2    A    
C45   H6    S    
C61   C62   S    
C36   C38   S    
C63   H42   S    
C61   H37   S    
C5    C7    A    
C47   H11   S    
C37   C39   S    
Cu2   O2    S    
C17   C73   S    
C57   H33   S    
C29   O15   S    
C11   C13   S    
C49   C50   S    
Cu1   O5    S    
C62   H39   S    
C4    C42   A    
C30   O16   S    
C43   H2    S    
C11   C41   A    
C51   H19   S    
C55   H28   S    
C60   O20   D    
O10   C45   S    
C2    C5    S    
C3    O21   S    
C69   H54   S    
C8    C10   A    
C22   C26   A    
C21   O13   S    
C27   C28   T    
C64   H45   S    
C31   C36   S    
C31   O9    S    
C52   H20   S    
Cu1   O1    S    
C20   N2    A    
C35   C58   S    
O25   C67   S    
C19   C21   A    
