data_mof_unit_42044.cif
_audit_creation_date              2012-12-10T16:35:09-0500
_audit_creation_method            fapswitch 2.2
_symmetry_space_group_name_H-M    P1
_symmetry_Int_Tables_number       1
_space_group_crystal_system       triclinic
_cell_length_a                    10.885409
_cell_length_b                    10.894527
_cell_length_c                    10.873889
_cell_angle_alpha                 80.912118
_cell_angle_beta                  98.655301
_cell_angle_gamma                 89.537752
_cell_volume                      1258.1908801

loop_
_atom_site_label
_atom_site_type_symbol
_atom_type_description
_atom_site_fract_x
_atom_site_fract_y
_atom_site_fract_z
_atom_type_partial_charge
C1    C     C_R   0.834286 0.471562 0.527755 0.852752
C2    C     C_2   0.483052 0.026507 0.543237 0.198682
C3    C     C_2   0.523895 0.968723 0.455130 -0.244368
C4    C     C_2   0.028874 0.544850 0.465731 -0.295481
C5    C     C_3   0.361521 0.987704 0.705976 0.098166
C6    C     C_3   0.400980 0.045165 0.825507 -0.263615
C7    C     C_3   0.296311 0.124160 0.854837 -0.912122
C8    C     C_2   0.531694 0.030248 0.323750 0.399072
C9    C     C_2   0.968327 0.659261 0.382876 0.318837
C10   C     C_3   0.001113 0.315181 0.721906 0.067680
C11   C     C_3   0.073573 0.396297 0.809501 -0.351971
C12   C     C_2   0.967290 0.459108 0.536455 0.328113
C13   C     C_3   0.065958 0.347524 0.947533 -0.874853
C14   C     C_3   0.301551 0.673428 0.939475 0.100371
C15   C     C_3   0.178579 0.687088 0.989065 -0.312222
C16   C     C_3   0.136947 0.823122 0.974901 -0.954979
C17   C     C_2   0.672916 0.438843 0.037144 0.399889
C18   C     C_2   0.454508 0.521656 0.024350 0.187856
C19   C     C_2   0.542553 0.468105 0.972878 -0.229272
C20   C     C_R   0.163782 0.528578 0.472665 0.827580
C21   C     C_R   0.524995 0.472863 0.838347 0.942234
C22   C     C_R   0.474493 0.525576 0.160024 0.776500
C23   C     C_R   0.523922 0.834881 0.473035 0.995488
C24   C     C_R   0.478778 0.163730 0.525287 0.735118
H1    H     H_    0.311569 0.901863 0.732568 0.112922
H2    H     H_    0.032275 0.216660 0.755045 0.176372
H3    H     H_    0.900152 0.318542 0.728446 0.124549
H4    H     H_    0.172752 0.397538 0.796368 0.277672
H5    H     H_    0.034948 0.493274 0.785500 0.205323
H6    H     H_    0.967999 0.350042 0.964079 0.304447
H7    H     H_    0.120913 0.406335 0.008670 0.275293
H8    H     H_    0.104164 0.250546 0.974047 0.259466
H9    H     H_    0.286426 0.708740 0.836854 0.135303
H10   H     H_    0.373033 0.732482 0.984130 0.141780
H11   H     H_    0.105409 0.637234 0.935771 0.221102
H12   H     H_    0.291835 0.046756 0.635201 0.155702
H13   H     H_    0.188630 0.644892 0.090058 0.248541
H14   H     H_    0.208200 0.875221 0.028098 0.273556
H15   H     H_    0.048377 0.829579 0.012878 0.279181
H16   H     H_    0.121425 0.865533 0.873785 0.255330
H17   H     H_    0.714785 0.488315 0.111195 0.109554
H18   H     H_    0.430018 0.969755 0.906632 0.204215
H19   H     H_    0.482206 0.104759 0.814189 0.252263
H20   H     H_    0.271228 0.203498 0.777245 0.303486
H21   H     H_    0.327324 0.161310 0.943421 0.269605
H22   H     H_    0.213100 0.068110 0.866183 0.241199
H23   H     H_    0.478024 0.114791 0.281697 0.083389
H24   H     H_    0.025818 0.732164 0.344604 0.119708
O1    O     O_3   0.500000 0.500000 0.500000 -0.500251
O2    O     O_R   0.597340 0.765700 0.560080 -0.596648
O3    O     O_R   0.548200 0.222430 0.451790 -0.660415
O4    O     O_R   0.441590 0.789440 0.401000 -0.667464
O5    O     O_R   0.412860 0.222430 0.587130 -0.644504
O6    O     O_3   0.468544 0.953895 0.658097 -0.644034
O7    O     O_2   0.595996 0.983562 0.259428 -0.537556
O8    O     O_2   0.855727 0.673350 0.353996 -0.564345
O9    O     O_3   0.025936 0.346611 0.596659 -0.628833
O10   O     O_3   0.336268 0.545999 0.955214 -0.653673
O11   O     O_2   0.735906 0.360023 0.004756 -0.584260
O12   O     O_R   0.441590 0.410520 0.779910 -0.636880
O13   O     O_R   0.548210 0.443940 0.230290 -0.661369
O14   O     O_R   0.787780 0.544200 0.591150 -0.649399
O15   O     O_R   0.222430 0.601350 0.398650 -0.682496
O16   O     O_R   0.767360 0.410530 0.454140 -0.618368
O17   O     O_R   0.222430 0.443930 0.556060 -0.587409
O18   O     O_R   0.597340 0.544190 0.781580 -0.656689
O19   O     O_R   0.412870 0.601350 0.208220 -0.634666
Zn1   Zn    Zn3+2 0.396020 0.396030 0.603970 0.967837
Zn2   Zn    Zn3+2 0.618560 0.587010 0.606350 1.030058
Zn3   Zn    Zn3+2 0.396030 0.620930 0.379070 0.978066
Zn4   Zn    Zn3+2 0.589390 0.396030 0.410610 1.013886

loop_
_geom_bond_atom_site_label_1
_geom_bond_atom_site_label_2
_ccdc_geom_bond_type
C10   H3    S    
C14   H10   S    
C5    H12   S    
C6    C7    S    
O1    Zn1   S    
C21   O18   A    
C4    C12   D    
C20   O17   A    
C13   H8    S    
C3    C23   S    
O15   Zn3   S    
C6    H19   S    
O17   Zn1   S    
C1    O14   A    
O19   Zn3   S    
C14   H9    S    
C2    C3    D    
O12   Zn1   S    
C8    H23   S    
O16   Zn4   S    
C9    O8    D    
O1    Zn2   S    
C7    H20   S    
C22   O13   A    
C11   C13   S    
O13   Zn4   S    
C23   O4    A    
C1    C12   S    
O3    Zn4   S    
C11   H4    S    
C17   O11   D    
C5    H1    S    
C12   O9    S    
C7    H21   S    
C8    O7    D    
C15   H11   S    
C17   C19   S    
O2    Zn2   S    
C16   H16   S    
C18   C19   D    
O14   Zn2   S    
O1    Zn3   S    
C2    C24   S    
C5    C6    S    
C14   O10   S    
C17   H17   S    
C22   O19   A    
C2    O6    S    
O18   Zn2   S    
O4    Zn3   S    
C10   C11   S    
C16   H15   S    
C15   C16   S    
C4    C20   S    
C7    H22   S    
C5    O6    S    
C10   O9    S    
C13   H6    S    
C11   H5    S    
C9    H24   S    
C3    C8    S    
O1    Zn4   S    
C21   O12   A    
O5    Zn1   S    
C13   H7    S    
C14   C15   S    
C15   H13   S    
C23   O2    A    
C19   C21   S    
C4    C9    S    
C18   C22   S    
C6    H18   S    
C1    O16   A    
C18   O10   S    
C10   H2    S    
C24   O5    A    
C16   H14   S    
C24   O3    A    
C20   O15   A    
