data_mof_unit_43087.cif
_audit_creation_date              2012-12-11T16:15:04-0500
_audit_creation_method            fapswitch 2.2
_symmetry_space_group_name_H-M    P1
_symmetry_Int_Tables_number       1
_space_group_crystal_system       orthorhombic
_cell_length_a                    7.179767
_cell_length_b                    23.458585
_cell_length_c                    25.762615
_cell_angle_alpha                 90.0
_cell_angle_beta                  90.0
_cell_angle_gamma                 90.0
_cell_volume                      4339.12445089

loop_
_atom_site_label
_atom_site_type_symbol
_atom_type_description
_atom_site_fract_x
_atom_site_fract_y
_atom_site_fract_z
_atom_type_partial_charge
O1    O     O_R   0.694650 0.802620 0.195790 -0.551741
O2    O     O_R   0.305350 0.197380 0.804210 -0.551741
O3    O     O_R   0.305350 0.197380 0.695790 -0.551741
O4    O     O_R   0.694650 0.802620 0.304210 -0.551741
O5    O     O_R   0.194650 0.697380 0.304210 -0.551741
O6    O     O_R   0.805350 0.302620 0.695790 -0.551741
O7    O     O_R   0.805350 0.302620 0.804210 -0.551741
O8    O     O_R   0.194650 0.697380 0.195790 -0.551741
O9    O     O_R   0.364900 0.809540 0.303840 -0.502007
O10   O     O_R   0.635100 0.190460 0.696160 -0.502007
O11   O     O_R   0.635100 0.190460 0.803840 -0.502007
O12   O     O_R   0.364900 0.809540 0.196160 -0.502007
O13   O     O_R   0.864900 0.690460 0.196160 -0.502007
O14   O     O_R   0.135100 0.309540 0.803840 -0.502007
O15   O     O_R   0.135100 0.309540 0.696160 -0.502007
O16   O     O_R   0.864900 0.690460 0.303840 -0.502007
H1    H     H_    0.344256 0.568606 0.445199 0.194012
H2    H     H_    0.655745 0.431393 0.554801 0.194013
H3    H     H_    0.655744 0.431394 0.945199 0.194012
H4    H     H_    0.344255 0.568607 0.054801 0.194013
H5    H     H_    0.844256 0.931393 0.054801 0.194012
H6    H     H_    0.155745 0.068607 0.945199 0.194013
H7    H     H_    0.155745 0.068607 0.554801 0.194012
H8    H     H_    0.844256 0.931393 0.445199 0.194011
C1    C     C_R   0.533078 0.823906 0.320538 0.735295
C2    C     C_R   0.466922 0.176094 0.679462 0.735295
C3    C     C_R   0.466922 0.176094 0.820538 0.735296
C4    C     C_R   0.533078 0.823906 0.179462 0.735295
C5    C     C_R   0.033078 0.676094 0.179462 0.735296
C6    C     C_R   0.966922 0.323906 0.820538 0.735295
C7    C     C_R   0.966922 0.323906 0.679462 0.735296
C8    C     C_R   0.033078 0.676094 0.320538 0.735296
H9    H     H_    0.806522 0.521131 0.516614 0.174106
H10   H     H_    0.193478 0.478868 0.483385 0.174105
H11   H     H_    0.193478 0.478868 0.016615 0.174106
H12   H     H_    0.806522 0.521132 0.983385 0.174106
H13   H     H_    0.306522 0.978868 0.983385 0.174106
H14   H     H_    0.693478 0.021132 0.016615 0.174105
H15   H     H_    0.693478 0.021132 0.483385 0.174104
H16   H     H_    0.306522 0.978869 0.516615 0.174105
H17   H     H_    0.665774 0.359031 0.622722 0.213994
H18   H     H_    0.334226 0.640968 0.377278 0.213994
H19   H     H_    0.334226 0.640969 0.122722 0.213994
H20   H     H_    0.665774 0.359032 0.877278 0.213994
H21   H     H_    0.165774 0.140969 0.877278 0.213993
H22   H     H_    0.834226 0.859031 0.122722 0.213993
H23   H     H_    0.834226 0.859031 0.377278 0.213993
H24   H     H_    0.165774 0.140969 0.622721 0.213994
O17   O     O_3   0.528130 0.713200 0.250000 -0.363200
O18   O     O_3   0.471870 0.286800 0.750000 -0.363200
O19   O     O_3   0.028130 0.786800 0.250000 -0.363201
O20   O     O_3   0.971870 0.213200 0.750000 -0.363200
V1    V     V_3+5 0.253280 0.756820 0.250000 1.596580
V2    V     V_3+5 0.746720 0.243180 0.750000 1.596581
V3    V     V_3+5 0.753280 0.743180 0.250000 1.596581
V4    V     V_3+5 0.246720 0.256820 0.750000 1.596581
C9    C     C_R   0.039146 0.631246 0.361410 -0.235917
C10   C     C_R   0.960854 0.368754 0.638590 -0.235920
C11   C     C_R   0.960854 0.368754 0.861410 -0.235917
C12   C     C_R   0.039146 0.631246 0.138590 -0.235919
C13   C     C_R   0.539146 0.868754 0.138590 -0.235917
C14   C     C_R   0.460854 0.131246 0.861410 -0.235918
C15   C     C_R   0.460854 0.131246 0.638590 -0.235917
C16   C     C_R   0.539146 0.868754 0.361410 -0.235915
C17   C     C_R   0.877324 0.600370 0.375251 0.534400
C18   C     C_R   0.122676 0.399630 0.624748 0.534406
C19   C     C_R   0.122676 0.399630 0.875251 0.534401
C20   C     C_R   0.877324 0.600370 0.124748 0.534404
C21   C     C_R   0.377324 0.899630 0.124748 0.534399
C22   C     C_R   0.622676 0.100370 0.875252 0.534402
C23   C     C_R   0.622676 0.100371 0.624748 0.534400
C24   C     C_R   0.377324 0.899630 0.375252 0.534394
C25   C     C_R   0.883862 0.557989 0.413532 0.346114
C26   C     C_R   0.116139 0.442010 0.586467 0.346114
C27   C     C_R   0.116139 0.442011 0.913532 0.346114
C28   C     C_R   0.883861 0.557990 0.086468 0.346115
C29   C     C_R   0.383861 0.942011 0.086468 0.346115
C30   C     C_R   0.616139 0.057989 0.913532 0.346115
C31   C     C_R   0.616139 0.057990 0.586467 0.346116
C32   C     C_R   0.383862 0.942010 0.413532 0.346116
C33   C     C_R   0.051995 0.547280 0.440294 -0.070069
C34   C     C_R   0.948005 0.452719 0.559705 -0.070072
C35   C     C_R   0.948005 0.452720 0.940294 -0.070070
C36   C     C_R   0.051995 0.547280 0.059706 -0.070072
C37   C     C_R   0.551995 0.952720 0.059706 -0.070070
C38   C     C_R   0.448005 0.047280 0.940294 -0.070071
C39   C     C_R   0.448005 0.047281 0.559705 -0.070071
C40   C     C_R   0.551995 0.952720 0.440294 -0.070069
C41   C     C_R   0.213235 0.576982 0.425769 -0.194007
C42   C     C_R   0.786765 0.423017 0.574231 -0.194006
C43   C     C_R   0.786765 0.423018 0.925769 -0.194007
C44   C     C_R   0.213235 0.576982 0.074231 -0.194007
C45   C     C_R   0.713235 0.923018 0.074231 -0.194007
C46   C     C_R   0.286765 0.076983 0.925769 -0.194007
C47   C     C_R   0.286765 0.076983 0.574231 -0.194009
C48   C     C_R   0.713235 0.923017 0.425769 -0.194009
C49   C     C_R   0.207157 0.618474 0.386906 -0.209479
C50   C     C_R   0.792843 0.381526 0.613094 -0.209479
C51   C     C_R   0.792843 0.381526 0.886906 -0.209479
C52   C     C_R   0.207157 0.618474 0.113094 -0.209479
C53   C     C_R   0.707157 0.881526 0.113094 -0.209479
C54   C     C_R   0.292843 0.118474 0.886906 -0.209479
C55   C     C_R   0.292843 0.118474 0.613094 -0.209479
C56   C     C_R   0.707157 0.881526 0.386906 -0.209479
C57   C     C_2   0.066640 0.503954 0.481979 -0.120059
C58   C     C_2   0.933360 0.496045 0.518020 -0.120061
C59   C     C_2   0.933360 0.496046 0.981979 -0.120059
C60   C     C_2   0.066640 0.503954 0.018020 -0.120060
C61   C     C_2   0.566640 0.996046 0.018020 -0.120056
C62   C     C_2   0.433360 0.003954 0.981980 -0.120057
C63   C     C_2   0.433360 0.003954 0.518020 -0.120052
C64   C     C_2   0.566640 0.996046 0.481979 -0.120051
O21   O     O_3   0.277386 0.471479 0.574665 -0.550547
C65   C     C_3   0.282824 0.521785 0.604657 0.129352
H25   H     H_    0.288768 0.511531 0.646855 0.146900
H26   H     H_    0.159124 0.549171 0.596846 0.109085
C66   C     C_3   0.456426 0.555511 0.590466 -0.714314
H27   H     H_    0.456356 0.565307 0.548273 0.225069
H28   H     H_    0.459417 0.596111 0.612604 0.173847
H29   H     H_    0.583039 0.530509 0.600125 0.225539
O22   O     O_3   0.722615 0.528520 0.425334 -0.550548
C67   C     C_3   0.717174 0.478216 0.395340 0.129351
H30   H     H_    0.840880 0.450831 0.403146 0.109081
H31   H     H_    0.711213 0.488473 0.353143 0.146910
C68   C     C_3   0.543582 0.444486 0.409534 -0.714317
H32   H     H_    0.416962 0.469488 0.399881 0.225538
H33   H     H_    0.543671 0.434686 0.451726 0.225070
H34   H     H_    0.540586 0.403889 0.387393 0.173848
O23   O     O_3   0.722614 0.528521 0.074665 -0.550547
C69   C     C_3   0.717176 0.478215 0.104657 0.129351
H35   H     H_    0.711227 0.488470 0.146855 0.146903
H36   H     H_    0.840877 0.450830 0.096848 0.109084
C70   C     C_3   0.543576 0.444488 0.090466 -0.714314
H37   H     H_    0.543651 0.434691 0.048273 0.225069
H38   H     H_    0.540584 0.403889 0.112605 0.173847
H39   H     H_    0.416961 0.469490 0.100123 0.225539
O24   O     O_3   0.277385 0.471480 0.925334 -0.550548
C71   C     C_3   0.282826 0.521784 0.895341 0.129351
H40   H     H_    0.159120 0.549168 0.903146 0.109082
H41   H     H_    0.288786 0.511527 0.853143 0.146910
C72   C     C_3   0.456419 0.555514 0.909534 -0.714318
H42   H     H_    0.583038 0.530511 0.899881 0.225538
H43   H     H_    0.456330 0.565313 0.951726 0.225070
H44   H     H_    0.459414 0.596111 0.887393 0.173848
O25   O     O_3   0.777385 0.028520 0.925335 -0.550548
C73   C     C_3   0.782825 0.978216 0.895342 0.129352
H45   H     H_    0.788779 0.988472 0.853144 0.146907
H46   H     H_    0.659123 0.950831 0.903149 0.109083
C74   C     C_3   0.956422 0.944487 0.909534 -0.714320
H47   H     H_    0.956341 0.934689 0.951725 0.225071
H48   H     H_    0.959417 0.903890 0.887393 0.173848
H49   H     H_    0.083039 0.969490 0.899878 0.225539
O26   O     O_3   0.222615 0.971480 0.074665 -0.550548
C75   C     C_3   0.217174 0.021784 0.104660 0.129351
H50   H     H_    0.340879 0.049168 0.096855 0.109080
H51   H     H_    0.211212 0.011527 0.146857 0.146910
C76   C     C_3   0.043582 0.055514 0.090466 -0.714318
H52   H     H_    0.916962 0.030511 0.100119 0.225538
H53   H     H_    0.043672 0.065314 0.048274 0.225070
H54   H     H_    0.040585 0.096110 0.112607 0.173848
O27   O     O_3   0.222616 0.971480 0.425335 -0.550549
C77   C     C_3   0.217171 0.021783 0.395338 0.129351
H55   H     H_    0.211194 0.011523 0.353141 0.146918
H56   H     H_    0.340883 0.049166 0.403139 0.109076
C78   C     C_3   0.043588 0.055515 0.409535 -0.714312
H57   H     H_    0.043696 0.065319 0.451726 0.225070
H58   H     H_    0.040589 0.096111 0.387391 0.173847
H59   H     H_    0.916961 0.030514 0.399888 0.225534
O28   O     O_3   0.777385 0.028521 0.574665 -0.550548
C79   C     C_3   0.782827 0.978216 0.604659 0.129351
H60   H     H_    0.659121 0.950832 0.596854 0.109080
H61   H     H_    0.788788 0.988474 0.646857 0.146911
C80   C     C_3   0.956419 0.944487 0.590465 -0.714316
H62   H     H_    0.083039 0.969489 0.600118 0.225538
H63   H     H_    0.956329 0.934687 0.548274 0.225070
H64   H     H_    0.959415 0.903890 0.612607 0.173847
F1    F     F_    0.711855 0.609904 0.351202 -0.676265
F2    F     F_    0.288145 0.390096 0.648798 -0.676263
F3    F     F_    0.288145 0.390096 0.851202 -0.676265
F4    F     F_    0.711855 0.609904 0.148798 -0.676263
F5    F     F_    0.211855 0.890096 0.148798 -0.676266
F6    F     F_    0.788145 0.109904 0.851202 -0.676265
F7    F     F_    0.788145 0.109904 0.648798 -0.676266
F8    F     F_    0.211855 0.890096 0.351202 -0.676268

loop_
_geom_bond_atom_site_label_1
_geom_bond_atom_site_label_2
_ccdc_geom_bond_type
O14   V4    S    
C40   C48   A    
C78   H57   S    
C14   C54   A    
C22   C30   A    
C11   C51   A    
O28   C79   S    
C13   C53   A    
C63   C64   D    
C10   C50   A    
C27   C35   A    
C28   C36   A    
C72   H43   S    
C23   C31   A    
O4    C1    A    
C71   H40   S    
O9    C1    A    
C80   H62   S    
H4    C44   S    
C76   H52   S    
H5    C45   S    
O12   C4    A    
O8    C5    A    
C7    C10   S    
O13   C5    A    
C38   C62   S    
C26   C34   A    
O21   C65   S    
C37   C61   S    
C74   H48   S    
O25   C73   S    
H20   C51   S    
C74   H47   S    
C39   C63   S    
C79   H60   S    
C77   C78   S    
C17   C25   A    
C14   C22   A    
C28   O23   S    
H11   C60   S    
C38   C46   A    
C30   O25   S    
C29   O26   S    
C37   C45   A    
C10   C18   A    
O26   C75   S    
C47   C55   A    
C39   C47   A    
C70   H39   S    
C59   C60   D    
O2    C3    A    
C75   H51   S    
O12   V1    S    
O5    C8    A    
C33   C41   A    
C4    C13   S    
O10   C2    A    
C34   C58   S    
O6    C7    A    
C29   C37   A    
C76   H53   S    
O7    C6    A    
C31   C39   A    
C32   C40   A    
H12   C59   S    
H6    C46   S    
C8    C9    S    
O6    V2    S    
C25   C33   A    
O20   V2    S    
O27   C77   S    
H16   C63   S    
C73   H46   S    
C80   H63   S    
H22   C53   S    
C33   C57   S    
C73   H45   S    
H2    C42   S    
C23   F7    S    
H1    C41   S    
H19   C52   S    
C24   F8    S    
C75   C76   S    
C15   C55   A    
C27   O24   S    
C66   H29   S    
C45   C53   A    
O17   V3    S    
H24   C55   S    
C20   F4    S    
C77   H55   S    
O18   V4    S    
C41   C49   A    
O19   V1    S    
C1    C16   S    
C69   H36   S    
C2    C15   S    
C3    C14   S    
C68   H34   S    
C73   C74   S    
C18   F2    S    
O3    V4    S    
C11   C19   A    
C5    C12   S    
O11   C3    A    
C9    C49   A    
C6    C11   S    
H8    C48   S    
C22   F6    S    
O22   C67   S    
O1    C4    A    
C20   C28   A    
H14   C61   S    
C36   C44   A    
C75   H50   S    
H13   C62   S    
O11   V2    S    
C71   H41   S    
C74   H49   S    
H15   C64   S    
C15   C23   A    
C78   H59   S    
C25   O22   S    
C48   C56   A    
O4    V3    S    
C70   H37   S    
H18   C49   S    
C69   C70   S    
C19   C27   A    
C67   H31   S    
C44   C52   A    
C70   H38   S    
O23   C69   S    
O24   C71   S    
C80   H64   S    
C13   C21   A    
C16   C56   A    
H23   C56   S    
H17   C50   S    
H10   C57   S    
O3    C2    A    
H9    C58   S    
C9    C17   A    
C12   C52   A    
C71   C72   S    
O8    V1    S    
C65   H26   S    
O15   C7    A    
C72   H44   S    
C76   H54   S    
O16   C8    A    
C35   C43   A    
C57   C58   D    
C34   C42   A    
C12   C20   A    
O15   V4    S    
C31   O28   S    
C67   C68   S    
C66   H28   S    
C69   H35   S    
O5    V1    S    
O16   V3    S    
O14   C6    A    
C24   C32   A    
C77   H56   S    
O2    V4    S    
C72   H42   S    
C26   O21   S    
C21   C29   A    
C68   H32   S    
C17   F1    S    
C36   C60   S    
C35   C59   S    
C65   H25   S    
C16   C24   A    
O1    V3    S    
O10   V2    S    
C32   O27   S    
C65   C66   S    
H3    C43   S    
H21   C54   S    
C40   C64   S    
O9    V1    S    
C46   C54   A    
C78   H58   S    
C30   C38   A    
C61   C62   D    
C68   H33   S    
H7    C47   S    
C19   F3    S    
C79   H61   S    
O7    V2    S    
C43   C51   A    
C67   H30   S    
C66   H27   S    
C42   C50   A    
C21   F5    S    
O13   V3    S    
C79   C80   S    
C18   C26   A    
