data_mof_unit_32847.cif
_audit_creation_date              2012-12-10T21:11:39-0500
_audit_creation_method            fapswitch 2.2
_symmetry_space_group_name_H-M    P1
_symmetry_Int_Tables_number       1
_space_group_crystal_system       triclinic
_cell_length_a                    17.524952
_cell_length_b                    16.675314
_cell_length_c                    10.617708
_cell_angle_alpha                 90.001095
_cell_angle_beta                  89.929216
_cell_angle_gamma                 89.999817
_cell_volume                      3102.85373341

loop_
_atom_site_label
_atom_site_type_symbol
_atom_type_description
_atom_site_fract_x
_atom_site_fract_y
_atom_site_fract_z
_atom_type_partial_charge
C1    C     C_R   0.352945 0.500000 0.501224 0.867007
C2    C     C_R   0.454390 0.167674 0.412819 0.015126
C3    C     C_R   0.455842 0.747409 0.415849 -0.038982
C4    C     C_R   0.544203 0.252658 0.584167 -0.038944
C5    C     C_R   0.544203 0.747344 0.584166 -0.038955
C6    C     C_R   0.455841 0.252589 0.415850 -0.038994
C7    C     C_R   0.500073 0.875234 0.500065 0.057248
C8    C     C_R   0.500072 0.124766 0.500066 0.057248
C9    C     C_1   0.500097 0.963454 0.500104 -0.077120
C10   C     C_1   0.500096 0.036546 0.500104 -0.077119
C11   C     C_R   0.512312 0.499999 0.260101 0.902748
C12   C     C_R   0.647034 0.500000 0.501938 0.865915
C13   C     C_R   0.487571 0.500001 0.739830 0.902363
C14   C     C_R   0.542322 0.647597 0.110118 -0.127016
C15   C     C_R   0.457313 0.352429 0.889657 -0.126518
C16   C     C_R   0.457336 0.647579 0.889668 -0.126523
C17   C     C_R   0.542297 0.352393 0.110109 -0.127021
C18   C     C_R   0.522519 0.720084 0.053524 -0.186335
C19   C     C_R   0.477168 0.279927 0.946141 -0.186266
C20   C     C_R   0.477203 0.720077 0.946159 -0.186286
C21   C     C_R   0.522483 0.279911 0.053508 -0.186355
C22   C     C_R   0.482612 0.573654 0.940625 0.089932
C23   C     C_R   0.885841 0.500001 0.553370 0.168437
C24   C     C_R   0.516996 0.426337 0.059242 0.089830
C25   C     C_R   0.517008 0.573659 0.059247 0.089826
C26   C     C_R   0.482601 0.426349 0.940620 0.089927
C27   C     C_R   0.475668 0.500002 0.875747 -0.270148
C28   C     C_R   0.523997 0.499997 0.124121 -0.271734
C29   C     C_R   0.847266 0.572857 0.543993 -0.166591
C30   C     C_R   0.152570 0.427146 0.542091 -0.166189
C31   C     C_R   0.152569 0.572856 0.542092 -0.166190
C32   C     C_R   0.847266 0.427144 0.543996 -0.166591
C33   C     C_R   0.769001 0.572980 0.525122 -0.207507
C34   C     C_R   0.114001 0.500001 0.551710 0.168293
C35   C     C_R   0.230865 0.427023 0.523239 -0.208767
C36   C     C_R   0.230865 0.572978 0.523240 -0.208766
C37   C     C_R   0.769001 0.427021 0.525125 -0.207507
C38   C     C_R   0.729519 0.500000 0.515343 -0.033784
C39   C     C_R   0.270394 0.500000 0.513840 -0.037185
C40   C     C_3   0.405732 0.878791 0.318832 -0.420604
C41   C     C_3   0.355859 0.827977 0.230629 -0.366549
C42   C     C_3   0.310296 0.881011 0.140903 -0.880917
C43   C     C_3   0.594467 0.121361 0.681232 -0.420508
C44   C     C_3   0.644362 0.172258 0.769289 -0.366562
C45   C     C_1   0.966064 0.500001 0.561320 -0.072722
C46   C     C_3   0.690056 0.119292 0.858934 -0.881012
C47   C     C_3   0.594468 0.878642 0.681231 -0.420510
C48   C     C_3   0.644371 0.827748 0.769276 -0.366562
C49   C     C_3   0.690068 0.880715 0.858917 -0.881011
C50   C     C_3   0.405728 0.121205 0.318838 -0.420607
C51   C     C_3   0.355846 0.172018 0.230647 -0.366550
C52   C     C_3   0.310276 0.118982 0.140931 -0.880915
C53   C     C_1   0.033807 0.500001 0.560774 -0.072931
C54   C     C_R   0.454392 0.832324 0.412817 0.015123
C55   C     C_R   0.545730 0.167747 0.587260 0.015125
C56   C     C_R   0.545731 0.832255 0.587259 0.015127
H1    H     H_    0.540737 0.223721 0.094727 0.145534
H2    H     H_    0.122062 0.370718 0.547858 0.131233
H3    H     H_    0.122062 0.629283 0.547860 0.131233
H4    H     H_    0.877767 0.370715 0.549716 0.131226
H5    H     H_    0.739544 0.629939 0.518566 0.151829
H6    H     H_    0.260325 0.370067 0.516585 0.152938
H7    H     H_    0.260325 0.629934 0.516587 0.152938
H8    H     H_    0.739545 0.370061 0.518572 0.151829
H9    H     H_    0.422024 0.712185 0.351453 0.144448
H10   H     H_    0.578005 0.287935 0.648515 0.144275
H11   H     H_    0.578005 0.712068 0.648515 0.144275
H12   H     H_    0.459000 0.776258 0.904848 0.145463
H13   H     H_    0.422023 0.287812 0.351454 0.144448
H14   H     H_    0.271764 0.921304 0.194770 0.260254
H15   H     H_    0.349404 0.917716 0.082010 0.257558
H16   H     H_    0.275164 0.842825 0.077910 0.251777
H17   H     H_    0.392332 0.787479 0.173503 0.233976
H18   H     H_    0.315261 0.791385 0.287033 0.220923
H19   H     H_    0.367590 0.919682 0.372620 0.209593
H20   H     H_    0.444402 0.916344 0.260258 0.205609
H21   H     H_    0.651036 0.082573 0.917963 0.257660
H22   H     H_    0.728563 0.079005 0.804999 0.260123
H23   H     H_    0.458957 0.223750 0.904824 0.145462
H24   H     H_    0.725225 0.157529 0.921795 0.251792
H25   H     H_    0.684876 0.208888 0.712774 0.220277
H26   H     H_    0.607891 0.212726 0.826480 0.234088
H27   H     H_    0.555853 0.083811 0.739910 0.205538
H28   H     H_    0.632603 0.080467 0.627437 0.209646
H29   H     H_    0.728569 0.921006 0.804979 0.260122
H30   H     H_    0.651049 0.917431 0.917956 0.257661
H31   H     H_    0.725243 0.842480 0.921769 0.251791
H32   H     H_    0.607907 0.787277 0.826469 0.234082
H33   H     H_    0.684884 0.791121 0.712750 0.220279
H34   H     H_    0.540783 0.776269 0.094747 0.145534
H35   H     H_    0.632598 0.919541 0.627437 0.209649
H36   H     H_    0.555853 0.916187 0.739918 0.205534
H37   H     H_    0.349379 0.082276 0.082029 0.257562
H38   H     H_    0.271749 0.078688 0.194808 0.260250
H39   H     H_    0.275137 0.157166 0.077947 0.251776
H40   H     H_    0.315252 0.208610 0.287062 0.220925
H41   H     H_    0.392312 0.212515 0.173513 0.233969
H42   H     H_    0.444397 0.083656 0.260254 0.205604
H43   H     H_    0.367592 0.080311 0.372628 0.209597
H44   H     H_    0.578154 0.649834 0.192984 0.151424
H45   H     H_    0.421513 0.350231 0.806745 0.151459
H46   H     H_    0.421535 0.649786 0.806758 0.151464
H47   H     H_    0.578129 0.350148 0.192974 0.151432
H48   H     H_    0.877766 0.629286 0.549710 0.131226
N1    N     N_R   0.500000 0.707230 0.500000 -0.120136
N2    N     N_R   0.500000 0.292770 0.500000 -0.120136
O1    O     O_R   0.389110 0.566570 0.499990 -0.626453
O2    O     O_R   0.610890 0.433430 0.500010 -0.626585
O3    O     O_R   0.610890 0.566570 0.500010 -0.626586
O4    O     O_R   0.389110 0.433430 0.499990 -0.626455
O5    O     O_R   0.499990 0.566540 0.316770 -0.619102
O6    O     O_R   0.500010 0.433460 0.683230 -0.619791
O7    O     O_R   0.500010 0.566540 0.683230 -0.619793
O8    O     O_R   0.499990 0.433460 0.316770 -0.619106
Zn1   Zn    Zn3+2 0.500000 0.588860 0.500000 0.924471
Zn2   Zn    Zn3+2 0.500000 0.411140 0.500000 0.924470

loop_
_geom_bond_atom_site_label_1
_geom_bond_atom_site_label_2
_ccdc_geom_bond_type
C51   H41   S    
C6    H13   S    
C46   H24   S    
C23   C45   S    
C43   H27   S    
C47   H36   S    
C49   H31   S    
C5    C56   A    
C5    H11   S    
C5    N1    A    
C3    N1    A    
C25   C28   A    
C15   C19   A    
C50   H43   S    
C30   C35   A    
C23   C29   A    
C19   C21   A    
C24   C26   A    
C13   O6    A    
C44   H26   S    
C3    C54   A    
C29   C33   A    
C42   H14   S    
C52   H39   S    
C41   C42   S    
C31   H3    S    
C11   O8    A    
C14   C18   A    
C2    C50   S    
C41   H18   S    
C22   C25   A    
C48   H32   S    
C52   H38   S    
C36   H7    S    
C9    C10   T    
C51   H40   S    
C45   C53   T    
C43   H28   S    
C2    C6    A    
C7    C56   A    
C8    C55   A    
C12   O3    A    
C44   C46   S    
C3    H9    S    
C50   H42   S    
C17   C24   A    
C30   C34   A    
C11   O5    A    
C51   C52   S    
C18   H34   S    
C49   H29   S    
C44   H25   S    
C12   O2    A    
C1    C39   S    
C15   C26   A    
C4    N2    A    
C17   C21   A    
C40   H20   S    
C29   H48   S    
N2    Zn2   S    
C35   C39   A    
C43   C44   S    
C21   H1    S    
C37   C38   A    
C1    O4    A    
C47   C48   S    
C16   C20   A    
C42   H16   S    
C50   C51   S    
C6    N2    A    
C31   C34   A    
C52   H37   S    
C32   C37   A    
C15   H45   S    
C19   H23   S    
O1    Zn1   S    
C1    O1    A    
C43   C55   S    
C40   C41   S    
C40   C54   S    
C22   C27   A    
C4    C55   A    
C26   C27   A    
C32   H4    S    
O4    Zn2   S    
O6    Zn2   S    
C37   H8    S    
C46   H22   S    
C16   H46   S    
C7    C9    S    
C48   C49   S    
C16   C22   A    
C47   H35   S    
C49   H30   S    
C20   H12   S    
C36   C39   A    
C2    C8    A    
C24   C28   A    
C46   H21   S    
O8    Zn2   S    
C14   H44   S    
C33   C38   A    
C40   H19   S    
N1    Zn1   S    
C48   H33   S    
C23   C32   A    
O2    Zn2   S    
C17   H47   S    
C4    H10   S    
C11   C28   S    
C33   H5    S    
C30   H2    S    
C42   H15   S    
C35   H6    S    
C18   C20   A    
C14   C25   A    
C12   C38   S    
O3    Zn1   S    
C41   H17   S    
C34   C53   S    
C8    C10   S    
C31   C36   A    
C13   C27   S    
O5    Zn1   S    
C7    C54   A    
C13   O7    A    
C47   C56   S    
O7    Zn1   S    
