data_mof_unit_14056.cif
_audit_creation_date              2012-12-11T21:12:35-0500
_audit_creation_method            fapswitch 2.2
_symmetry_space_group_name_H-M    P1
_symmetry_Int_Tables_number       1
_space_group_crystal_system       triclinic
_cell_length_a                    8.213349
_cell_length_b                    18.81096
_cell_length_c                    26.985071
_cell_angle_alpha                 99.561039
_cell_angle_beta                  92.748823
_cell_angle_gamma                 88.319762
_cell_volume                      4105.61021934

loop_
_atom_site_label
_atom_site_type_symbol
_atom_type_description
_atom_site_fract_x
_atom_site_fract_y
_atom_site_fract_z
_atom_type_partial_charge
Ba1   Ba    Ba6+2 0.160810 0.465630 0.521640 1.650876
Ba2   Ba    Ba6+2 0.649380 0.534380 0.478400 1.646040
C1    C     C_3   0.429711 0.283226 0.700955 -0.360853
C2    C     C_R   0.067074 0.095860 0.449700 -0.092836
C3    C     C_R   0.204309 0.951866 0.456819 -0.103052
C4    C     C_3   0.964009 0.272361 0.627654 0.370883
C5    C     C_R   0.054336 0.976713 0.477692 0.019408
C6    C     C_R   0.260618 0.881384 0.456264 -0.092306
C7    C     C_R   0.170695 0.831958 0.476556 -0.029594
C8    C     C_R   0.024178 0.855901 0.500356 0.003351
C9    C     C_R   0.966447 0.928726 0.501437 0.023510
C10   C     C_R   0.223194 0.759222 0.473926 -0.008184
C11   C     C_R   0.126612 0.710667 0.492492 -0.297176
C12   C     C_3   0.436492 0.307129 0.650071 0.342533
C13   C     C_R   0.986689 0.733403 0.518392 0.043367
C14   C     C_R   0.936683 0.807282 0.523662 -0.039365
C15   C     C_R   0.847967 0.072518 0.501661 0.024635
C16   C     C_3   0.993171 0.200934 0.646269 -0.363018
C17   C     C_R   0.790268 0.145380 0.502672 -0.002391
C18   C     C_R   0.877008 0.193786 0.478943 -0.038522
C19   C     C_R   0.009848 0.166314 0.450544 -0.028737
C20   C     C_R   0.803055 0.834352 0.551822 -0.017377
C21   C     C_R   0.746138 0.904940 0.552871 -0.087121
C22   C     C_R   0.821639 0.952894 0.526335 0.009785
C23   C     C_3   0.475334 0.314144 0.399292 0.322159
C24   C     C_R   0.759998 0.024510 0.525379 0.018798
C25   C     C_R   0.610034 0.049401 0.546206 -0.100749
C26   C     C_R   0.643690 0.169319 0.526369 -0.034706
C27   C     C_R   0.553693 0.119859 0.546642 -0.092172
C28   C     C_3   0.842417 0.622240 0.631980 0.276374
C29   C     C_R   0.590435 0.241883 0.528546 -0.007807
C30   C     C_R   0.685988 0.290376 0.509368 -0.300542
C31   C     C_R   0.826464 0.267675 0.483704 0.051706
C32   C     C_R   0.302619 0.448525 0.175007 0.588666
C33   C     C_R   0.160126 0.561519 0.174463 0.596185
C34   C     C_3   0.488342 0.232829 0.383536 -0.378854
C35   C     C_2   0.023932 0.520829 0.269065 -0.074665
C36   C     C_3   0.988891 0.516185 0.323279 -0.060369
C37   C     C_1   0.277033 0.489359 0.336281 0.011757
C38   C     C_2   0.311571 0.492798 0.289448 -0.080036
C39   C     C_2   0.177599 0.507912 0.252413 0.203549
C40   C     C_3   0.847965 0.639719 0.689391 -0.211366
C41   C     C_R   0.296186 0.503990 0.099151 -0.083912
C42   C     C_R   0.348642 0.447706 0.125185 -0.018511
C43   C     C_R   0.445536 0.391284 0.100992 -0.063480
C44   C     C_R   0.199687 0.560715 0.123893 -0.091191
C45   C     C_3   0.852635 0.722562 0.376666 0.342648
C46   C     C_2   0.144220 0.520657 0.355808 -0.290376
C47   C     C_2   0.647117 0.471198 0.636956 -0.301334
C48   C     C_R   0.493187 0.446812 0.975268 0.022465
C49   C     C_R   0.311990 0.552461 0.969008 0.027198
C50   C     C_R   0.424818 0.498707 0.947087 0.049434
C51   C     C_R   0.609187 0.396152 0.952340 -0.105168
C52   C     C_3   0.973777 0.363923 0.363784 0.288011
C53   C     C_R   0.646891 0.393010 0.902437 -0.056261
C54   C     C_R   0.575322 0.441849 0.873506 -0.022244
C55   C     C_R   0.467596 0.495827 0.895978 -0.080348
C56   C     C_3   0.871412 0.796183 0.361824 -0.374138
C57   C     C_R   0.400657 0.546101 0.867093 -0.034799
C58   C     C_R   0.450793 0.544820 0.817433 0.616135
C59   C     C_R   0.608456 0.436766 0.822269 0.570563
C60   C     C_2   0.737745 0.456259 0.724700 -0.086587
C61   C     C_3   0.750166 0.428104 0.669373 -0.056993
C62   C     C_1   0.517323 0.507476 0.655749 0.039521
C63   C     C_2   0.473165 0.507673 0.702674 -0.067320
C64   C     C_3   0.980551 0.334190 0.307350 0.272764
C65   C     C_2   0.592989 0.484923 0.741599 0.195210
C66   C     C_R   0.443191 0.446583 0.024998 0.040197
C67   C     C_3   0.332361 0.693812 0.351930 0.295042
C68   C     C_R   0.339427 0.503118 0.048301 0.000978
C69   C     C_R   0.278598 0.558469 0.021370 -0.046655
C70   C     C_R   0.492141 0.390695 0.052209 -0.097932
C71   C     C_R   0.147589 0.616626 0.098210 -0.092495
C72   C     C_R   0.233209 0.596431 0.936786 -0.097361
C73   C     C_R   0.281115 0.595354 0.887846 -0.082849
C74   C     C_R   0.189793 0.617809 0.048837 0.388789
C75   C     C_3   0.333879 0.686525 0.593428 0.312126
C76   C     C_3   0.340925 0.767735 0.610198 -0.366539
C77   C     C_2   0.718089 0.694190 0.707972 0.896380
C78   C     C_3   0.335504 0.712598 0.299406 -0.355018
C79   C     C_3   0.068385 0.213729 0.302693 0.337446
C80   C     C_3   0.182178 0.158797 0.272583 -0.181624
C81   C     C_3   0.155386 0.082778 0.282985 -0.527223
C82   C     C_3   0.264041 0.729245 0.034064 0.251865
C83   C     C_3   0.244498 0.784789 0.081931 -0.196958
C84   C     C_3   0.347456 0.851172 0.081879 -0.478943
C85   C     C_R   0.992403 0.048219 0.476612 0.013727
H1    H     H_    0.374470 0.360783 0.652152 0.072319
H2    H     H_    0.301047 0.277006 0.710324 0.150365
H3    H     H_    0.267612 0.784011 0.643940 0.136932
H4    H     H_    0.291655 0.796326 0.579833 0.048642
H5    H     H_    0.469160 0.783784 0.619568 0.146101
H6    H     H_    0.566414 0.311050 0.641823 -0.055190
H7    H     H_    0.486904 0.324404 0.730430 0.125306
H8    H     H_    0.599621 0.334777 0.409105 0.016049
H9    H     H_    0.399992 0.325676 0.432906 0.052460
H10   H     H_    0.559193 0.219446 0.349029 0.122990
H11   H     H_    0.550802 0.207961 0.413998 0.051054
H12   H     H_    0.830616 0.589594 0.704778 0.018492
H13   H     H_    0.364835 0.210059 0.376172 0.107954
H14   H     H_    0.496837 0.230858 0.700527 0.117463
H15   H     H_    0.930318 0.157405 0.620121 0.072922
H16   H     H_    0.731244 0.720590 0.392023 0.119296
H17   H     H_    0.947368 0.715904 0.405999 -0.019394
H18   H     H_    0.854719 0.839157 0.395054 0.081519
H19   H     H_    0.995570 0.800339 0.347614 0.117072
H20   H     H_    0.777721 0.804438 0.331749 0.135419
H21   H     H_    0.204354 0.698398 0.363833 -0.014190
H22   H     H_    0.377702 0.637364 0.350288 0.072093
H23   H     H_    0.969726 0.660651 0.703406 0.086832
H24   H     H_    0.257192 0.675127 0.273270 0.135955
H25   H     H_    0.462082 0.707580 0.286208 0.133648
H26   H     H_    0.015437 0.268245 0.589877 0.083827
H27   H     H_    0.289023 0.768638 0.299508 0.118739
H28   H     H_    0.165036 0.654598 0.488682 0.068603
H29   H     H_    0.376044 0.866391 0.439465 0.113326
H30   H     H_    0.073525 0.198875 0.428830 0.090244
H31   H     H_    0.739564 0.801478 0.573495 0.108873
H32   H     H_    0.437996 0.134708 0.563258 0.113125
H33   H     H_    0.645227 0.346017 0.511891 0.073441
H34   H     H_    0.096731 0.380014 0.379166 0.021079
H35   H     H_    0.283877 0.986059 0.441208 0.071404
H36   H     H_    0.169614 0.080126 0.426625 0.054139
H37   H     H_    0.643225 0.920520 0.575816 0.066175
H38   H     H_    0.829993 0.281291 0.624101 -0.075145
H39   H     H_    0.530405 0.015255 0.561824 0.073110
H40   H     H_    0.436493 0.485343 0.277894 0.113784
H41   H     H_    0.487002 0.346865 0.119927 0.120351
H42   H     H_    0.836384 0.443858 0.750256 0.131255
H43   H     H_    0.734531 0.352118 0.886690 0.122594
H44   H     H_    0.675268 0.358153 0.972110 0.069454
H45   H     H_    0.888642 0.411264 0.369280 -0.018890
H46   H     H_    0.563756 0.344073 0.036506 0.067287
H47   H     H_    0.922682 0.528373 0.242941 0.107056
H48   H     H_    0.074471 0.661306 0.116802 0.135638
H49   H     H_    0.128389 0.630351 0.947168 0.147102
H50   H     H_    0.125530 0.187611 0.648234 0.149056
H51   H     H_    0.219205 0.631982 0.865519 0.123289
H52   H     H_    0.348381 0.521272 0.712288 0.147018
H53   H     H_    0.145822 0.547400 0.394751 0.072147
H54   H     H_    0.657177 0.457080 0.596590 0.088083
H55   H     H_    0.944269 0.204065 0.684364 0.122701
H56   H     H_    0.001623 0.379085 0.287041 0.006982
H57   H     H_    0.718102 0.606654 0.617768 -0.016062
H58   H     H_    0.928249 0.576405 0.620797 0.070985
H59   H     H_    0.513959 0.715504 0.746886 0.332698
H60   H     H_    0.940281 0.200400 0.289249 0.015565
H61   H     H_    0.083683 0.208541 0.343033 0.057964
H62   H     H_    0.159014 0.159733 0.231753 0.128959
H63   H     H_    0.311465 0.173187 0.282530 0.139870
H64   H     H_    0.187302 0.079719 0.323048 0.131339
H65   H     H_    0.234096 0.043659 0.258996 0.151275
H66   H     H_    0.026136 0.067776 0.274405 0.141098
H67   H     H_    0.860055 0.312501 0.292140 0.011333
H68   H     H_    0.251240 0.757927 0.001043 0.083752
H69   H     H_    0.389782 0.704620 0.033545 0.028521
H70   H     H_    0.113933 0.802032 0.085051 0.141546
H71   H     H_    0.282992 0.759575 0.115342 0.107861
H72   H     H_    0.478825 0.835570 0.078895 0.140570
H73   H     H_    0.332173 0.889694 0.117338 0.143303
H74   H     H_    0.307212 0.878969 0.049771 0.138015
H75   H     H_    0.205583 0.671339 0.585027 0.000692
H76   H     H_    0.405604 0.671871 0.559225 0.058416
N1    N     N_R   0.212411 0.505891 0.199672 -0.425284
N2    N     N_R   0.552201 0.489635 0.794639 -0.423154
O1    O     O_2   0.106080 0.324280 0.466820 -0.467765
O2    O     O_2   0.660375 0.566377 0.331501 -0.498583
O3    O     O_3   0.870030 0.668831 0.334381 -0.597054
O4    O     O_3   0.859130 0.413620 0.470620 -0.479235
O5    O     O_3   0.459240 0.537930 0.559910 -0.493237
O6    O     O_2   0.583120 0.462390 0.379940 -0.473217
O7    O     O_3   0.403855 0.345134 0.359370 -0.599721
O8    O     O_2   0.565771 0.757183 0.475673 -0.499977
O9    O     O_3   0.433170 0.741015 0.384732 -0.611500
O10   O     O_2   0.341723 0.397519 0.196236 -0.588349
O11   O     O_2   0.684533 0.383873 0.802095 -0.617210
O12   O     O_3   0.397510 0.652678 0.632644 -0.610072
O13   O     O_2   0.080955 0.612365 0.196207 -0.603030
O14   O     O_2   0.404788 0.593496 0.794934 -0.569543
O15   O     O_3   0.376230 0.370290 0.556910 -0.484627
O16   O     O_2   0.251103 0.242980 0.520203 -0.489676
O17   O     O_3   0.915061 0.310419 0.387503 -0.675799
O18   O     O_3   0.357434 0.256572 0.613456 -0.604691
O19   O     O_2   0.227190 0.537650 0.620070 -0.466917
O20   O     O_3   0.971110 0.406970 0.583250 -0.482726
O21   O     O_2   0.080784 0.467489 0.674957 -0.497955
O22   O     O_2   0.719932 0.755193 0.697916 -0.592921
O23   O     O_3   0.040136 0.327921 0.661499 -0.587358
O24   O     O_R   0.596159 0.674886 0.737244 -0.721615
O25   O     O_3   0.111674 0.283982 0.296752 -0.615637
O26   O     O_3   0.138161 0.678069 0.028506 -0.669377
O27   O     O_2   0.704230 0.675760 0.533200 -0.469707
O28   O     O_3   0.951180 0.586390 0.529420 -0.490784
O29   O     O_3   0.434080 0.629720 0.443130 -0.474411
O30   O     O_3   0.887689 0.683158 0.612913 -0.621765
O31   O     O_3   0.351080 0.462080 0.440130 -0.479619
O32   O     O_3   0.839200 0.593040 0.416790 -0.483924
P1    P     P_3+3 0.929380 0.335110 0.452880 0.973426
P2    P     P_3+3 0.398530 0.559060 0.613740 1.009828
P3    P     P_3+3 0.961636 0.410275 0.647976 0.953380
P4    P     P_3+3 0.880940 0.664900 0.547160 0.988085
P5    P     P_3+3 0.836880 0.584435 0.351188 0.973333
P6    P     P_3+3 0.394029 0.277216 0.554194 0.937235
P7    P     P_3+3 0.400422 0.439035 0.377087 0.974418
P8    P     P_3+3 0.414911 0.722739 0.445645 0.925056

loop_
_geom_bond_atom_site_label_1
_geom_bond_atom_site_label_2
_ccdc_geom_bond_type
C54   C59   A    
C75   H76   S    
C53   C54   A    
C47   C61   S    
C25   C27   A    
Ba2   O32   S    
Ba1   O5    S    
C17   C18   A    
O17   P1    S    
C49   C72   A    
O15   P6    S    
C79   C80   S    
C70   H46   S    
C28   H57   S    
C2    C85   A    
Ba1   P2    S    
C83   C84   S    
C76   H3    S    
C58   O14   D    
C5    C9    A    
Ba2   P4    S    
C24   C25   A    
C60   C61   S    
C77   O22   D    
C60   C65   D    
C15   C24   A    
Ba1   O1    S    
C26   C27   A    
Ba2   O27   S    
Ba1   Ba2   S    
C32   N1    Am   
C25   H39   S    
C69   C74   A    
Ba1   O15   S    
C55   C57   A    
C26   C29   A    
O23   P3    S    
C43   H41   S    
C13   C14   A    
C4    O23   S    
C9    C22   A    
C10   P8    S    
O28   P4    S    
C61   P3    S    
C82   O26   S    
C56   H20   S    
C16   H15   S    
O2    P5    D    
O6    P7    D    
O7    P7    S    
C19   H30   S    
C32   O10   D    
C34   H11   S    
C83   H71   S    
C67   H22   S    
Ba1   O19   S    
C5    C85   A    
C71   H48   S    
C6    C7    A    
C79   H60   S    
C47   H54   S    
O9    P8    S    
C48   C50   A    
O27   P4    D    
C52   O17   S    
H59   O24   S    
C34   H10   S    
C51   H44   S    
O31   P7    S    
C7    C8    A    
C12   H6    S    
C36   C46   S    
Ba2   O6    S    
O19   P2    D    
Ba1   P1    S    
C57   C58   A    
C47   C62   D    
C15   C85   A    
C37   P7    S    
C43   C70   A    
C60   H42   S    
O21   P3    D    
O16   P6    D    
C59   O11   D    
C49   C69   A    
C30   H33   S    
C48   C66   A    
O5    P2    S    
C13   P4    S    
C67   H21   S    
C12   O18   S    
C81   H64   S    
C51   C53   A    
C4    C16   S    
C48   C51   A    
C45   H16   S    
C72   C73   A    
C46   H53   S    
C77   O24   S    
C49   C50   A    
C16   H55   S    
Ba1   O31   S    
C32   C42   A    
C82   C83   S    
C8    C9    A    
C37   C38   D    
C3    C5    A    
C64   H56   S    
Ba2   O4    S    
C63   C65   S    
C75   C76   S    
C38   H40   S    
C3    H35   S    
C75   O12   S    
C2    H36   S    
C72   H49   S    
C56   H19   S    
Ba2   O31   S    
C16   H50   S    
Ba1   O28   S    
C41   C42   A    
O1    P1    D    
C4    H26   S    
C35   C36   S    
C27   H32   S    
C54   C55   A    
C28   O30   S    
C66   C70   A    
C79   H61   S    
C78   H25   S    
O32   P5    S    
C34   H13   S    
C84   H74   S    
C11   H28   S    
C10   C11   A    
C2    C19   A    
C17   C26   A    
C80   H63   S    
C1    C12   S    
Ba2   O5    S    
C52   C64   S    
C18   C31   A    
C23   O7    S    
C38   C39   S    
C52   H34   S    
C78   H27   S    
C1    H14   S    
C23   H8    S    
C41   C68   A    
C11   C13   A    
O12   P2    S    
C71   C74   A    
C62   P2    S    
C67   O9    S    
C57   C73   A    
C68   C69   A    
C42   C43   A    
C28   H58   S    
C64   H67   S    
C81   H65   S    
C84   H72   S    
C75   H75   S    
C20   H31   S    
O29   P8    S    
C14   C20   A    
C45   H17   S    
C21   C22   A    
C20   C21   A    
C29   P6    S    
C29   C30   A    
C58   N2    Am   
C4    H38   S    
C22   C24   A    
C73   H51   S    
C3    C6    A    
O8    P8    D    
C21   H37   S    
O30   P4    S    
Ba1   O20   S    
C76   H4    S    
C52   H45   S    
C33   N1    Am   
C1    H2    S    
Ba2   O28   S    
C76   H5    S    
C30   C31   A    
C56   H18   S    
C40   H23   S    
O18   P6    S    
C74   O26   S    
C8    C14   A    
C40   H12   S    
C62   C63   D    
C45   C56   S    
C45   O3    S    
C82   H69   S    
C65   N2    S    
C81   H66   S    
C41   C44   A    
C31   P1    S    
C33   O13   D    
C64   O25   S    
C78   H24   S    
Ba1   O4    S    
C15   C17   A    
O3    P5    S    
C1    H7    S    
C59   N2    Am   
O20   P3    S    
C35   C39   D    
C7    C10   A    
C79   O25   S    
C80   H62   S    
C50   C55   A    
C6    H29   S    
C23   C34   S    
C12   H1    S    
C63   H52   S    
C40   C77   S    
C18   C19   A    
C23   H9    S    
C66   C68   A    
C80   C81   S    
C36   P5    S    
C39   N1    S    
C82   H68   S    
C83   H70   S    
C35   H47   S    
C28   C40   S    
C67   C78   S    
C53   H43   S    
Ba2   O29   S    
C33   C44   A    
C84   H73   S    
C44   C71   A    
C37   C46   D    
O4    P1    S    
