data_mof_unit_34910.cif
_audit_creation_date              2012-12-10T19:46:23-0500
_audit_creation_method            fapswitch 2.2
_symmetry_space_group_name_H-M    P1
_symmetry_Int_Tables_number       1
_space_group_crystal_system       triclinic
_cell_length_a                    10.876145
_cell_length_b                    10.866184
_cell_length_c                    10.413453
_cell_angle_alpha                 91.560792
_cell_angle_beta                  90.896842
_cell_angle_gamma                 89.877836
_cell_volume                      1230.07561274

loop_
_atom_site_label
_atom_site_type_symbol
_atom_type_description
_atom_site_fract_x
_atom_site_fract_y
_atom_site_fract_z
_atom_type_partial_charge
C1    C     C_R   0.501563 0.261416 0.498127 0.805547
C2    C     C_R   0.498416 0.738583 0.501868 0.805481
C3    C     C_R   0.872062 0.503507 0.503738 -0.086864
C4    C     C_R   0.127939 0.496493 0.496277 -0.086879
C5    C     C_R   0.941506 0.520825 0.618781 -0.000863
C6    C     C_R   0.058498 0.479117 0.381251 -0.001066
C7    C     C_R   0.532197 0.180136 0.051370 -0.163107
C8    C     C_R   0.467369 0.820146 0.948693 -0.163014
C9    C     C_R   0.493046 0.143634 0.171592 -0.077329
C10   C     C_R   0.506660 0.856677 0.828533 -0.077749
C11   C     C_R   0.579172 0.109111 0.265399 0.101315
C12   C     C_R   0.420625 0.890869 0.734500 0.101452
C13   C     C_R   0.704847 0.109006 0.237012 -0.218496
C14   C     C_R   0.294886 0.890603 0.762583 -0.218251
C15   C     C_R   0.745017 0.143533 0.115332 0.020042
C16   C     C_R   0.254565 0.856057 0.884199 0.019954
C17   C     C_R   0.657431 0.180132 0.023120 -0.177002
C18   C     C_R   0.342072 0.819805 0.976652 -0.177229
C19   C     C_R   0.536025 0.929838 0.393229 -0.228037
C20   C     C_R   0.463905 0.070158 0.606741 -0.228012
C21   C     C_R   0.499146 0.872051 0.504716 -0.085489
C22   C     C_R   0.500791 0.127948 0.495258 -0.085506
C23   C     C_R   0.261431 0.497612 0.498584 0.802332
C24   C     C_R   0.738570 0.502383 0.501419 0.802269
C25   C     C_R   0.462743 0.943067 0.613220 0.006008
C26   C     C_R   0.537157 0.056929 0.386734 0.006051
C27   C     C_1   0.500006 0.500028 0.071907 0.081276
C28   C     C_1   0.499996 0.499978 0.928093 0.081159
C29   C     C_R   0.155552 0.520548 0.037989 -0.108368
C30   C     C_R   0.845428 0.479073 0.962304 -0.108122
C31   C     C_R   0.112903 0.546360 0.161875 -0.125704
C32   C     C_R   0.888000 0.453447 0.838357 -0.126215
C33   C     C_R   0.112597 0.454046 0.253614 0.098497
C34   C     C_R   0.887428 0.545656 0.746481 0.098579
C35   C     C_R   0.154769 0.335530 0.219811 -0.060690
C36   C     C_R   0.844462 0.663897 0.780232 -0.058858
C37   C     C_R   0.195999 0.309786 0.095310 -0.127723
C38   C     C_R   0.803320 0.689468 0.904801 -0.127843
C39   C     C_R   0.196452 0.402172 0.004552 -0.153429
C40   C     C_R   0.803740 0.597180 0.995683 -0.153209
C41   C     C_R   0.931478 0.483465 0.386711 -0.220651
C42   C     C_R   0.068528 0.516521 0.613304 -0.220593
Cu1   Cu    Cu3+1 0.500000 0.500000 0.625300 0.977152
Cu2   Cu    Cu3+1 0.500000 0.500000 0.374700 0.977191
H1    H     H_    0.227943 0.381900 0.908158 0.133765
H2    H     H_    0.772330 0.617329 0.092128 0.133917
H3    H     H_    0.770557 0.078430 0.308720 0.169049
H4    H     H_    0.229235 0.920917 0.690690 0.168952
H5    H     H_    0.564976 0.875723 0.309881 0.158883
H6    H     H_    0.434947 0.124271 0.690088 0.158871
H7    H     H_    0.155126 0.591625 0.967239 0.148791
H8    H     H_    0.846544 0.408073 0.033146 0.148954
H9    H     H_    0.078845 0.637576 0.186190 0.167638
H10   H     H_    0.922702 0.362463 0.814106 0.167504
H11   H     H_    0.153424 0.262887 0.288952 0.140152
H12   H     H_    0.845138 0.736483 0.711002 0.139725
H13   H     H_    0.225941 0.217797 0.068434 0.129129
H14   H     H_    0.772807 0.781270 0.931646 0.128571
H15   H     H_    0.878839 0.468837 0.298240 0.158870
H16   H     H_    0.121175 0.531133 0.701774 0.158949
H17   H     H_    0.685452 0.207534 0.928761 0.176862
H18   H     H_    0.313937 0.792400 0.070970 0.176634
H19   H     H_    0.465262 0.206834 0.979246 0.133544
H20   H     H_    0.534235 0.793706 0.020996 0.133524
H21   H     H_    0.395795 0.140297 0.191455 0.122655
H22   H     H_    0.603944 0.860311 0.808893 0.122599
N1    N     N_1   0.500010 0.499990 0.186410 -0.143903
N2    N     N_1   0.499990 0.500010 0.813590 -0.143935
O1    O     O_R   0.499990 0.319650 0.605810 -0.586438
O2    O     O_R   0.500010 0.680350 0.394190 -0.586486
O3    O     O_R   0.499990 0.319640 0.394190 -0.571951
O4    O     O_R   0.500010 0.680360 0.605810 -0.571969
O5    O     O_R   0.319640 0.500010 0.605810 -0.587956
O6    O     O_R   0.680360 0.499990 0.394190 -0.587898
O7    O     O_R   0.319650 0.500010 0.394190 -0.569296
O8    O     O_R   0.680350 0.499990 0.605810 -0.569382
C43   C     C_2   0.877298 0.137388 0.083119 0.807382
O9    O     O_2   0.954001 0.112083 0.165453 -0.608692
O10   O     O_R   0.914670 0.158949 0.957868 -0.779007
H23   H     H_    0.006944 0.151310 0.947704 0.341960
C44   C     C_2   0.122192 0.861822 0.916095 0.807510
O11   O     O_2   0.045574 0.886729 0.833529 -0.608716
O12   O     O_R   0.084631 0.840366 0.041304 -0.778919
H24   H     H_    0.992311 0.847745 0.051245 0.342153

loop_
_geom_bond_atom_site_label_1
_geom_bond_atom_site_label_2
_ccdc_geom_bond_type
Cu1   O5    S    
C30   C32   A    
C5    C42   A    
Cu1   O4    S    
C44   O11   D    
C43   O9    D    
C40   H2    S    
C1    O3    A    
C19   C21   A    
C20   C25   A    
Cu2   O3    S    
C15   C17   A    
C19   C26   A    
C20   H6    S    
C17   H17   S    
C38   H14   S    
Cu1   N2    S    
C7    C17   A    
C6    C41   A    
C31   C33   A    
Cu2   O2    S    
C39   H1    S    
C10   H22   S    
C1    C22   S    
Cu1   O1    S    
C1    O1    A    
C3    C24   S    
C23   O5    A    
C2    O4    A    
C32   H10   S    
C44   O12   S    
C43   O10   S    
C35   H11   S    
C41   H15   S    
C4    C6    A    
C42   H16   S    
C13   H3    S    
C4    C23   S    
C18   H18   S    
C14   H4    S    
C11   C26   S    
C8    C18   A    
C32   C34   A    
Cu2   O7    S    
Cu1   Cu2   S    
C36   H12   S    
C19   H5    S    
O12   H24   S    
C5    C34   S    
C29   C39   A    
C2    C21   S    
C30   C40   A    
C16   C18   A    
C31   H9    S    
Cu2   O6    S    
C9    C11   A    
C7    H19   S    
C10   C12   A    
C8    H20   S    
C8    C10   A    
C20   C22   A    
C13   C15   A    
C14   C16   A    
C35   C37   A    
C29   H7    S    
Cu1   O8    S    
C7    C9    A    
C21   C25   A    
C3    C41   A    
C28   N2    T    
C24   O8    A    
C23   O7    A    
C3    C5    A    
C6    C33   S    
C12   C25   S    
C36   C38   A    
C12   C14   A    
C29   C31   A    
C38   C40   A    
C11   C13   A    
C24   O6    A    
C15   C43   S    
C4    C42   A    
C16   C44   S    
C33   C35   A    
C34   C36   A    
C9    H21   S    
C27   N1    T    
O10   H23   S    
C37   C39   A    
C22   C26   A    
C27   C28   S    
Cu2   N1    S    
C2    O2    A    
C37   H13   S    
C30   H8    S    
