data_mof_unit_62506.cif
_audit_creation_date              2012-12-10T17:53:28-0500
_audit_creation_method            fapswitch 2.2
_symmetry_space_group_name_H-M    P1
_symmetry_Int_Tables_number       1
_space_group_crystal_system       triclinic
_cell_length_a                    44.802319
_cell_length_b                    39.0032
_cell_length_c                    21.725458
_cell_angle_alpha                 89.937022
_cell_angle_beta                  60.450553
_cell_angle_gamma                 89.977141
_cell_volume                      33025.8433094

loop_
_atom_site_label
_atom_site_type_symbol
_atom_type_description
_atom_site_fract_x
_atom_site_fract_y
_atom_site_fract_z
_atom_type_partial_charge
C1    C     C_R   0.066171 0.499951 0.433296 0.832806
C2    C     C_R   0.973204 0.483532 0.247798 0.022336
C3    C     C_R   0.231850 0.971206 0.762233 -0.157989
C4    C     C_R   0.286237 0.502024 0.213729 0.098764
C5    C     C_R   0.713904 0.502242 0.784029 0.099431
C6    C     C_R   0.786149 0.002285 0.214446 0.099315
C7    C     C_R   0.213851 0.002274 0.785534 0.099304
C8    C     C_R   0.159491 0.483079 0.300396 -0.257600
C9    C     C_R   0.840405 0.485455 0.701141 -0.255884
C10   C     C_R   0.659483 0.985080 0.298317 -0.256557
C11   C     C_R   0.340512 0.985008 0.701668 -0.256605
C12   C     C_R   0.123759 0.481387 0.333863 0.018135
C13   C     C_R   0.523730 0.979277 0.756200 0.026250
C14   C     C_R   0.876121 0.483787 0.668425 0.016903
C15   C     C_R   0.623754 0.983370 0.331520 0.016939
C16   C     C_R   0.376241 0.983298 0.668468 0.016924
C17   C     C_R   0.104031 0.499880 0.397746 -0.144634
C18   C     C_R   0.896062 0.499844 0.601600 -0.143474
C19   C     C_R   0.603968 0.999934 0.397765 -0.143269
C20   C     C_R   0.396032 0.999921 0.602222 -0.143225
C21   C     C_R   0.120808 0.518455 0.428328 -0.082590
C22   C     C_R   0.879596 0.516002 0.567588 -0.079288
C23   C     C_R   0.620621 0.016805 0.430572 -0.081945
C24   C     C_R   0.476256 0.979318 0.243894 0.026159
C25   C     C_R   0.379384 0.016850 0.569407 -0.081929
C26   C     C_R   0.157220 0.518219 0.395124 -0.007685
C27   C     C_R   0.843203 0.515539 0.600182 -0.004903
C28   C     C_R   0.657033 0.016560 0.397408 -0.006000
C29   C     C_R   0.342973 0.016606 0.602567 -0.006008
C30   C     C_R   0.176308 0.501576 0.329221 -0.009925
C31   C     C_R   0.823857 0.501407 0.668696 -0.010459
C32   C     C_R   0.676204 0.001737 0.329576 -0.010038
C33   C     C_R   0.323797 0.001724 0.670404 -0.010039
C34   C     C_R   0.000024 0.433705 0.999563 0.793901
C35   C     C_R   0.022603 0.479997 0.693356 -0.236284
C36   C     C_R   0.499998 0.933698 0.000005 0.801806
C37   C     C_R   0.952863 0.570150 0.705206 -0.110738
C38   C     C_R   0.054074 0.563938 0.289161 -0.117451
C39   C     C_R   0.452951 0.070272 0.705549 -0.109948
C40   C     C_R   0.547013 0.070325 0.294318 -0.109970
C41   C     C_R   0.000116 0.499471 0.880878 0.800517
C42   C     C_R   0.999858 0.499320 0.119251 0.794788
C43   C     C_R   0.500118 0.999459 0.880873 0.801616
C44   C     C_R   0.499882 0.999467 0.119128 0.801522
C45   C     C_R   0.000013 0.566134 0.000187 0.787925
C46   C     C_R   0.974601 0.484311 0.310328 -0.237571
C47   C     C_R   0.500002 0.066151 0.000004 0.787686
C48   C     C_R   0.499999 0.433922 0.000030 0.735958
C49   C     C_R   0.999982 0.933912 0.000060 0.735892
C50   C     C_R   0.433933 0.500982 0.066316 0.734620
C51   C     C_R   0.566078 0.501066 0.933655 0.735083
C52   C     C_R   0.933927 0.001023 0.066323 0.734927
C53   C     C_R   0.066073 0.001017 0.933673 0.735378
C54   C     C_R   0.500007 0.565918 0.999959 0.746209
C55   C     C_R   0.999990 0.065923 0.999982 0.746119
C56   C     C_R   0.528104 0.621792 0.996991 0.068542
C57   C     C_R   0.522670 0.980029 0.693279 -0.234388
C58   C     C_R   0.472005 0.621836 0.002574 0.068426
C59   C     C_R   0.027891 0.121847 0.997682 0.068581
C60   C     C_R   0.972041 0.121827 0.002168 0.068419
C61   C     C_R   0.527460 0.657709 0.998102 -0.193502
C62   C     C_R   0.472660 0.657753 0.001529 -0.193027
C63   C     C_R   0.027212 0.157766 0.998775 -0.193975
C64   C     C_R   0.972712 0.157747 0.000913 -0.193106
C65   C     C_R   0.500055 0.675664 0.999857 -0.008874
C66   C     C_R   0.999969 0.175705 0.999768 -0.008197
C67   C     C_R   0.500036 0.603590 0.999846 -0.058815
C68   C     C_R   0.477288 0.980108 0.306838 -0.234339
C69   C     C_R   0.999974 0.103606 0.999939 -0.059283
C70   C     C_R   0.476574 0.731773 0.061505 0.001201
C71   C     C_R   0.523516 0.731854 0.938318 0.001614
C72   C     C_R   0.975983 0.232022 0.060125 0.008632
C73   C     C_R   0.024182 0.231759 0.938234 -0.000368
C74   C     C_R   0.946397 0.539551 0.743929 0.101299
C75   C     C_R   0.058006 0.533507 0.251336 0.096659
C76   C     C_R   0.446458 0.039508 0.743760 0.099933
C77   C     C_R   0.553513 0.039600 0.256113 0.100005
C78   C     C_R   0.976148 0.268002 0.058392 -0.141487
C79   C     C_R   0.998580 0.500420 0.687098 -0.050869
C80   C     C_R   0.024195 0.267734 0.939172 -0.132773
C81   C     C_R   0.476650 0.767749 0.060258 -0.135499
C82   C     C_R   0.523412 0.767827 0.939624 -0.135901
C83   C     C_R   0.000208 0.285886 0.998549 -0.014408
C84   C     C_R   0.500024 0.785826 0.999954 -0.017552
C85   C     C_R   0.500052 0.713579 0.999897 -0.068859
C86   C     C_R   0.000040 0.213640 0.999380 -0.069871
C87   C     C_R   0.030746 0.341894 0.977837 -0.108936
C88   C     C_R   0.969795 0.341860 0.018091 -0.134074
C89   C     C_R   0.530781 0.841860 0.976408 -0.117081
C90   C     C_R   0.001654 0.500615 0.312964 -0.045502
C91   C     C_R   0.469236 0.841849 0.023568 -0.116483
C92   C     C_R   0.030699 0.377683 0.978141 -0.177177
C93   C     C_R   0.969773 0.377645 0.017956 -0.178713
C94   C     C_R   0.530788 0.877642 0.976412 -0.184076
C95   C     C_R   0.469216 0.877633 0.023585 -0.183735
C96   C     C_R   0.000156 0.395897 0.998579 -0.087517
C97   C     C_R   0.499999 0.895878 0.000003 -0.082251
C98   C     C_R   0.000262 0.323728 0.998108 0.087665
C99   C     C_R   0.500013 0.823690 0.999980 0.095403
C100  C     C_R   0.529026 0.378186 0.948530 -0.013712
C101  C     C_R   0.498613 0.000406 0.687060 -0.050350
C102  C     C_R   0.470985 0.378157 0.051652 -0.013112
C103  C     C_R   0.028590 0.878016 0.948222 -0.013635
C104  C     C_R   0.971141 0.878253 0.053156 -0.013043
C105  C     C_R   0.528493 0.342232 0.949053 -0.120133
C106  C     C_R   0.471512 0.342202 0.051144 -0.120204
C107  C     C_R   0.028044 0.842059 0.949443 -0.119659
C108  C     C_R   0.971692 0.842302 0.053385 -0.120862
C109  C     C_R   0.500000 0.324125 0.000098 0.006014
C110  C     C_R   0.999882 0.824078 0.001819 0.006363
C111  C     C_R   0.912433 0.527971 0.784386 -0.104206
C112  C     C_R   0.933858 0.499951 0.566611 0.840357
C113  C     C_R   0.501343 0.000497 0.312981 -0.050612
C114  C     C_R   0.091068 0.519952 0.209298 -0.097427
C115  C     C_R   0.412537 0.027697 0.783339 -0.103807
C116  C     C_R   0.587443 0.027836 0.216465 -0.103751
C117  C     C_R   0.500006 0.396293 0.000085 -0.184096
C118  C     C_R   0.999876 0.896267 0.000364 -0.184891
C119  C     C_R   0.529435 0.267959 0.988236 -0.150202
C120  C     C_R   0.470550 0.267987 0.011904 -0.150228
C121  C     C_R   0.029673 0.768010 0.988960 -0.150507
C122  C     C_R   0.970154 0.767794 0.016799 -0.149901
C123  C     C_R   0.029754 0.732253 0.989087 -0.085726
C124  C     C_R   0.974571 0.520116 0.745061 0.014956
C125  C     C_R   0.970224 0.732040 0.017229 -0.089617
C126  C     C_R   0.529433 0.232206 0.988100 -0.087657
C127  C     C_R   0.470545 0.232232 0.011985 -0.087272
C128  C     C_R   0.000045 0.714179 0.003160 0.213764
C129  C     C_R   0.499987 0.214253 0.000030 0.215128
C130  C     C_R   0.499994 0.286200 0.000084 0.106424
C131  C     C_R   0.999894 0.786140 0.002602 0.106454
C132  C     C_R   0.016416 0.658735 0.937036 -0.023372
C133  C     C_R   0.984208 0.658049 0.067109 -0.024993
C134  C     C_R   0.517066 0.158502 0.935082 -0.023923
C135  C     C_R   0.028125 0.516645 0.252226 0.011411
C136  C     C_R   0.482899 0.158434 0.064962 -0.023777
C137  C     C_R   0.016201 0.622397 0.935840 -0.002008
C138  C     C_R   0.984287 0.621698 0.066793 -0.002066
C139  C     C_R   0.516767 0.122156 0.934571 -0.001266
C140  C     C_R   0.483223 0.122087 0.065464 -0.001245
C141  C     C_R   0.000085 0.603969 0.000935 -0.069232
C142  C     C_R   0.500003 0.104014 0.000014 -0.071302
C143  C     C_R   0.000244 0.676290 0.002441 -0.045055
C144  C     C_R   0.499983 0.176365 0.000025 -0.045851
C145  C     C_R   0.885588 0.545807 0.783413 -0.147167
C146  C     C_R   0.474587 0.020073 0.745025 0.014694
C147  C     C_R   0.119444 0.535560 0.208114 -0.145767
C148  C     C_R   0.385762 0.045495 0.782005 -0.146514
C149  C     C_R   0.614219 0.045640 0.217727 -0.146562
C150  C     C_R   0.892379 0.575629 0.742995 -0.098819
C151  C     C_R   0.115105 0.565058 0.248082 -0.101365
C152  C     C_R   0.392583 0.075503 0.742107 -0.098791
C153  C     C_R   0.607393 0.075607 0.257618 -0.098856
C154  C     C_R   0.975551 0.519041 0.808135 -0.240283
C155  C     C_R   0.027098 0.515139 0.189238 -0.233799
C156  C     C_R   0.475545 0.019000 0.808119 -0.239288
C157  C     C_R   0.525382 0.020156 0.254924 0.014749
C158  C     C_R   0.524443 0.019054 0.191812 -0.239227
C159  C     C_2   0.114761 0.384828 0.786861 0.499817
C160  C     C_2   0.858158 0.410766 0.259841 0.531667
C161  C     C_2   0.615643 0.885275 0.785049 0.499382
C162  C     C_2   0.384551 0.885115 0.215135 0.499424
C163  C     C_2   0.045726 0.362032 0.810124 0.343693
C164  C     C_2   0.928540 0.379124 0.192103 0.321485
C165  C     C_2   0.546699 0.862078 0.808343 0.341899
C166  C     C_2   0.453634 0.862132 0.191436 0.342063
C167  C     C_2   0.395561 0.553202 0.178627 0.349290
C168  C     C_R   0.080155 0.465583 0.746486 -0.209969
C169  C     C_2   0.604178 0.552335 0.818740 0.353578
C170  C     C_2   0.895690 0.052746 0.179873 0.351278
C171  C     C_2   0.104317 0.052819 0.820097 0.351357
C172  C     C_2   0.109092 0.460524 0.297718 0.345810
C173  C     C_2   0.890585 0.465610 0.708239 0.336956
C174  C     C_2   0.609107 0.964630 0.292744 0.337249
C175  C     C_2   0.390883 0.964495 0.707252 0.337119
C176  C     C_2   0.099906 0.537757 0.495321 0.478860
C177  C     C_2   0.900835 0.533195 0.497979 0.467319
C178  C     C_2   0.599555 0.034484 0.499592 0.476761
C179  C     C_R   0.911605 0.480240 0.281833 -0.237436
C180  C     C_2   0.400455 0.034588 0.500382 0.476672
C181  C     C_2   0.175558 0.532465 0.431017 0.436337
C182  C     C_2   0.825146 0.526879 0.561531 0.441916
C183  C     C_2   0.675312 0.028910 0.434878 0.437535
C184  C     C_2   0.324698 0.029021 0.565088 0.437531
C185  C     C_3   0.559690 0.603930 0.989929 -0.405216
C186  C     C_3   0.558986 0.602600 0.061096 -0.319649
C187  C     C_3   0.589865 0.582978 0.054731 -0.810241
C188  C     C_3   0.440474 0.604027 0.009287 -0.404260
C189  C     C_3   0.441246 0.603041 0.938040 -0.320458
C190  C     C_R   0.580304 0.965972 0.746316 -0.207744
C191  C     C_3   0.410403 0.583512 0.944044 -0.810247
C192  C     C_3   0.059374 0.104032 0.991245 -0.404291
C193  C     C_3   0.058330 0.102744 0.062748 -0.319932
C194  C     C_3   0.089109 0.083174 0.057006 -0.810817
C195  C     C_3   0.940569 0.103986 0.008659 -0.404514
C196  C     C_3   0.941609 0.102710 0.937165 -0.319749
C197  C     C_3   0.910842 0.083113 0.942970 -0.810809
C198  C     C_2   0.452444 0.713651 0.128062 0.372642
C199  C     C_2   0.547656 0.713821 0.871727 0.372020
C200  C     C_2   0.951167 0.214103 0.126354 0.366424
C201  C     C_R   0.419675 0.965854 0.253994 -0.208304
C202  C     C_2   0.048903 0.213572 0.872368 0.371583
C203  C     C_2   0.560362 0.396395 0.894930 0.377687
C204  C     C_2   0.439649 0.396336 0.105234 0.376167
C205  C     C_2   0.059680 0.896069 0.893363 0.376548
C206  C     C_2   0.940048 0.896546 0.107296 0.377629
C207  C     C_2   0.033601 0.678492 0.869349 0.339157
C208  C     C_2   0.967450 0.677105 0.135584 0.341708
C209  C     C_2   0.535260 0.177946 0.867128 0.339011
C210  C     C_2   0.464662 0.177804 0.132919 0.338771
C211  C     C_3   0.031908 0.603785 0.864537 -0.422423
C212  C     C_R   0.102911 0.442764 0.752026 -0.018561
C213  C     C_3   0.008924 0.606384 0.830768 -0.362450
C214  C     C_3   0.027391 0.592639 0.755201 -0.791083
C215  C     C_3   0.969210 0.602290 0.137234 -0.422344
C216  C     C_3   0.993277 0.603506 0.168636 -0.361142
C217  C     C_3   0.975500 0.589658 0.244218 -0.789251
C218  C     C_3   0.532953 0.103264 0.863501 -0.421744
C219  C     C_3   0.510613 0.105848 0.828245 -0.365134
C220  C     C_3   0.529438 0.091430 0.753220 -0.786619
C221  C     C_3   0.467004 0.103119 0.136535 -0.421757
C222  C     C_3   0.489245 0.105723 0.172007 -0.365399
C223  C     C_R   0.566147 0.999963 0.433259 0.838019
C224  C     C_R   0.883135 0.462608 0.287381 -0.031079
C225  C     C_3   0.470334 0.091274 0.247063 -0.786154
C226  C     C_2   0.137661 0.456113 0.731598 0.420878
C227  C     C_2   0.849264 0.479772 0.328185 0.453563
C228  C     C_2   0.637923 0.956841 0.731047 0.424223
C229  C     C_2   0.362042 0.956549 0.269479 0.424121
C230  C     C_R   0.603261 0.943259 0.751398 -0.019161
C231  C     C_R   0.396770 0.943086 0.248932 -0.019142
C232  C     C_R   0.092330 0.408383 0.774460 0.013429
C233  C     C_R   0.887622 0.429263 0.257279 0.000712
C234  C     C_R   0.592964 0.908764 0.773273 0.012145
C235  C     C_R   0.407181 0.908647 0.226890 0.012244
C236  C     C_R   0.059267 0.397437 0.788130 -0.038451
C237  C     C_R   0.920857 0.413983 0.224173 -0.036514
C238  C     C_R   0.559967 0.897609 0.786878 -0.039118
C239  C     C_R   0.433852 0.999958 0.566738 0.837984
C240  C     C_R   0.440242 0.897599 0.213096 -0.039305
C241  C     C_R   0.037206 0.421177 0.782543 -0.250837
C242  C     C_R   0.948626 0.432444 0.220251 -0.217479
C243  C     C_R   0.537706 0.921247 0.781716 -0.249938
C244  C     C_R   0.462445 0.921288 0.218248 -0.249818
C245  C     C_R   0.998891 0.500078 0.619982 0.830650
C246  C     C_R   0.001463 0.500127 0.379781 0.827575
C247  C     C_R   0.498912 0.000075 0.619960 0.829970
C248  C     C_R   0.501076 0.000107 0.380050 0.830082
C249  C     C_R   0.047396 0.455025 0.762326 0.120489
C250  C     C_R   0.000178 0.499284 0.813817 -0.084314
C251  C     C_R   0.944143 0.465363 0.248547 0.137273
C252  C     C_R   0.547620 0.955202 0.762050 0.120063
C253  C     C_R   0.452415 0.955188 0.238091 0.120268
C254  C     C_R   0.378364 0.479110 0.085715 -0.165765
C255  C     C_R   0.621854 0.480160 0.915180 -0.166912
C256  C     C_R   0.878258 0.979712 0.085113 -0.167141
C257  C     C_R   0.121735 0.979662 0.914894 -0.167012
C258  C     C_R   0.342629 0.478814 0.121340 -0.146844
C259  C     C_R   0.657598 0.479882 0.879015 -0.147114
C260  C     C_R   0.842519 0.979474 0.120882 -0.147490
C261  C     C_R   0.999814 0.499033 0.186472 -0.088649
C262  C     C_R   0.157474 0.979424 0.879121 -0.147566
C263  C     C_R   0.324106 0.502315 0.175757 0.046128
C264  C     C_R   0.675987 0.502580 0.822726 0.047785
C265  C     C_R   0.824051 0.002547 0.176257 0.047407
C266  C     C_R   0.175949 0.002538 0.823729 0.047359
C267  C     C_R   0.341801 0.526151 0.194159 -0.121226
C268  C     C_R   0.658088 0.525701 0.803281 -0.120572
C269  C     C_R   0.841850 0.025955 0.195303 -0.121629
C270  C     C_R   0.158155 0.025988 0.804671 -0.121617
C271  C     C_R   0.377854 0.526645 0.159155 -0.010853
C272  C     C_R   0.500192 0.999268 0.813797 -0.084493
C273  C     C_R   0.622029 0.526278 0.839056 -0.010652
C274  C     C_R   0.877908 0.026460 0.159984 -0.010429
C275  C     C_R   0.122097 0.026494 0.839995 -0.010655
C276  C     C_R   0.396265 0.502506 0.104517 -0.111561
C277  C     C_R   0.603766 0.502802 0.895289 -0.113129
C278  C     C_R   0.896248 0.002668 0.104564 -0.112144
C279  C     C_R   0.103751 0.002660 0.895429 -0.112229
C280  C     C_R   0.267863 0.532742 0.225189 -0.162477
C281  C     C_R   0.732394 0.533134 0.768013 -0.162167
C282  C     C_R   0.767754 0.033160 0.228565 -0.162861
C283  C     C_R   0.499806 0.999299 0.186206 -0.084412
C284  C     C_R   0.232257 0.033143 0.771392 -0.162787
C285  C     C_R   0.232067 0.532567 0.262379 -0.191460
C286  C     C_R   0.768189 0.532855 0.730482 -0.189504
C287  C     C_R   0.731956 0.032970 0.265802 -0.190155
C288  C     C_R   0.268056 0.032952 0.734156 -0.190163
C289  C     C_R   0.214189 0.501798 0.289842 0.085104
C290  C     C_R   0.785980 0.501749 0.707492 0.083465
C291  C     C_R   0.714079 0.001988 0.290469 0.083919
C292  C     C_R   0.285921 0.001976 0.709512 0.083897
C293  C     C_R   0.925965 0.587911 0.704286 -0.114142
C294  C     C_R   0.023658 0.479233 0.756283 0.026704
C295  C     C_R   0.082477 0.579380 0.288157 -0.112164
C296  C     C_R   0.426123 0.088001 0.704279 -0.114435
C297  C     C_R   0.573843 0.088060 0.295514 -0.114401
C298  C     C_R   0.232453 0.471015 0.277516 -0.151310
C299  C     C_R   0.767640 0.470841 0.724158 -0.149182
C300  C     C_R   0.732334 0.971081 0.275567 -0.150891
C301  C     C_R   0.267654 0.971074 0.724436 -0.150847
C302  C     C_R   0.268253 0.471109 0.239607 -0.157968
C303  C     C_R   0.731837 0.471072 0.762180 -0.156394
C304  C     C_R   0.768138 0.971212 0.237769 -0.157982
Cu1   Cu    Cu3+1 0.000000 0.534200 0.500000 0.966532
Cu2   Cu    Cu3+1 0.500010 0.499910 0.938190 0.967665
Cu3   Cu    Cu3+1 0.999990 0.999910 0.061810 0.966752
Cu4   Cu    Cu3+1 0.000010 0.999910 0.938190 0.966491
Cu5   Cu    Cu3+1 0.500000 0.034200 0.500000 0.968701
Cu6   Cu    Cu3+1 0.000000 0.465780 0.500000 1.038761
Cu7   Cu    Cu3+1 0.500000 0.965780 0.500000 1.038135
Cu8   Cu    Cu3+1 0.965790 0.499970 0.034190 0.972279
Cu9   Cu    Cu3+1 0.034210 0.499970 0.965810 0.962402
Cu10  Cu    Cu3+1 0.465790 0.999970 0.034190 0.963233
Cu11  Cu    Cu3+1 0.534210 0.999970 0.965810 0.963071
Cu12  Cu    Cu3+1 0.499990 0.499910 0.061810 0.966686
H1    H     H_    0.871602 0.589327 0.742023 0.136076
H2    H     H_    0.608208 0.462191 0.958218 0.149532
H3    H     H_    0.377074 0.860636 0.242254 0.121408
H4    H     H_    0.018796 0.356895 0.828609 0.090896
H5    H     H_    0.953718 0.368004 0.174279 0.094572
H6    H     H_    0.519861 0.856709 0.826292 0.091283
H7    H     H_    0.480504 0.856862 0.173346 0.091316
H8    H     H_    0.423135 0.556367 0.148441 0.084084
H9    H     H_    0.576728 0.556134 0.850178 0.083280
H10   H     H_    0.923198 0.056283 0.148930 0.083514
H11   H     H_    0.076809 0.056338 0.851029 0.083403
H12   H     H_    0.125787 0.443659 0.254623 0.065582
H13   H     H_    0.891977 0.961498 0.042686 0.148840
H14   H     H_    0.873448 0.452013 0.756631 0.066308
H15   H     H_    0.626060 0.950159 0.245570 0.067227
H16   H     H_    0.373927 0.949979 0.754420 0.067287
H17   H     H_    0.075981 0.527106 0.536638 0.029020
H18   H     H_    0.925229 0.522248 0.459355 0.023038
H19   H     H_    0.575432 0.023420 0.539237 0.024416
H20   H     H_    0.424577 0.023546 0.460743 0.024408
H21   H     H_    0.200912 0.543519 0.400588 0.069338
H22   H     H_    0.799733 0.538024 0.589756 0.070594
H23   H     H_    0.700639 0.040174 0.405718 0.068909
H24   H     H_    0.108010 0.961418 0.957336 0.148968
H25   H     H_    0.299373 0.040278 0.594240 0.068943
H26   H     H_    0.589680 0.556144 0.037778 0.262949
H27   H     H_    0.614100 0.595641 0.015638 0.253377
H28   H     H_    0.588816 0.582497 0.106862 0.245604
H29   H     H_    0.559297 0.629076 0.079673 0.217475
H30   H     H_    0.535125 0.589694 0.101169 0.241460
H31   H     H_    0.562042 0.577533 0.969136 0.178905
H32   H     H_    0.583032 0.617847 0.950519 0.201773
H33   H     H_    0.410585 0.556598 0.960697 0.262864
H34   H     H_    0.386147 0.596086 0.983224 0.253451
H35   H     H_    0.329413 0.460404 0.105983 0.138929
H36   H     H_    0.411504 0.583275 0.891860 0.245583
H37   H     H_    0.440937 0.629605 0.919758 0.217585
H38   H     H_    0.465131 0.590228 0.897880 0.241325
H39   H     H_    0.438162 0.577528 0.029663 0.179436
H40   H     H_    0.417095 0.617814 0.048847 0.203106
H41   H     H_    0.089038 0.056330 0.039982 0.263060
H42   H     H_    0.113397 0.095857 0.018217 0.253380
H43   H     H_    0.087810 0.082720 0.109373 0.245301
H44   H     H_    0.058520 0.129232 0.081401 0.217125
H45   H     H_    0.034408 0.089821 0.102538 0.241406
H46   H     H_    0.670919 0.462078 0.895375 0.138067
H47   H     H_    0.061851 0.077628 0.970406 0.179499
H48   H     H_    0.082774 0.117968 0.952116 0.202022
H49   H     H_    0.910932 0.056266 0.960065 0.263070
H50   H     H_    0.886545 0.095769 0.981731 0.253366
H51   H     H_    0.912136 0.082669 0.890608 0.245329
H52   H     H_    0.941400 0.129201 0.918439 0.217293
H53   H     H_    0.965539 0.089814 0.897406 0.241425
H54   H     H_    0.938115 0.077576 0.029563 0.179425
H55   H     H_    0.917161 0.117895 0.047756 0.202068
H56   H     H_    0.453652 0.686064 0.132537 0.093633
H57   H     H_    0.829263 0.961428 0.104894 0.138288
H58   H     H_    0.546465 0.686242 0.867200 0.093230
H59   H     H_    0.952368 0.186564 0.131536 0.094988
H60   H     H_    0.047547 0.186021 0.867736 0.093709
H61   H     H_    0.562373 0.424055 0.896027 0.078445
H62   H     H_    0.437649 0.424000 0.104144 0.078011
H63   H     H_    0.061840 0.923726 0.894035 0.079770
H64   H     H_    0.937855 0.924156 0.105425 0.078826
H65   H     H_    0.058226 0.670401 0.826373 0.082166
H66   H     H_    0.942900 0.668872 0.178637 0.081044
H67   H     H_    0.560177 0.169669 0.825498 0.081753
H68   H     H_    0.170725 0.961346 0.895119 0.138364
H69   H     H_    0.439755 0.169465 0.174533 0.081881
H70   H     H_    0.050484 0.608374 0.721688 0.265992
H71   H     H_    0.035295 0.565577 0.754331 0.257864
H72   H     H_    0.009976 0.593928 0.732699 0.238424
H73   H     H_    0.985141 0.591253 0.862737 0.216319
H74   H     H_    0.001351 0.633351 0.829444 0.246522
H75   H     H_    0.057884 0.614090 0.828512 0.190918
H76   H     H_    0.036499 0.576266 0.868080 0.221844
H77   H     H_    0.953574 0.606402 0.279229 0.264809
H78   H     H_    0.965896 0.563242 0.245988 0.257451
H79   H     H_    0.327298 0.544270 0.236309 0.176458
H80   H     H_    0.993933 0.589165 0.264343 0.239589
H81   H     H_    0.016424 0.587754 0.135390 0.217379
H82   H     H_    0.001826 0.630146 0.169307 0.245764
H83   H     H_    0.943584 0.612750 0.175016 0.190508
H84   H     H_    0.963992 0.575024 0.132940 0.221628
H85   H     H_    0.552862 0.106750 0.719784 0.266356
H86   H     H_    0.536868 0.064308 0.753693 0.257520
H87   H     H_    0.512459 0.092665 0.729660 0.238312
H88   H     H_    0.486516 0.091141 0.860034 0.216393
H89   H     H_    0.503572 0.132872 0.825578 0.246757
H90   H     H_    0.672421 0.543243 0.759775 0.176037
H91   H     H_    0.559100 0.113350 0.828087 0.190405
H92   H     H_    0.537237 0.075740 0.867677 0.223182
H93   H     H_    0.446880 0.106565 0.280343 0.266352
H94   H     H_    0.462940 0.064145 0.246606 0.257546
H95   H     H_    0.487237 0.092523 0.270794 0.238305
H96   H     H_    0.513367 0.091049 0.140373 0.216399
H97   H     H_    0.496250 0.132750 0.174666 0.246754
H98   H     H_    0.440821 0.113134 0.171826 0.190483
H99   H     H_    0.462804 0.075586 0.132322 0.223239
H100  H     H_    0.142000 0.483604 0.728437 0.064694
H101  H     H_    0.827435 0.043770 0.238139 0.175821
H102  H     H_    0.848191 0.507313 0.336269 0.085564
H103  H     H_    0.642041 0.984362 0.728370 0.064760
H104  H     H_    0.357822 0.984056 0.272285 0.064934
H105  H     H_    0.137052 0.576962 0.247537 0.136176
H106  H     H_    0.172574 0.043835 0.761823 0.175859
H107  H     H_    0.281230 0.556799 0.204796 0.139137
H108  H     H_    0.719136 0.557444 0.785241 0.138626
H109  H     H_    0.781096 0.057375 0.210165 0.138792
H110  H     H_    0.218925 0.057353 0.789774 0.138824
H111  H     H_    0.218248 0.556417 0.270198 0.135953
H112  H     H_    0.782078 0.556863 0.719204 0.137501
H113  H     H_    0.718133 0.056957 0.275716 0.137159
H114  H     H_    0.281887 0.056934 0.724225 0.137157
H115  H     H_    0.218951 0.447008 0.297784 0.144914
H116  H     H_    0.371862 0.089171 0.740847 0.136078
H117  H     H_    0.781088 0.446604 0.707316 0.145384
H118  H     H_    0.718819 0.946931 0.293715 0.145435
H119  H     H_    0.281159 0.946929 0.706306 0.145454
H120  H     H_    0.931168 0.611212 0.673557 0.135119
H121  H     H_    0.079203 0.602540 0.318239 0.138342
H122  H     H_    0.431345 0.111433 0.673937 0.134860
H123  H     H_    0.568616 0.111462 0.325851 0.134861
H124  H     H_    0.281927 0.447157 0.231592 0.144298
H125  H     H_    0.718133 0.446957 0.773564 0.143531
H126  H     H_    0.781784 0.947121 0.227794 0.143492
H127  H     H_    0.628115 0.089279 0.258821 0.136075
H128  H     H_    0.218194 0.947120 0.772227 0.143507
H129  H     H_    0.174700 0.469888 0.250461 0.135270
H130  H     H_    0.824994 0.474159 0.753162 0.135943
H131  H     H_    0.674767 0.973308 0.246790 0.136166
H132  H     H_    0.325225 0.973191 0.753198 0.136186
H133  H     H_    0.548714 0.671833 0.996309 0.147619
H134  H     H_    0.451422 0.671912 0.003284 0.147704
H135  H     H_    0.048356 0.171908 0.997430 0.147182
H136  H     H_    0.951583 0.171873 0.002118 0.147426
H137  H     H_    0.957997 0.282350 0.104487 0.192823
H138  H     H_    0.011773 0.413312 0.793872 0.136247
H139  H     H_    0.042439 0.281838 0.892799 0.220627
H140  H     H_    0.458950 0.781908 0.107042 0.219325
H141  H     H_    0.541101 0.782047 0.892861 0.219421
H142  H     H_    0.054524 0.328365 0.962383 0.158822
H143  H     H_    0.946058 0.328299 0.033317 0.167612
H144  H     H_    0.554795 0.828341 0.958350 0.162292
H145  H     H_    0.445227 0.828321 0.041617 0.162048
H146  H     H_    0.978675 0.580130 0.675250 0.136161
H147  H     H_    0.029123 0.575799 0.319238 0.139645
H148  H     H_    0.478740 0.080378 0.676213 0.135255
H149  H     H_    0.974031 0.421104 0.195261 0.119788
H150  H     H_    0.521219 0.080400 0.323701 0.135209
H151  H     H_    0.054549 0.391055 0.962654 0.187435
H152  H     H_    0.945920 0.391000 0.033343 0.184385
H153  H     H_    0.554911 0.890990 0.957962 0.189091
H154  H     H_    0.445090 0.890974 0.042042 0.188993
H155  H     H_    0.550354 0.328156 0.909250 0.179711
H156  H     H_    0.449647 0.328101 0.090947 0.179670
H157  H     H_    0.049662 0.827881 0.909200 0.179679
H158  H     H_    0.950071 0.828323 0.094181 0.179278
H159  H     H_    0.552296 0.281347 0.979950 0.136167
H160  H     H_    0.512334 0.913218 0.792932 0.136978
H161  H     H_    0.447691 0.281397 0.020208 0.136109
H162  H     H_    0.052779 0.781485 0.978885 0.136095
H163  H     H_    0.947010 0.781091 0.026524 0.136191
H164  H     H_    0.052883 0.718612 0.978406 0.123953
H165  H     H_    0.947193 0.718234 0.027843 0.124133
H166  H     H_    0.552258 0.218472 0.979092 0.123436
H167  H     H_    0.447717 0.218520 0.020979 0.123413
H168  H     H_    0.906837 0.504823 0.815782 0.144628
H169  H     H_    0.094767 0.496951 0.178439 0.143323
H170  H     H_    0.406927 0.004406 0.814316 0.145686
H171  H     H_    0.487864 0.913341 0.206886 0.136875
H172  H     H_    0.593058 0.004575 0.185494 0.145606
H173  H     H_    0.859545 0.536405 0.813734 0.132450
H174  H     H_    0.144761 0.524619 0.176636 0.132044
H175  H     H_    0.359753 0.035923 0.811636 0.132752
H176  H     H_    0.640235 0.036103 0.188044 0.132721
H177  H     H_    0.957102 0.533936 0.852991 0.155346
H178  H     H_    0.047424 0.527316 0.142364 0.158704
H179  H     H_    0.457073 0.033879 0.852976 0.154934
H180  H     H_    0.542926 0.033922 0.146881 0.154792
H181  H     H_    0.040534 0.464458 0.649044 0.149390
H182  H     H_    0.392153 0.460609 0.043929 0.148273
H183  H     H_    0.954391 0.472139 0.357455 0.140953
H184  H     H_    0.540642 0.964541 0.648919 0.149144
H185  H     H_    0.459315 0.964613 0.351258 0.149175
H186  H     H_    0.087943 0.491805 0.729485 0.136108
H187  H     H_    0.908379 0.505512 0.305111 0.144839
H188  H     H_    0.587887 0.992273 0.729691 0.136996
H189  H     H_    0.412007 0.992113 0.270736 0.137017
H190  H     H_    0.122217 0.360297 0.760059 0.121004
H191  H     H_    0.852459 0.384673 0.279607 0.102917
H192  H     H_    0.623235 0.860855 0.757826 0.121372
O1    O     O_R   0.049900 0.528880 0.450120 -0.595693
O2    O     O_R   0.549920 0.499990 0.002300 -0.575526
O3    O     O_R   0.950080 0.999990 0.997700 -0.575357
O4    O     O_R   0.049920 0.999990 0.002300 -0.575299
O5    O     O_R   0.500010 0.549830 0.052300 -0.584293
O6    O     O_R   0.499990 0.549830 0.947700 -0.584450
O7    O     O_R   0.000010 0.049830 0.052300 -0.584452
O8    O     O_R   0.999990 0.049830 0.947700 -0.584411
O9    O     O_R   0.049890 0.471100 0.450130 -0.546005
O10   O     O_R   0.950110 0.471100 0.549870 -0.547367
O11   O     O_R   0.549890 0.971100 0.450130 -0.547329
O12   O     O_R   0.950100 0.528880 0.549880 -0.590949
O13   O     O_R   0.450110 0.971100 0.549870 -0.547369
O14   O     O_R   0.000000 0.528880 0.590180 -0.608479
O15   O     O_R   1.000000 0.528880 0.409820 -0.610608
O16   O     O_R   0.500000 0.028880 0.590180 -0.607633
O17   O     O_R   0.500000 0.028880 0.409820 -0.607751
O18   O     O_R   0.999980 0.471100 0.590190 -0.558872
O19   O     O_R   0.000020 0.471100 0.409810 -0.556337
O20   O     O_R   0.499980 0.971100 0.590190 -0.558799
O21   O     O_R   0.500020 0.971100 0.409810 -0.558696
O22   O     O_R   0.971100 0.450060 0.028870 -0.579293
O23   O     O_R   0.549900 0.028880 0.450120 -0.592424
O24   O     O_R   0.028900 0.450060 0.971130 -0.575527
O25   O     O_R   0.471100 0.950060 0.028870 -0.577008
O26   O     O_R   0.528900 0.950060 0.971130 -0.577044
O27   O     O_R   0.971100 0.499970 0.938700 -0.582541
O28   O     O_R   0.028900 0.499970 0.061300 -0.584483
O29   O     O_R   0.471100 0.999970 0.938700 -0.581948
O30   O     O_R   0.528900 0.999970 0.061300 -0.581963
O31   O     O_R   0.028870 0.499990 0.880960 -0.588258
O32   O     O_R   0.971130 0.499990 0.119040 -0.580764
O33   O     O_R   0.528870 0.999990 0.880960 -0.588959
O34   O     O_R   0.450100 0.028880 0.549880 -0.592413
O35   O     O_R   0.471130 0.999990 0.119040 -0.588860
O36   O     O_R   0.971110 0.549880 0.028880 -0.591193
O37   O     O_R   0.028890 0.549880 0.971120 -0.593146
O38   O     O_R   0.471110 0.049880 0.028880 -0.593275
O39   O     O_R   0.528890 0.049880 0.971120 -0.593284
O40   O     O_R   0.499980 0.450010 0.052100 -0.571660
O41   O     O_R   0.500020 0.450010 0.947900 -0.571534
O42   O     O_R   0.999980 0.950010 0.052100 -0.571656
O43   O     O_R   0.000020 0.950010 0.947900 -0.572046
O44   O     O_2   0.124806 0.392656 0.827970 -0.520851
O45   O     O_R   0.450080 0.499920 0.102080 -0.583368
O46   O     O_2   0.840470 0.424360 0.238362 -0.500275
O47   O     O_2   0.625741 0.893027 0.826109 -0.520661
O48   O     O_2   0.374365 0.892897 0.174206 -0.520569
O49   O     O_2   0.063959 0.338135 0.807085 -0.570038
O50   O     O_2   0.907764 0.362612 0.183509 -0.559672
O51   O     O_2   0.565044 0.838339 0.805547 -0.569072
O52   O     O_2   0.435360 0.838338 0.194223 -0.569103
O53   O     O_2   0.379384 0.572338 0.228767 -0.526694
O54   O     O_2   0.620111 0.570375 0.766519 -0.525809
O55   O     O_2   0.879644 0.071258 0.231181 -0.526958
O56   O     O_R   0.549920 0.499920 0.897920 -0.583232
O57   O     O_2   0.120367 0.071384 0.768798 -0.526668
O58   O     O_2   0.079022 0.462291 0.313173 -0.540599
O59   O     O_2   0.921116 0.465808 0.689389 -0.543692
O60   O     O_2   0.578655 0.965400 0.310960 -0.543330
O61   O     O_2   0.421333 0.965262 0.689049 -0.543355
O62   O     O_2   0.108578 0.566251 0.503779 -0.511024
O63   O     O_2   0.891919 0.560416 0.484313 -0.513841
O64   O     O_2   0.608293 0.062187 0.511622 -0.511405
O65   O     O_2   0.391725 0.062315 0.488341 -0.511424
O66   O     O_2   0.163212 0.530473 0.495107 -0.510752
O67   O     O_R   0.950080 0.999920 0.102080 -0.583476
O68   O     O_2   0.837778 0.522293 0.497921 -0.522357
O69   O     O_2   0.662961 0.025076 0.498637 -0.510627
O70   O     O_2   0.337050 0.025249 0.501330 -0.510683
O71   O     O_2   0.430861 0.729417 0.179307 -0.509769
O72   O     O_2   0.569229 0.729654 0.820510 -0.509895
O73   O     O_2   0.929015 0.229991 0.176552 -0.519793
O74   O     O_2   0.071142 0.229253 0.821847 -0.510610
O75   O     O_2   0.584621 0.380620 0.848750 -0.530898
O76   O     O_2   0.415378 0.380531 0.151394 -0.531778
O77   O     O_2   0.083580 0.880160 0.846592 -0.531018
O78   O     O_R   0.049920 0.999920 0.897920 -0.583482
O79   O     O_2   0.916182 0.880890 0.154788 -0.531322
O80   O     O_2   0.019986 0.703661 0.860338 -0.529029
O81   O     O_2   0.981320 0.701900 0.145066 -0.529363
O82   O     O_2   0.522190 0.203060 0.856372 -0.529426
O83   O     O_2   0.477688 0.202921 0.143705 -0.529492
O84   O     O_2   0.162035 0.437053 0.715364 -0.498146
O85   O     O_2   0.822447 0.463613 0.355950 -0.494189
O86   O     O_2   0.662464 0.937953 0.714334 -0.497461
O87   O     O_2   0.337562 0.937575 0.286210 -0.497374
O88   O     O_R   0.450080 0.499990 0.997700 -0.575228

loop_
_geom_bond_atom_site_label_1
_geom_bond_atom_site_label_2
_ccdc_geom_bond_type
C21   C26   A    
C164  O50   D    
C157  C158  A    
C166  O52   D    
C104  C108  A    
C8    H129  S    
C136  C140  A    
C39   H148  S    
C93   H152  S    
C187  H26   S    
C12   C172  S    
C263  C267  A    
C249  C294  S    
C208  H66   S    
C237  C242  A    
C89   C99   A    
C151  C295  A    
C242  C251  A    
C216  H82   S    
C162  H3    S    
C152  C296  A    
C28   C183  S    
C34   C96   S    
C172  H12   S    
C201  H189  S    
C22   C177  S    
C212  C232  A    
C139  C142  A    
C166  C240  S    
C9    H130  S    
C161  O47   D    
C29   C33   A    
C240  C244  A    
C119  C130  A    
C166  H7    S    
C298  C302  A    
C89   C94   A    
C267  H79   S    
C280  C285  A    
C210  O83   D    
C94   H153  S    
C163  C236  S    
C193  H44   S    
Cu9   O31   S    
C41   O31   A    
C36   C97   S    
C68   H185  S    
C181  O66   D    
C170  O55   D    
C217  H77   S    
C189  H38   S    
C193  C194  S    
C71   C82   A    
C178  H19   S    
C76   C146  S    
C248  O21   A    
C255  C277  A    
C210  H69   S    
C84   C99   S    
C191  H34   S    
C211  H76   S    
C6    C282  A    
C80   C83   A    
C64   H136  S    
C167  O53   D    
C226  H100  S    
C175  H16   S    
C250  C294  A    
C259  H46   S    
C25   C29   A    
C138  C215  S    
C31   C290  S    
C27   C31   A    
C28   C32   A    
C89   H144  S    
C241  C249  A    
C177  H18   S    
C13   C272  A    
C196  C197  S    
C94   C97   A    
Cu10  Cu11  S    
C44   C283  S    
C115  C148  A    
C229  H104  S    
C17   C21   A    
C112  O10   A    
C220  H87   S    
C64   C66   A    
C7    C266  S    
C19   C23   A    
C224  C233  A    
C304  H126  S    
C120  H161  S    
C168  C249  A    
C145  H173  S    
Cu1   O1    S    
C72   C86   A    
Cu10  O25   S    
C11   C33   A    
C16   C20   A    
C178  O64   D    
C3    H128  S    
C114  H169  S    
C207  H65   S    
Cu2   O88   S    
C110  C131  S    
C34   O22   A    
C295  H121  S    
C182  O68   D    
C59   C69   A    
C46   C90   A    
C162  C235  S    
C16   C175  S    
C174  H15   S    
C50   O45   A    
C82   C84   A    
C22   C27   A    
Cu8   O22   S    
C4    C280  A    
C107  C110  A    
C40   H150  S    
Cu9   O37   S    
C173  O59   D    
C222  H96   S    
C55   O8    A    
C287  H113  S    
C153  C297  A    
C281  C286  A    
C299  H117  S    
C115  H170  S    
C37   C293  A    
C215  H83   S    
C200  O73   D    
C213  H73   S    
C173  H14   S    
C138  C141  A    
C95   C97   A    
C269  H101  S    
C78   H137  S    
C197  H50   S    
C59   C63   A    
C60   C64   A    
C108  H158  S    
C208  O81   D    
C2    C251  S    
C165  H6    S    
C119  H159  S    
C160  H191  S    
Cu12  O45   S    
C91   H145  S    
C160  O46   D    
C230  C234  A    
C214  H71   S    
C121  C123  A    
C171  C275  S    
C298  H115  S    
C195  C196  S    
C155  C261  A    
C119  C126  A    
C61   C65   A    
C58   C67   A    
C56   C185  S    
C169  H9    S    
C246  O19   A    
C204  O76   D    
C164  C237  S    
C40   C77   A    
C218  H91   S    
C171  H11   S    
C100  C117  A    
C113  C157  A    
C186  C187  S    
C194  H43   S    
C171  O57   D    
Cu1   Cu6   S    
C26   C30   A    
C236  C241  A    
C202  H60   S    
C235  C240  A    
C168  H186  S    
C139  C218  S    
C44   O30   A    
C25   C180  S    
C50   O88   A    
C49   O42   A    
C129  C144  S    
Cu1   O14   S    
C165  C238  S    
C269  C274  A    
C112  O12   A    
Cu7   O11   S    
C247  O16   A    
C258  H35   S    
C183  O69   D    
C114  C147  A    
C14   C173  S    
C122  H163  S    
C100  C203  S    
C63   H135  S    
Cu11  O39   S    
C285  C289  A    
C232  C236  A    
Cu8   Cu9   S    
C51   C277  S    
C189  C191  S    
C44   O35   A    
Cu3   O42   S    
C149  C153  A    
C229  C231  S    
C202  O74   D    
C282  H109  S    
C83   C98   S    
C82   H141  S    
C185  H32   S    
C203  O75   D    
C123  H164  S    
C145  C150  A    
C282  C287  A    
C70   C198  S    
C225  H94   S    
C199  O72   D    
C81   H140  S    
C42   C261  S    
C116  C149  A    
Cu1   O12   S    
Cu5   Cu7   S    
C271  C276  A    
C36   O25   A    
Cu7   O21   S    
C51   O56   A    
C163  O49   D    
C268  H90   S    
C169  O54   D    
C170  H10   S    
C206  O79   D    
C181  H21   S    
C207  O80   D    
C196  H52   S    
C134  C139  A    
C54   O5    A    
C92   H151  S    
C154  C250  A    
C222  C225  S    
C220  H85   S    
C47   O38   A    
C238  C243  A    
C158  H180  S    
C209  O82   D    
C43   O33   A    
Cu12  O5    S    
C41   C250  S    
C147  C151  A    
C127  C129  A    
C176  O62   D    
C221  C222  S    
C179  H187  S    
C24   C283  A    
C8    C12   A    
C223  O11   A    
Cu3   O67   S    
C292  C301  A    
Cu8   O36   S    
C4    C302  A    
C23   C28   A    
C209  H67   S    
C291  C300  A    
C5    C303  A    
C194  H41   S    
C72   C200  S    
C55   C69   S    
C102  C117  A    
C6    C304  A    
C184  O70   D    
C193  H45   S    
Cu12  O40   S    
Cu11  O30   S    
C257  C279  A    
C270  H106  S    
C288  C292  A    
C122  C131  A    
C33   C292  S    
C217  H78   S    
C227  O85   D    
C293  H120  S    
Cu3   O7    S    
C164  H5    S    
C198  H56   S    
C18   C22   A    
Cu6   O9    S    
C270  C275  A    
C103  C205  S    
C176  H17   S    
C66   C86   S    
C103  C107  A    
C192  H48   S    
C48   C117  S    
Cu7   O20   S    
Cu10  O29   S    
C93   C96   A    
C57   C101  A    
C79   C124  A    
C1    C17   S    
C179  C224  A    
C87   C98   A    
C122  C125  A    
C120  C130  A    
C90   C135  A    
Cu5   O34   S    
C126  H166  S    
C60   C69   A    
C256  C260  A    
C35   C79   A    
Cu6   O18   S    
C108  C110  A    
C149  H176  S    
C301  H119  S    
C91   C95   A    
Cu10  O38   S    
C32   C291  S    
C201  C231  A    
C132  C207  S    
Cu11  O26   S    
C221  H99   S    
C231  C235  A    
C91   C99   A    
C70   C85   A    
C189  H37   S    
C60   C195  S    
C102  C204  S    
C106  C109  A    
C170  C274  S    
C58   C62   A    
C74   C124  S    
C37   C74   A    
C29   C184  S    
C165  O51   D    
C191  H33   S    
C211  H75   S    
Cu7   O13   S    
C228  C230  S    
C20   C239  S    
C213  C214  S    
C133  C208  S    
C15   C19   A    
Cu11  O33   S    
C5    C264  S    
C48   O40   A    
C79   C245  S    
C219  H88   S    
C18   C112  S    
C11   H132  S    
C3    C7    A    
C75   C135  S    
C20   C25   A    
C248  O17   A    
C246  O15   A    
Cu4   O8    S    
C76   C115  A    
C42   O28   A    
C234  C238  A    
C302  H124  S    
C265  C269  A    
C105  C109  A    
C30   C289  S    
C180  H20   S    
C267  C271  A    
C78   C83   A    
C258  C263  A    
C159  H190  S    
C198  O71   D    
C12   C17   A    
C42   O32   A    
C38   C295  A    
C104  C206  S    
C175  O61   D    
C167  H8    S    
C162  O48   D    
C190  H188  S    
C10   H131  S    
C68   C113  A    
C256  H13   S    
C188  H39   S    
C212  C226  S    
C132  C143  A    
C245  O18   A    
C63   C66   A    
C204  H62   S    
C133  C138  A    
C88   H143  S    
C134  C209  S    
C274  C278  A    
C87   C92   A    
Cu8   O27   S    
C45   C141  S    
C247  O20   A    
C226  O84   D    
C59   C192  S    
Cu3   O4    S    
C228  O86   D    
C195  H54   S    
C222  H97   S    
C55   O7    A    
Cu10  O35   S    
C244  H171  S    
C243  H160  S    
C120  C127  A    
C286  C290  A    
C257  C262  A    
C152  H116  S    
C148  C152  A    
C216  H81   S    
C284  C288  A    
C169  C273  S    
C259  C264  A    
C74   C111  A    
C45   O37   A    
Cu2   O6    S    
C40   C297  A    
C51   O2    A    
C197  H49   S    
C273  C277  A    
Cu3   Cu4   S    
C275  C279  A    
C9    C14   A    
C104  C118  A    
C163  H4    S    
C105  H155  S    
C206  H64   S    
C37   H146  S    
C177  O63   D    
C196  H53   S    
C47   O39   A    
Cu12  O2    S    
C184  H25   S    
C19   C223  S    
C285  H111  S    
C154  H177  S    
C214  H72   S    
C43   C272  S    
C45   O36   A    
C205  H63   S    
C284  H110  S    
C158  C283  A    
C52   O3    A    
C228  H103  S    
Cu5   O17   S    
C244  C253  A    
C1    O9    A    
C260  H57   S    
C103  C118  A    
C113  C248  S    
C224  C227  S    
C172  O58   D    
C219  C220  S    
C239  O13   A    
C52   C278  S    
Cu9   O24   S    
C174  O60   D    
C53   C279  S    
C137  C141  A    
C15   C174  S    
C43   O29   A    
C150  C293  A    
Cu4   O3    S    
C217  H80   S    
C155  H178  S    
Cu2   O56   S    
C71   C199  S    
C156  C272  A    
C53   O4    A    
Cu5   O16   S    
C73   C202  S    
C126  C129  A    
Cu8   O32   S    
C8    C30   A    
C159  C232  S    
C132  C137  A    
C262  H68   S    
C136  C144  A    
C168  C212  A    
C186  H30   S    
C185  C186  S    
C46   H183  S    
C201  C253  A    
C90   C246  S    
C242  H149  S    
C186  H29   S    
C136  C210  S    
C187  H27   S    
C180  O65   D    
C156  H179  S    
C24   C253  S    
C128  C143  S    
C255  H2    S    
C24   C68   A    
C26   C181  S    
Cu5   O23   S    
C35   C294  A    
C13   C57   A    
C159  O44   D    
C62   H134  S    
C56   C61   A    
C185  H31   S    
C199  H58   S    
C190  C230  A    
C260  C265  A    
C299  C303  A    
C7    C284  A    
C300  C304  A    
C124  C154  A    
C254  H182  S    
C241  H138  S    
C41   O27   A    
C225  H93   S    
C215  H84   S    
C195  H55   S    
C14   C18   A    
C53   O78   A    
C92   C96   A    
C213  H74   S    
C215  C216  S    
C218  C219  S    
C150  H1    S    
C2    C46   A    
C257  H24   S    
C197  H51   S    
C47   C142  S    
C36   O26   A    
C100  C105  A    
C137  C211  S    
C5    C281  A    
C289  C298  A    
C200  H59   S    
C256  C278  A    
C239  O34   A    
C167  C271  S    
C35   H181  S    
C10   C15   A    
C111  C145  A    
C54   O6    A    
C140  C221  S    
C2    C261  A    
C254  C258  A    
C220  H86   S    
C61   H133  S    
C135  C155  A    
C218  H92   S    
C11   C16   A    
C219  H89   S    
C70   C81   A    
C214  H70   S    
C23   C178  S    
C71   C85   A    
C161  C234  S    
C268  C273  A    
C161  H192  S    
C72   C78   A    
C303  H125  S    
C227  H102  S    
C106  H156  S    
C194  H42   S    
C148  H175  S    
C121  C131  A    
C153  H127  S    
C49   O43   A    
C296  H122  S    
C38   C75   A    
Cu1   O15   S    
C281  H108  S    
C255  C259  A    
C101  C146  A    
C133  C143  A    
C58   C188  S    
Cu6   O10   S    
C147  H174  S    
C280  H107  S    
C223  O23   A    
C216  C217  S    
C266  C270  A    
C300  H118  S    
C95   H154  S    
C254  C276  A    
C187  H28   S    
C54   C67   S    
C288  H114  S    
C48   O41   A    
C188  C189  S    
C125  C128  A    
C49   C118  S    
C182  H22   S    
C264  C268  A    
C21   C176  S    
C286  H112  S    
C6    C265  S    
C190  C252  A    
Cu6   O19   S    
C75   C114  A    
C39   C76   A    
C229  O87   D    
C111  H168  S    
C211  C213  S    
C57   H184  S    
Cu4   O78   S    
C225  H95   S    
C221  H98   S    
C287  C291  A    
C77   C116  A    
C109  C130  S    
C81   C84   A    
C134  C144  A    
C13   C252  S    
C88   C93   A    
C243  C252  A    
C62   C65   A    
C107  H157  S    
C191  H36   S    
C290  C299  A    
C52   O67   A    
C205  O77   D    
C262  C266  A    
C121  H162  S    
C65   C85   S    
C140  C142  A    
C56   C67   A    
C87   H142  S    
C233  C237  A    
C245  O14   A    
C160  C233  S    
Cu2   Cu12  S    
C192  C193  S    
Cu2   O41   S    
C27   C182  S    
C203  H61   S    
C116  H172  S    
C127  H167  S    
C123  C128  A    
C4    C263  S    
C125  H165  S    
C73   C80   A    
C1    O1    A    
C102  C106  A    
Cu4   O43   S    
C88   C98   A    
C73   C86   A    
C38   H147  S    
C9    C31   A    
C183  H23   S    
Cu9   O28   S    
C10   C32   A    
C146  C156  A    
C192  H47   S    
C50   C276  S    
C39   C296  A    
C297  H123  S    
C179  C251  A    
C151  H105  S    
C80   H139  S    
C34   O24   A    
C3    C301  A    
C77   C157  S    
C188  H40   S    
C101  C247  S    
