data_mof_unit_43026.cif
_audit_creation_date              2012-12-11T15:22:24-0500
_audit_creation_method            fapswitch 2.2
_symmetry_space_group_name_H-M    P1
_symmetry_Int_Tables_number       1
_space_group_crystal_system       triclinic
_cell_length_a                    22.446844
_cell_length_b                    12.974367
_cell_length_c                    27.062957
_cell_angle_alpha                 89.641753
_cell_angle_beta                  90.578392
_cell_angle_gamma                 90.045156
_cell_volume                      7881.08445994

loop_
_atom_site_label
_atom_site_type_symbol
_atom_type_description
_atom_site_fract_x
_atom_site_fract_y
_atom_site_fract_z
_atom_type_partial_charge
C1    C     C_R   0.721180 0.346484 0.178972 0.575612
C2    C     C_R   0.280378 0.342396 0.822734 0.556874
C3    C     C_R   0.221183 0.846484 0.178977 0.575606
C4    C     C_R   0.780384 0.842383 0.822739 0.556803
C5    C     C_R   0.480342 0.156113 0.870604 0.021070
C6    C     C_R   0.519867 0.168866 0.129486 0.043751
C7    C     C_R   0.980292 0.656151 0.870625 0.020917
C8    C     C_R   0.019833 0.668877 0.129503 0.043691
C9    C     C_R   0.522793 0.262331 0.101639 0.222075
C10   C     C_R   0.500505 0.247851 0.892777 0.226873
C11   C     C_R   0.022730 0.762363 0.101666 0.222073
C12   C     C_R   0.000384 0.747921 0.892810 0.226631
C13   C     C_R   0.515970 0.260177 0.049670 0.031693
C14   C     C_R   0.507672 0.252042 0.944838 0.023860
C15   C     C_R   0.015863 0.760232 0.049701 0.031747
C16   C     C_R   0.007526 0.752118 0.944872 0.023772
C17   C     C_R   0.501201 0.166693 0.026183 0.017000
C18   C     C_R   0.497136 0.162710 0.973877 0.002413
C19   C     C_R   0.001096 0.666745 0.026211 0.017024
C20   C     C_R   0.997020 0.662770 0.973905 0.002436
C21   C     C_R   0.526437 0.348341 0.020266 -0.065560
C22   C     C_R   0.522722 0.344157 0.968858 -0.051845
C23   C     C_R   0.026277 0.848422 0.020304 -0.065746
C24   C     C_R   0.022536 0.844250 0.968897 -0.052139
C25   C     C_R   0.739172 0.964697 0.127992 -0.006969
C26   C     C_R   0.260986 0.968072 0.873687 -0.033770
C27   C     C_R   0.239128 0.464803 0.127963 -0.006989
C28   C     C_R   0.760880 0.467722 0.873611 -0.033864
C29   C     C_R   0.770070 0.026931 0.093171 0.285776
C30   C     C_R   0.218520 0.017220 0.904814 0.246575
C31   C     C_R   0.270053 0.527046 0.093158 0.285765
C32   C     C_R   0.718190 0.516445 0.904675 0.246669
C33   C     C_R   0.762613 0.008981 0.042780 0.266293
C34   C     C_R   0.221406 0.002700 0.956060 0.273898
C35   C     C_R   0.262581 0.509170 0.042760 0.266330
C36   C     C_R   0.721062 0.502015 0.955929 0.273464
C37   C     C_R   0.733278 0.919378 0.026542 0.013869
C38   C     C_R   0.264581 0.937289 0.976724 0.009002
C39   C     C_R   0.233151 0.419670 0.026496 0.013868
C40   C     C_R   0.764407 0.437013 0.976652 0.009124
C41   C     C_R   0.706856 0.852916 0.060735 -0.091553
C42   C     C_R   0.303069 0.882465 0.946462 -0.138383
C43   C     C_R   0.206682 0.353219 0.060668 -0.091557
C44   C     C_R   0.803060 0.382404 0.946437 -0.138085
C45   C     C_R   0.551927 0.158378 0.178031 0.627782
C46   C     C_R   0.448194 0.156120 0.821910 0.592491
C47   C     C_R   0.051923 0.658378 0.178034 0.627765
C48   C     C_R   0.948184 0.656126 0.821916 0.592359
C49   C     C_R   0.707954 0.876499 0.111098 -0.065996
C50   C     C_R   0.301477 0.896633 0.895311 -0.074966
C51   C     C_R   0.207837 0.376696 0.111041 -0.065977
C52   C     C_R   0.801496 0.396528 0.895281 -0.074991
C53   C     C_R   0.693952 0.876820 0.940930 0.287859
C54   C     C_R   0.285374 0.974842 0.066209 0.284826
C55   C     C_R   0.193848 0.377346 0.940850 0.288281
C56   C     C_R   0.785210 0.474790 0.066118 0.284574
C57   C     C_R   0.706740 0.863807 0.890691 -0.077607
C58   C     C_R   0.272731 0.953787 0.115838 -0.090531
C59   C     C_R   0.206678 0.364248 0.890623 -0.077070
C60   C     C_R   0.772615 0.453798 0.115765 -0.090622
C61   C     C_R   0.812381 0.880899 0.909238 0.230349
C62   C     C_R   0.211896 0.807685 0.090542 0.264703
C63   C     C_R   0.312346 0.380708 0.909262 0.230347
C64   C     C_R   0.711858 0.307560 0.090551 0.264750
C65   C     C_R   0.799790 0.882235 0.958927 -0.054300
C66   C     C_R   0.225107 0.827745 0.041627 -0.041403
C67   C     C_R   0.299685 0.382221 0.958937 -0.054152
C68   C     C_R   0.725019 0.327561 0.041621 -0.041227
C69   C     C_R   0.741169 0.887433 0.975093 0.030184
C70   C     C_R   0.261322 0.910976 0.029122 0.038184
C71   C     C_R   0.241044 0.387730 0.975049 0.030291
C72   C     C_R   0.761176 0.410815 0.029065 0.038265
C73   C     C_R   0.765992 0.868122 0.874147 -0.017243
C74   C     C_R   0.235423 0.871006 0.127956 0.038158
C75   C     C_R   0.265971 0.368186 0.874133 -0.017035
C76   C     C_R   0.735386 0.370953 0.127934 0.038234
C77   C     C_R   0.525523 0.170004 0.370657 0.035297
C78   C     C_R   0.474517 0.171044 0.629359 0.036153
C79   C     C_R   0.025522 0.670002 0.370657 0.035302
C80   C     C_R   0.974518 0.671042 0.629359 0.036156
C81   C     C_R   0.535338 0.260448 0.399059 0.204984
C82   C     C_R   0.463818 0.260815 0.600229 0.204115
C83   C     C_R   0.035336 0.760447 0.399058 0.204983
C84   C     C_R   0.963817 0.760809 0.600228 0.204112
C85   C     C_R   0.525920 0.258679 0.449632 -0.081987
C86   C     C_R   0.472935 0.258634 0.549617 -0.082909
C87   C     C_R   0.025921 0.758676 0.449632 -0.082003
C88   C     C_R   0.972934 0.758627 0.549616 -0.082912
C89   C     C_R   0.731203 0.003346 0.178842 0.585623
C90   C     C_R   0.269097 0.004606 0.821902 0.557598
C91   C     C_R   0.231193 0.503375 0.178832 0.585560
C92   C     C_R   0.769067 0.504500 0.821871 0.557494
C93   C     C_R   0.503840 0.170642 0.473028 -0.053507
C94   C     C_R   0.495623 0.170862 0.526923 -0.053553
C95   C     C_R   0.003845 0.670637 0.473029 -0.053510
C96   C     C_R   0.995627 0.670858 0.526924 -0.053557
C97   C     C_R   0.487544 0.085192 0.444611 -0.091573
C98   C     C_R   0.512826 0.086295 0.556053 -0.091025
C99   C     C_R   0.987549 0.585187 0.444612 -0.091582
C100  C     C_R   0.012833 0.586296 0.556055 -0.091033
C101  C     C_R   0.497301 0.084828 0.393673 0.204399
C102  C     C_R   0.503352 0.086371 0.607017 0.205370
C103  C     C_R   0.997304 0.584824 0.393674 0.204396
C104  C     C_R   0.003356 0.586372 0.607019 0.205365
C105  C     C_R   0.741786 0.947567 0.370575 0.004575
C106  C     C_R   0.258640 0.950303 0.628922 0.003699
C107  C     C_R   0.241789 0.447567 0.370575 0.004568
C108  C     C_R   0.758640 0.450310 0.628919 0.003697
C109  C     C_R   0.692050 0.908596 0.396835 -0.075320
C110  C     C_R   0.308523 0.912087 0.602786 -0.075242
C111  C     C_R   0.192055 0.408586 0.396835 -0.075312
C112  C     C_R   0.808523 0.412090 0.602785 -0.075226
C113  C     C_R   0.695578 0.897741 0.447608 -0.084346
C114  C     C_R   0.305115 0.901486 0.552022 -0.083794
C115  C     C_R   0.195585 0.397728 0.447608 -0.084348
C116  C     C_R   0.805117 0.401494 0.552021 -0.083799
C117  C     C_R   0.749891 0.909317 0.472298 0.009023
C118  C     C_R   0.250899 0.913021 0.527150 0.009902
C119  C     C_R   0.249897 0.409324 0.472298 0.009014
C120  C     C_R   0.750904 0.413049 0.527147 0.009885
C121  C     C_R   0.801361 0.932267 0.445653 -0.051768
C122  C     C_R   0.199421 0.936241 0.553581 -0.048206
C123  C     C_R   0.301366 0.432288 0.445654 -0.051752
C124  C     C_R   0.699427 0.436280 0.553576 -0.048195
C125  C     C_R   0.797731 0.952676 0.395140 0.239237
C126  C     C_R   0.202865 0.956161 0.604064 0.240858
C127  C     C_R   0.297734 0.452689 0.395140 0.239241
C128  C     C_R   0.702867 0.456185 0.604059 0.240859
C129  C     C_R   0.784111 0.971350 0.553996 -0.121966
C130  C     C_R   0.217097 0.973836 0.444707 -0.124208
C131  C     C_R   0.284096 0.471375 0.553999 -0.121998
C132  C     C_R   0.717124 0.473875 0.444701 -0.124242
C133  C     C_R   0.721170 0.346676 0.321733 0.539817
C134  C     C_R   0.278863 0.346926 0.678207 0.545823
C135  C     C_R   0.221170 0.846675 0.321733 0.539813
C136  C     C_R   0.778862 0.846927 0.678207 0.545875
C137  C     C_R   0.789018 0.960851 0.604950 -0.087806
C138  C     C_R   0.211884 0.962019 0.393890 -0.090015
C139  C     C_R   0.289002 0.460869 0.604953 -0.087811
C140  C     C_R   0.711905 0.462044 0.393884 -0.090011
C141  C     C_R   0.726275 0.808849 0.601048 -0.055561
C142  C     C_R   0.273447 0.808851 0.399376 -0.055152
C143  C     C_R   0.226302 0.308810 0.601041 -0.055568
C144  C     C_R   0.773425 0.308831 0.399381 -0.055160
C145  C     C_R   0.723239 0.816231 0.550202 0.238530
C146  C     C_R   0.276916 0.817759 0.450157 0.239807
C147  C     C_R   0.223268 0.316203 0.550196 0.238551
C148  C     C_R   0.776896 0.317751 0.450162 0.239839
C149  C     C_R   0.752380 0.898253 0.526090 0.028479
C150  C     C_R   0.248427 0.900933 0.473413 0.028945
C151  C     C_R   0.252387 0.398256 0.526089 0.028474
C152  C     C_R   0.748432 0.400955 0.473411 0.028942
C153  C     C_R   0.761354 0.877822 0.628468 -0.006626
C154  C     C_R   0.238860 0.877870 0.371240 -0.004427
C155  C     C_R   0.261357 0.377812 0.628467 -0.006591
C156  C     C_R   0.738859 0.377868 0.371240 -0.004405
C157  C     C_R   0.553703 0.159112 0.321539 0.579493
C158  C     C_R   0.446359 0.159534 0.678493 0.583950
C159  C     C_R   0.053703 0.659112 0.321539 0.579493
C160  C     C_R   0.946359 0.659533 0.678493 0.583970
C161  C     C_R   0.732090 0.999987 0.322611 0.549842
C162  C     C_R   0.268019 0.000773 0.677208 0.556844
C163  C     C_R   0.232091 0.499987 0.322611 0.549865
C164  C     C_R   0.768019 0.500774 0.677208 0.556852
C165  C     C_R   0.496423 0.079926 0.106554 0.207815
C166  C     C_R   0.482272 0.063486 0.898964 0.191212
C167  C     C_R   0.996374 0.579941 0.106575 0.207659
C168  C     C_R   0.982222 0.563528 0.898988 0.191325
C169  C     C_R   0.490024 0.077105 0.054790 0.055264
C170  C     C_R   0.484664 0.068184 0.950642 0.035877
C171  C     C_R   0.989940 0.577140 0.054813 0.055212
C172  C     C_R   0.984573 0.568234 0.950666 0.036040
C173  C     C_R   0.473193 0.980330 0.979605 -0.035243
C174  C     C_R   0.475097 0.985004 0.030727 -0.029861
C175  C     C_R   0.973098 0.480373 0.979624 -0.035167
C176  C     C_R   0.975001 0.485041 0.030747 -0.029883
Cr1   Cr    Cr6+3 0.756570 0.170940 0.251190 1.168414
Cr2   Cr    Cr6+3 0.243430 0.170940 0.748810 1.151848
Cr3   Cr    Cr6+3 0.256570 0.670940 0.251190 1.168391
Cr4   Cr    Cr6+3 0.743430 0.670940 0.748810 1.151741
Cr5   Cr    Cr6+3 0.623740 0.299110 0.249580 1.191011
Cr6   Cr    Cr6+3 0.376260 0.299110 0.750420 1.197721
Cr7   Cr    Cr6+3 0.123740 0.799110 0.249580 1.190997
Cr8   Cr    Cr6+3 0.876260 0.799110 0.750420 1.197699
Cr9   Cr    Cr6+3 0.625990 0.036240 0.250480 1.153211
Cr10  Cr    Cr6+3 0.374010 0.036240 0.749520 1.139907
Cr11  Cr    Cr6+3 0.125990 0.536240 0.250480 1.153177
Cr12  Cr    Cr6+3 0.874010 0.536240 0.749520 1.139838
H1    H     H_    0.685995 0.782266 0.048131 0.219951
H2    H     H_    0.333771 0.827218 0.962904 0.191846
H3    H     H_    0.185754 0.282641 0.048040 0.220173
H4    H     H_    0.833866 0.327361 0.962917 0.191627
H5    H     H_    0.533954 0.020388 0.539190 0.166556
H6    H     H_    0.466921 0.018914 0.462013 0.166297
H7    H     H_    0.033964 0.520390 0.539194 0.166546
H8    H     H_    0.966928 0.518907 0.462014 0.166288
H9    H     H_    0.537343 0.326388 0.470979 0.168570
H10   H     H_    0.460866 0.325770 0.527711 0.167536
H11   H     H_    0.037342 0.826388 0.470978 0.168560
H12   H     H_    0.960863 0.825759 0.527708 0.167530
H13   H     H_    0.806846 0.034605 0.536249 0.204545
H14   H     H_    0.194943 0.038072 0.461739 0.203362
H15   H     H_    0.306813 0.534654 0.536255 0.204540
H16   H     H_    0.694992 0.538136 0.461729 0.203346
H17   H     H_    0.816672 0.014270 0.625547 0.189395
H18   H     H_    0.184574 0.015494 0.372733 0.186745
H19   H     H_    0.316638 0.514309 0.625554 0.189351
H20   H     H_    0.684610 0.515531 0.372723 0.186711
H21   H     H_    0.461357 0.907216 0.963196 0.196001
H22   H     H_    0.466143 0.914586 0.050907 0.204184
H23   H     H_    0.961269 0.407255 0.963210 0.195865
H24   H     H_    0.966051 0.414612 0.050922 0.204109
H25   H     H_    0.655398 0.880625 0.467990 0.185498
H26   H     H_    0.345288 0.884211 0.531774 0.184450
H27   H     H_    0.155407 0.380593 0.467989 0.185483
H28   H     H_    0.845288 0.384202 0.531773 0.184432
H29   H     H_    0.705625 0.742571 0.618454 0.201614
H30   H     H_    0.293436 0.741709 0.382637 0.199514
H31   H     H_    0.205671 0.242507 0.618444 0.201585
H32   H     H_    0.793395 0.241670 0.382647 0.199482
H33   H     H_    0.844150 0.937105 0.464411 0.167689
H34   H     H_    0.156716 0.941337 0.534685 0.169557
H35   H     H_    0.344153 0.437140 0.464413 0.167721
H36   H     H_    0.656723 0.441389 0.534678 0.169596
H37   H     H_    0.530967 0.414408 0.948285 0.232113
H38   H     H_    0.538646 0.421468 0.036413 0.219705
H39   H     H_    0.030740 0.914521 0.948330 0.231823
H40   H     H_    0.038465 0.921561 0.036454 0.219449
H41   H     H_    0.670533 0.852452 0.864514 0.205207
H42   H     H_    0.290951 0.002517 0.144635 0.163590
H43   H     H_    0.170478 0.353093 0.864415 0.205188
H44   H     H_    0.790817 0.502615 0.144534 0.163547
H45   H     H_    0.836329 0.889515 0.985259 0.190570
H46   H     H_    0.205258 0.780434 0.012951 0.188840
H47   H     H_    0.336207 0.389326 0.985300 0.190610
H48   H     H_    0.705175 0.280179 0.012973 0.188886
O1    O     O_R   0.769900 0.064540 0.196060 -0.429924
O2    O     O_R   0.230100 0.064540 0.803940 -0.429820
O3    O     O_R   0.269900 0.564540 0.196060 -0.429927
O4    O     O_R   0.730100 0.564540 0.803940 -0.429943
O5    O     O_R   0.574760 0.239320 0.300850 -0.453534
O6    O     O_R   0.425240 0.239320 0.699150 -0.447361
O7    O     O_R   0.074760 0.739320 0.300850 -0.453529
O8    O     O_R   0.925240 0.739320 0.699150 -0.447339
O9    O     O_R   0.566290 0.069580 0.305400 -0.457087
O10   O     O_R   0.433710 0.069580 0.694600 -0.456014
O11   O     O_R   0.066290 0.569580 0.305400 -0.457080
O12   O     O_R   0.933710 0.569580 0.694600 -0.456004
O13   O     O_R   0.680760 0.993330 0.302620 -0.518119
O14   O     O_R   0.319240 0.993330 0.697380 -0.513244
O15   O     O_R   0.180760 0.493330 0.302620 -0.518100
O16   O     O_R   0.819240 0.493330 0.697380 -0.513253
O17   O     O_3   0.668770 0.168760 0.250420 -0.304548
O18   O     O_3   0.331230 0.168760 0.749580 -0.318627
O19   O     O_3   0.168770 0.668760 0.250420 -0.304580
O20   O     O_3   0.831230 0.668760 0.749580 -0.318601
O21   O     O_R   0.750800 0.274080 0.199250 -0.451826
O22   O     O_R   0.249200 0.274080 0.800750 -0.495586
O23   O     O_R   0.250800 0.774080 0.199250 -0.451903
O24   O     O_R   0.749200 0.774080 0.800750 -0.495931
O25   O     O_R   0.669990 0.371670 0.194150 -0.448831
O26   O     O_R   0.330010 0.371670 0.805850 -0.429102
O27   O     O_R   0.169990 0.871670 0.194150 -0.448815
O28   O     O_R   0.830010 0.871670 0.805850 -0.428993
O29   O     O_R   0.574600 0.238480 0.197800 -0.432472
O30   O     O_R   0.425400 0.238480 0.802200 -0.434627
O31   O     O_R   0.074600 0.738480 0.197800 -0.432473
O32   O     O_R   0.925400 0.738480 0.802200 -0.434781
O33   O     O_R   0.566130 0.068680 0.194240 -0.438715
O34   O     O_R   0.433870 0.068680 0.805760 -0.453605
O35   O     O_R   0.066130 0.568680 0.194240 -0.438736
O36   O     O_R   0.933870 0.568680 0.805760 -0.453583
O37   O     O_R   0.680610 0.992490 0.199570 -0.488544
O38   O     O_R   0.319390 0.992490 0.800430 -0.501475
O39   O     O_R   0.180610 0.492490 0.199570 -0.488627
O40   O     O_R   0.819390 0.492490 0.800430 -0.501513
O41   O     O_R   0.770060 0.065440 0.307230 -0.451141
O42   O     O_R   0.229940 0.065440 0.692770 -0.444926
O43   O     O_R   0.270060 0.565440 0.307230 -0.451124
O44   O     O_R   0.729940 0.565440 0.692770 -0.444884
O45   O     O_R   0.750960 0.274920 0.302300 -0.512860
O46   O     O_R   0.249040 0.274920 0.697700 -0.508391
O47   O     O_R   0.250960 0.774920 0.302300 -0.512861
O48   O     O_R   0.749040 0.774920 0.697700 -0.508354
O49   O     O_R   0.670160 0.372580 0.305320 -0.464788
O50   O     O_R   0.329840 0.372580 0.694680 -0.460633
O51   O     O_R   0.170160 0.872580 0.305320 -0.464804
O52   O     O_R   0.829840 0.872580 0.694680 -0.460609
Cl1   Cl    Cl    0.487838 0.940516 0.870593 -0.471472
Cl2   Cl    Cl    0.473365 0.972840 0.142897 -0.497231
Cl3   Cl    Cl    0.987855 0.440559 0.870622 -0.471332
Cl4   Cl    Cl    0.973357 0.472830 0.142918 -0.497340
Cl5   Cl    Cl    0.887376 0.900859 0.894529 -0.486528
Cl6   Cl    Cl    0.165539 0.701883 0.103318 -0.604539
Cl7   Cl    Cl    0.387435 0.400047 0.894620 -0.487115
Cl8   Cl    Cl    0.665559 0.201745 0.103387 -0.604587
C177  C     C_1   0.678778 0.806563 0.144824 0.273173
N1    N     N_1   0.655411 0.750419 0.171799 -0.201725
C178  C     C_1   0.340440 0.833601 0.865981 0.297272
N2    N     N_1   0.371501 0.782712 0.842536 -0.144912
C179  C     C_1   0.178646 0.306723 0.144747 0.273310
N3    N     N_1   0.155268 0.250548 0.171707 -0.201573
C180  C     C_1   0.840577 0.333636 0.865984 0.297270
N4    N     N_1   0.871720 0.282847 0.842560 -0.144640
Cl9   Cl    Cl    0.560008 0.379537 0.374922 -0.507865
Cl10  Cl    Cl    0.438441 0.379393 0.623574 -0.508499
Cl11  Cl    Cl    0.059998 0.879540 0.374919 -0.507893
Cl12  Cl    Cl    0.938435 0.879381 0.623569 -0.508578
Cl13  Cl    Cl    0.531070 0.980783 0.641462 -0.490103
Cl14  Cl    Cl    0.470617 0.978058 0.360127 -0.489521
Cl15  Cl    Cl    0.031074 0.480787 0.641466 -0.490137
Cl16  Cl    Cl    0.970622 0.478051 0.360128 -0.489528
C181  C     C_1   0.636725 0.877623 0.373483 0.257847
N5    N     N_1   0.592674 0.851537 0.354842 -0.143775
C182  C     C_1   0.363899 0.881277 0.626244 0.257926
N6    N     N_1   0.408012 0.855312 0.644943 -0.142280
C183  C     C_1   0.136731 0.377608 0.373482 0.257840
N7    N     N_1   0.092681 0.351520 0.354841 -0.143790
C184  C     C_1   0.863896 0.381272 0.626243 0.257926
N8    N     N_1   0.908008 0.355302 0.644943 -0.142309
Cl17  Cl    Cl    0.688947 0.712887 0.518979 -0.635052
Cl18  Cl    Cl    0.310989 0.715081 0.482559 -0.633563
Cl19  Cl    Cl    0.189004 0.212842 0.518965 -0.635105
Cl20  Cl    Cl    0.810935 0.215059 0.482575 -0.633595
Cl21  Cl    Cl    0.864705 0.983054 0.364765 -0.462839
Cl22  Cl    Cl    0.135781 0.986581 0.634037 -0.451715
Cl23  Cl    Cl    0.364708 0.483073 0.364766 -0.462812
Cl24  Cl    Cl    0.635782 0.486608 0.634030 -0.451630
Cl25  Cl    Cl    0.521192 0.353190 0.854627 -0.433056
Cl26  Cl    Cl    0.535055 0.382599 0.131053 -0.483246
Cl27  Cl    Cl    0.021071 0.853274 0.854672 -0.433442
Cl28  Cl    Cl    0.034996 0.882622 0.131089 -0.483334
Cl29  Cl    Cl    0.818397 0.129499 0.110235 -0.434193
Cl30  Cl    Cl    0.160075 0.097269 0.882144 -0.405699
Cl31  Cl    Cl    0.318435 0.629525 0.110253 -0.434071
Cl32  Cl    Cl    0.659439 0.595712 0.881900 -0.404460
Cl33  Cl    Cl    0.619214 0.882982 0.959484 -0.488292
Cl34  Cl    Cl    0.328788 0.083507 0.051318 -0.590502
Cl35  Cl    Cl    0.119094 0.383879 0.959351 -0.488440
Cl36  Cl    Cl    0.828545 0.583511 0.051160 -0.591036
Cl37  Cl    Cl    0.790073 0.100568 0.999532 -0.546475
Cl38  Cl    Cl    0.169524 0.064960 0.994890 -0.501564
Cl39  Cl    Cl    0.290164 0.600691 0.999530 -0.546484
Cl40  Cl    Cl    0.668977 0.563901 0.994698 -0.501562

loop_
_geom_bond_atom_site_label_1
_geom_bond_atom_site_label_2
_ccdc_geom_bond_type
C99   C103  A    
C7    C168  A    
C55   C59   A    
C142  C146  A    
C145  Cl17  S    
C19   C20   A    
C116  H28   S    
C53   C69   A    
C38   C70   S    
C22   H37   S    
C179  N3    T    
C112  C184  S    
C108  C164  S    
C66   H46   S    
Cr7   O19   S    
Cr10  O18   S    
C37   C69   S    
C26   C50   A    
C95   C99   A    
C146  Cl18  S    
Cr6   O26   S    
C29   C33   A    
C100  C104  A    
C104  Cl15  S    
Cr7   O31   S    
Cr12  O16   S    
C3    C74   S    
C9    C13   A    
Cr2   O22   S    
C146  C150  A    
C77   C101  A    
C12   C16   A    
Cr5   O5    S    
C56   C72   A    
C169  C174  A    
Cr2   O42   S    
C92   O40   A    
C130  H14   S    
C172  C175  A    
C141  C145  A    
C138  C154  A    
C45   O29   A    
C6    C165  A    
C4    O24   A    
C21   C22   A    
C89   O37   A    
C160  O12   A    
C41   C49   A    
C18   C170  A    
C165  C169  A    
C90   O2    A    
C27   C31   A    
C28   C32   A    
C29   Cl29  S    
C30   C34   A    
C167  C171  A    
C167  Cl4   S    
C98   C102  A    
C123  H35   S    
C60   C76   A    
C176  H24   S    
C98   H5    S    
C78   C82   A    
C180  N4    T    
C54   C70   A    
C68   C72   A    
C63   Cl7   S    
C13   C21   A    
C64   Cl8   S    
C49   C177  S    
Cr6   O18   S    
C140  C156  A    
C134  O50   A    
C20   C172  A    
C132  C152  A    
C130  C138  A    
Cr1   O1    S    
C34   Cl38  S    
C47   O31   A    
C137  C153  A    
C84   C88   A    
Cr10  O38   S    
C119  C123  A    
C26   C90   S    
C5    C46   S    
C105  C125  A    
C7    C48   S    
C8    C47   S    
C107  C127  A    
C44   H4    S    
C79   C159  S    
C136  C153  S    
C2    O26   A    
C163  O43   A    
Cr2   O46   S    
C3    O23   A    
C91   O39   A    
C62   Cl6   S    
C56   Cl36  S    
Cr11  O15   S    
C136  O48   A    
Cr9   O13   S    
C61   C65   A    
C129  C137  A    
C122  H34   S    
Cr4   O4    S    
C117  C149  S    
C129  C149  A    
C55   C71   A    
C2    C75   S    
C165  Cl2   S    
C114  H26   S    
Cr4   O44   S    
C59   H43   S    
C6    C9    A    
C81   Cl9   S    
C66   C70   A    
C121  C125  A    
C64   C68   A    
C164  O16   A    
C144  H32   S    
C54   Cl34  S    
C158  O6    A    
C57   C73   A    
C142  H30   S    
Cr11  O11   S    
Cr8   O28   S    
C85   C93   A    
C78   C158  S    
C124  H36   S    
C87   C95   A    
C130  C150  A    
C23   C24   A    
C27   C91   S    
C175  H23   S    
C110  C114  A    
Cr3   O19   S    
C44   C52   A    
C46   O34   A    
Cr12  O36   S    
C52   C180  S    
C79   C103  A    
Cr7   O7    S    
C27   C51   A    
C111  C183  S    
C7    C12   A    
C62   C66   A    
Cr12  O20   S    
C10   C14   A    
C53   Cl33  S    
C51   C179  S    
Cr3   O23   S    
C108  C128  A    
C116  C120  A    
C144  C156  A    
C147  C151  A    
C147  Cl19  S    
C58   H42   S    
C123  C127  A    
C139  C155  A    
C4    O28   A    
C54   C58   A    
C17   C18   A    
Cr8   O8    S    
C125  Cl21  S    
C90   O38   A    
C5    C166  A    
C160  O8    A    
C4    C73   S    
C139  H19   S    
C42   C50   A    
C113  C117  A    
C107  C163  S    
C166  C170  A    
C115  C119  A    
C11   Cl28  S    
C105  C161  S    
C110  C182  S    
C93   C97   A    
Cr10  O10   S    
C58   C74   A    
C105  C109  A    
C92   O4    A    
C39   C71   S    
C40   C72   S    
C1    C76   S    
C107  C111  A    
C173  H21   S    
C148  C152  A    
C26   C30   A    
Cr2   O18   S    
C117  C121  A    
C171  C176  A    
C3    O27   A    
C13   C17   A    
C14   C22   A    
C161  O41   A    
C161  O13   A    
C141  C153  A    
C63   C75   A    
Cr7   O27   S    
C96   C100  A    
Cr8   O20   S    
C37   C41   A    
C131  C139  A    
C143  H31   S    
C47   O35   A    
C40   C44   A    
C48   O36   A    
C142  C154  A    
C157  O9    A    
C81   C85   A    
Cr11  O39   S    
C83   C87   A    
C88   C96   A    
C6    C45   S    
C78   C102  A    
C133  C156  S    
C87   H11   S    
C80   C84   A    
C23   H40   S    
C138  H18   S    
C15   C19   A    
C21   H38   S    
Cr3   O47   S    
C134  O46   A    
C135  C154  S    
C80   C104  A    
C65   H45   S    
Cr9   O17   S    
C80   C160  S    
C112  C116  A    
C94   C98   A    
C118  C150  S    
Cr3   O3    S    
C141  H29   S    
C166  Cl1   S    
C101  Cl14  S    
C31   Cl31  S    
Cr4   O48   S    
C24   H39   S    
C131  H15   S    
Cr5   O49   S    
Cr9   O33   S    
C124  C128  A    
C82   Cl10  S    
Cr7   O51   S    
Cr11  O35   S    
C182  N6    T    
C34   C38   A    
C25   C29   A    
C140  H20   S    
C159  O7    A    
C1    O21   A    
Cr4   O20   S    
C132  H16   S    
C30   Cl30  S    
C89   O1    A    
C135  O47   A    
C84   Cl12  S    
C53   C57   A    
C61   C73   A    
C82   C86   A    
C99   H8    S    
C33   C37   A    
C108  C112  A    
C127  Cl23  S    
C97   H6    S    
C143  C147  A    
C178  N2    T    
C50   C178  S    
C8    C167  A    
C57   H41   S    
C77   C81   A    
C46   O30   A    
C36   Cl40  S    
Cr5   O17   S    
Cr5   O29   S    
C85   H9    S    
C133  O49   A    
C31   C35   A    
C32   C36   A    
Cr2   O2    S    
C100  H7    S    
C33   Cl37  S    
C109  C181  S    
C60   H44   S    
C35   Cl39  S    
C132  C140  A    
C106  C126  A    
C25   C89   S    
C143  C155  A    
C88   H12   S    
C163  O15   A    
C79   C83   A    
C43   C51   A    
C181  N5    T    
C65   C69   A    
C67   C71   A    
C106  C162  S    
C25   C49   A    
Cr10  O14   S    
C184  N8    T    
Cr4   O24   S    
C56   C60   A    
C168  C172  A    
Cr5   O25   S    
C168  Cl3   S    
C121  H33   S    
C62   C74   A    
Cr1   O21   S    
C145  C149  A    
C170  C173  A    
C93   C94   S    
C32   Cl32  S    
C177  N1    T    
C14   C18   A    
C35   C39   A    
C95   C96   S    
C113  H25   S    
C144  C148  A    
C162  O42   A    
C137  H17   S    
C173  C174  A    
C45   O33   A    
C67   H47   S    
C19   C171  A    
C38   C42   A    
C118  C122  A    
C17   C169  A    
C9    Cl26  S    
C48   O32   A    
C55   Cl35  S    
C103  Cl16  S    
C42   H2    S    
C157  O5    A    
C68   H48   S    
C175  C176  A    
C128  Cl24  S    
C86   C94   A    
C16   C20   A    
C15   C23   A    
Cr3   O43   S    
Cr8   O52   S    
Cr6   O6    S    
C119  C151  S    
C63   C67   A    
C120  C152  S    
C115  H27   S    
C36   C40   A    
C12   Cl27  S    
C39   C43   A    
Cr12  O40   S    
C102  Cl13  S    
C122  C126  A    
Cr9   O37   S    
Cr6   O50   S    
Cr10  O34   S    
C83   Cl11  S    
C126  Cl22  S    
C64   C76   A    
C28   C92   S    
C109  C113  A    
C159  O11   A    
C114  C118  A    
C1    O25   A    
Cr1   O45   S    
C2    O22   A    
C86   H10   S    
C11   C15   A    
Cr8   O32   S    
C10   Cl25  S    
C135  O51   A    
Cr11  O19   S    
C136  O52   A    
C59   C75   A    
Cr9   O9    S    
C106  C110  A    
C134  C155  S    
C174  H22   S    
C41   H1    S    
Cr1   O41   S    
Cr1   O17   S    
C61   Cl5   S    
C129  H13   S    
C5    C10   A    
C162  O14   A    
C28   C52   A    
Cr6   O30   S    
C8    C11   A    
C133  O45   A    
C131  C151  A    
Cr12  O12   S    
C183  N7    T    
C43   H3    S    
C16   C24   A    
C91   O3    A    
C164  O44   A    
C111  C115  A    
C158  O10   A    
C148  Cl20  S    
C97   C101  A    
C120  C124  A    
C77   C157  S    
