data_mof_unit_8104.cif
_audit_creation_date              2012-12-10T17:43:24-0500
_audit_creation_method            fapswitch 2.2
_symmetry_space_group_name_H-M    P1
_symmetry_Int_Tables_number       1
_space_group_crystal_system       triclinic
_cell_length_a                    15.076194
_cell_length_b                    13.700735
_cell_length_c                    10.6488
_cell_angle_alpha                 89.888634
_cell_angle_beta                  89.606635
_cell_angle_gamma                 90.397631
_cell_volume                      2199.45306517

loop_
_atom_site_label
_atom_site_type_symbol
_atom_type_description
_atom_site_fract_x
_atom_site_fract_y
_atom_site_fract_z
_atom_type_partial_charge
C1    C     C_R   0.328801 0.499626 0.495780 0.884779
C2    C     C_R   0.671198 0.500365 0.504232 0.882173
C3    C     C_R   0.953247 0.499995 0.502194 -0.001087
C4    C     C_R   0.046751 0.499941 0.497822 0.001607
C5    C     C_R   0.904964 0.431294 0.430401 0.044269
C6    C     C_R   0.095031 0.568645 0.569613 0.042343
C7    C     C_R   0.957633 0.635827 0.649330 -0.152514
C8    C     C_R   0.042365 0.364092 0.350722 -0.160174
C9    C     C_R   0.049813 0.636519 0.645220 0.268319
C10   C     C_R   0.950185 0.363416 0.354812 0.271764
C11   C     C_R   0.441341 0.792810 0.574948 0.051751
C12   C     C_R   0.558628 0.207204 0.424979 0.048169
C13   C     C_R   0.558626 0.793883 0.424900 0.055850
C14   C     C_R   0.441393 0.206116 0.575121 0.054833
C15   C     C_R   0.560060 0.896970 0.423139 -0.010292
C16   C     C_R   0.439950 0.103033 0.576854 -0.011200
C17   C     C_R   0.439946 0.895829 0.576780 -0.017763
C18   C     C_R   0.560041 0.104182 0.423169 -0.017321
C19   C     C_R   0.500011 0.948190 0.499986 0.092844
C20   C     C_R   0.499993 0.051817 0.499990 0.092884
C21   C     C_R   0.619820 0.949849 0.346701 -0.168027
C22   C     C_R   0.380180 0.050155 0.653276 -0.167993
C23   C     C_R   0.380156 0.947513 0.653213 -0.151139
C24   C     C_R   0.619826 0.052493 0.346730 -0.153719
C25   C     C_R   0.500077 0.500132 0.259267 0.887105
C26   C     C_R   0.499821 0.499871 0.740739 0.884788
C27   C     C_3   0.483465 0.591361 0.041253 -0.236954
C28   C     C_3   0.516333 0.408674 0.958772 -0.265191
C29   C     C_3   0.563242 0.561859 0.956820 -0.242837
C30   C     C_3   0.436553 0.438171 0.043203 -0.262609
C31   C     C_3   0.421387 0.528475 0.960149 0.430880
C32   C     C_3   0.578401 0.471577 0.039874 0.423420
C33   C     C_3   0.499821 0.499535 0.877196 -0.143924
C34   C     C_3   0.499977 0.500494 0.122820 -0.138526
C35   C     C_R   0.812604 0.432535 0.435161 -0.156849
C36   C     C_R   0.187389 0.567422 0.564829 -0.152630
C37   C     C_R   0.767760 0.500946 0.508235 -0.136986
C38   C     C_R   0.232238 0.499004 0.491785 -0.128585
C39   C     C_R   0.814781 0.568114 0.582895 0.221005
C40   C     C_R   0.185220 0.431757 0.417220 0.206558
C41   C     C_R   0.908180 0.568471 0.578811 0.026589
C42   C     C_R   0.091820 0.431441 0.421243 0.029191
Cu1   Cu    Cu3+1 0.500000 0.597420 0.500000 1.014551
Cu2   Cu    Cu3+1 0.500000 0.402580 0.500000 1.009303
H1    H     H_    0.469004 0.665820 0.076506 0.194048
H2    H     H_    0.530806 0.334212 0.923538 0.182020
H3    H     H_    0.615642 0.611617 0.919831 0.221677
H4    H     H_    0.384216 0.388341 0.080206 0.208392
H5    H     H_    0.774183 0.381386 0.380209 0.228571
H6    H     H_    0.225804 0.618604 0.619731 0.227347
H7    H     H_    0.925675 0.689472 0.708108 0.223156
H8    H     H_    0.074320 0.310441 0.291950 0.223380
H9    H     H_    0.395499 0.751552 0.633208 0.174534
H10   H     H_    0.604420 0.248478 0.366626 0.175381
H11   H     H_    0.604279 0.753415 0.366236 0.145569
H12   H     H_    0.395754 0.246582 0.633809 0.146186
H13   H     H_    0.666567 0.911848 0.286897 0.164245
H14   H     H_    0.333436 0.088155 0.713085 0.164228
H15   H     H_    0.333383 0.908571 0.712953 0.185944
H16   H     H_    0.666586 0.091435 0.286969 0.184427
N1    N     N_R   0.500000 0.743810 0.500000 -0.196066
N2    N     N_R   0.500000 0.256190 0.500000 -0.196188
O1    O     O_R   0.370260 0.582280 0.500030 -0.596290
O2    O     O_R   0.629740 0.417720 0.499970 -0.599880
O3    O     O_R   0.629740 0.582280 0.499970 -0.551106
O4    O     O_R   0.370260 0.417720 0.500030 -0.549065
O5    O     O_R   0.499980 0.582260 0.316850 -0.597802
O6    O     O_R   0.500020 0.417740 0.683150 -0.601993
O7    O     O_R   0.500020 0.582260 0.683150 -0.557151
O8    O     O_R   0.499980 0.417740 0.316850 -0.556100
S1    S     S_3+6 0.315286 0.565805 0.906578 0.029138
O9    O     O_2   0.325151 0.659088 0.833419 -0.276809
O10   O     O_2   0.276305 0.488154 0.823733 -0.307410
O11   O     O_3   0.247778 0.584651 0.030339 -0.452830
H17   H     H_    0.245033 0.521112 0.074866 0.357040
S2    S     S_3+6 0.684579 0.434526 0.093462 0.031516
O12   O     O_2   0.721256 0.511317 0.179585 -0.274877
O13   O     O_2   0.676183 0.339434 0.163075 -0.306280
O14   O     O_3   0.753594 0.421107 0.970138 -0.443679
H18   H     H_    0.721737 0.376988 0.911983 0.339244
Br1   Br    Br    0.751210 0.653658 0.696519 -0.491904
Br2   Br    Br    0.248790 0.345925 0.303949 -0.530036
Br3   Br    Br    0.109567 0.732847 0.745888 -0.378209
Br4   Br    Br    0.890441 0.267064 0.254196 -0.391024

loop_
_geom_bond_atom_site_label_1
_geom_bond_atom_site_label_2
_ccdc_geom_bond_type
C14   H12   S    
C27   C29   S    
Cu2   O4    S    
C19   C20   A    
C25   O5    A    
S2    O14   S    
C2    O3    A    
C6    C9    A    
Cu1   O1    S    
C39   C41   A    
Cu2   O2    S    
C23   H15   S    
C28   H2    S    
C17   C23   A    
C29   H3    S    
C18   C24   A    
C30   H4    S    
C16   C20   A    
C35   C37   A    
C8    C42   A    
C29   C32   S    
C30   C31   S    
C14   N2    A    
C29   C33   S    
C3    C41   A    
C28   C30   S    
C35   H5    S    
C31   C33   S    
Cu2   O8    S    
C8    H8    S    
C11   H9    S    
Cu1   O3    S    
C25   C34   S    
C27   H1    S    
C40   C42   A    
Cu1   O7    S    
C1    O1    A    
C2    O2    A    
C27   C34   S    
O11   H17   S    
C30   C34   S    
C27   C31   S    
C40   Br2   S    
C28   C32   S    
S2    O12   D    
C39   Br1   S    
C4    C6    A    
S1    O10   D    
Cu2   N2    S    
C32   C34   S    
C15   C19   A    
Cu1   Cu2   S    
C21   H13   S    
C12   N2    A    
C26   C33   S    
C15   C21   A    
C24   H16   S    
C1    O4    A    
C22   H14   S    
C1    C38   S    
C9    Br3   S    
Cu1   O5    S    
C28   C33   S    
C13   C15   A    
C14   C16   A    
Cu2   O6    S    
C3    C4    A    
C36   H6    S    
Cu1   N1    S    
C7    C9    A    
C11   C17   A    
C16   C22   A    
S2    O13   D    
C3    C5    A    
C32   S2    S    
S1    O11   S    
C26   O6    A    
C36   C38   A    
C7    H7    S    
S1    O9    D    
C37   C39   A    
C38   C40   A    
C2    C37   S    
C4    C42   A    
C5    C35   A    
C10   Br4   S    
C17   C19   A    
C6    C36   A    
C18   C20   A    
C7    C41   A    
C11   N1    A    
O14   H18   S    
C5    C10   A    
C13   N1    A    
C8    C10   A    
C21   C24   A    
C12   C18   A    
C26   O7    A    
C22   C23   A    
C25   O8    A    
C12   H10   S    
C31   S1    S    
C13   H11   S    
