data_mof_unit_20809.cif
_audit_creation_date              2012-12-10T19:52:14-0500
_audit_creation_method            fapswitch 2.2
_symmetry_space_group_name_H-M    P1
_symmetry_Int_Tables_number       1
_space_group_crystal_system       triclinic
_cell_length_a                    14.804962
_cell_length_b                    14.111436
_cell_length_c                    10.787424
_cell_angle_alpha                 90.180141
_cell_angle_beta                  92.446332
_cell_angle_gamma                 90.183989
_cell_volume                      2251.62310498

loop_
_atom_site_label
_atom_site_type_symbol
_atom_type_description
_atom_site_fract_x
_atom_site_fract_y
_atom_site_fract_z
_atom_type_partial_charge
C1    C     C_R   0.325128 0.500443 0.496625 0.896374
C2    C     C_3   0.588843 0.522084 0.937663 0.261332
C3    C     C_R   0.091482 0.585627 0.584179 0.111159
C4    C     C_R   0.099023 0.412370 0.591296 0.099626
C5    C     C_R   0.178899 0.589386 0.535678 0.099714
C6    C     C_R   0.178791 0.414126 0.525639 0.071997
C7    C     C_R   0.225563 0.501942 0.513755 -0.149998
C8    C     C_R   0.050533 0.496674 0.601659 -0.014178
C9    C     C_R   0.919212 0.463975 0.460502 -0.165402
C10   C     C_R   0.894153 0.515868 0.671192 -0.179842
C11   C     C_R   0.826864 0.467288 0.432100 -0.215210
C12   C     C_R   0.802878 0.522830 0.640846 -0.182873
C13   C     C_R   0.769232 0.499075 0.522096 0.001138
C14   C     C_R   0.952891 0.489607 0.579894 0.171418
C15   C     C_R   0.511152 0.103427 0.392086 -0.319963
C16   C     C_R   0.440046 0.896245 0.426909 -0.326431
C17   C     C_R   0.492647 0.499289 0.257805 0.976751
C18   C     C_R   0.509948 0.203025 0.392641 0.056603
C19   C     C_R   0.440042 0.796771 0.426223 -0.017914
C20   C     C_R   0.494664 0.204857 0.609383 -0.099280
C21   C     C_R   0.564408 0.794054 0.570758 -0.066411
C22   C     C_R   0.492652 0.105391 0.613036 0.381910
C23   C     C_R   0.568747 0.893596 0.572140 0.375978
C24   C     C_R   0.502753 0.052840 0.503045 0.069432
C25   C     C_R   0.503841 0.946468 0.501924 0.084400
C26   C     C_R   0.672963 0.499965 0.498627 0.843578
C27   C     C_R   0.493303 0.500001 0.742067 0.865325
C28   C     C_3   0.413738 0.567417 0.069756 0.208612
C29   C     C_3   0.470369 0.393853 0.068949 0.224143
C30   C     C_3   0.419945 0.576885 0.926513 -0.069041
C31   C     C_3   0.453137 0.397758 0.925548 -0.097764
C32   C     C_3   0.581485 0.529021 0.080846 -0.573629
C33   C     C_3   0.487417 0.496884 0.121532 -0.095308
C34   C     C_3   0.487580 0.499430 0.878701 -0.080973
H1    H     H_    0.427355 0.638782 0.111046 0.116419
H2    H     H_    0.533054 0.352413 0.088406 0.107361
H3    H     H_    0.800722 0.447072 0.340417 0.128853
H4    H     H_    0.758372 0.545678 0.710233 0.121444
H5    H     H_    0.519557 0.066052 0.305515 0.182669
H6    H     H_    0.390528 0.933805 0.369078 0.171895
H7    H     H_    0.518990 0.240437 0.307058 0.185754
H8    H     H_    0.392760 0.758805 0.365729 0.150809
H9    H     H_    0.492626 0.243614 0.695341 0.161511
H10   H     H_    0.613985 0.753452 0.624384 0.159814
H11   H     H_    0.452536 0.644522 0.913078 0.186712
H12   H     H_    0.495159 0.341508 0.885331 0.148052
H13   H     H_    0.595916 0.601572 0.116219 0.206629
H14   H     H_    0.632981 0.484572 0.130299 0.180832
H15   H     H_    0.964764 0.443375 0.389232 0.140923
H16   H     H_    0.919167 0.533829 0.764122 0.122145
N1    N     N_R   0.499980 0.252470 0.500000 -0.119923
N2    N     N_R   0.499980 0.747530 0.500000 -0.114401
O1    O     O_R   0.369070 0.579480 0.500010 -0.628718
O2    O     O_R   0.369070 0.420520 0.500010 -0.600643
O3    O     O_R   0.499990 0.579480 0.314790 -0.638062
O4    O     O_R   0.499990 0.420520 0.314790 -0.588662
O5    O     O_R   0.630940 0.579480 0.499990 -0.618186
O6    O     O_R   0.630940 0.420520 0.499990 -0.604031
O7    O     O_R   0.500020 0.579480 0.685200 -0.630665
O8    O     O_R   0.500020 0.420520 0.685200 -0.635962
Zn1   Zn    Zn3+2 0.500010 0.606140 0.500000 0.936322
Zn2   Zn    Zn3+2 0.500010 0.393860 0.500000 0.965523
Cl1   Cl    Cl    0.472428 0.050279 0.755548 -0.599960
Cl2   Cl    Cl    0.659583 0.948363 0.655511 -0.592266
Cl3   Cl    Cl    0.303318 0.536198 0.119343 -0.713771
Cl4   Cl    Cl    0.388245 0.324056 0.149805 -0.670418
C35   C     C_3   0.328547 0.593519 0.851817 -0.356299
C36   C     C_3   0.288561 0.691539 0.876179 -0.837974
H17   H     H_    0.276858 0.701965 0.976154 0.297429
H18   H     H_    0.334735 0.748017 0.844880 0.257400
H19   H     H_    0.222909 0.698594 0.823337 0.240803
H20   H     H_    0.338989 0.590808 0.750950 0.203483
H21   H     H_    0.276444 0.540315 0.871631 0.258908
C37   C     C_3   0.354239 0.363171 0.890653 -0.294541
C38   C     C_3   0.321573 0.362613 0.756154 -0.885552
H22   H     H_    0.320260 0.434735 0.719862 0.246481
H23   H     H_    0.362700 0.315978 0.699587 0.285572
H24   H     H_    0.251674 0.334344 0.749611 0.250015
H25   H     H_    0.349452 0.287426 0.917934 0.261203
H26   H     H_    0.303888 0.400745 0.944775 0.281975
C39   C     C_3   0.636491 0.615629 0.888866 -0.355883
C40   C     C_3   0.599243 0.715820 0.910538 -0.868690
H27   H     H_    0.549541 0.735839 0.835313 0.268536
H28   H     H_    0.569849 0.725121 0.002407 0.248125
H29   H     H_    0.655223 0.768126 0.905193 0.276718
H30   H     H_    0.705257 0.619509 0.933170 0.228267
H31   H     H_    0.645335 0.609581 0.788301 0.207431
C41   C     C_3   0.655113 0.437438 0.905933 -0.404619
C42   C     C_3   0.754638 0.443926 0.954405 -0.886631
H32   H     H_    0.792947 0.499516 0.907382 0.241776
H33   H     H_    0.761726 0.455841 0.055758 0.253138
H34   H     H_    0.788715 0.375860 0.934501 0.263038
H35   H     H_    0.631354 0.369543 0.942942 0.200894
H36   H     H_    0.656211 0.428203 0.803818 0.212469
C43   C     C_3   0.041281 0.675337 0.620876 -0.403853
C44   C     C_3   0.985352 0.717908 0.512339 -0.804126
H37   H     H_    0.027038 0.730017 0.430906 0.257818
H38   H     H_    0.928359 0.670345 0.483966 0.269617
H39   H     H_    0.956855 0.786795 0.541276 0.256824
H40   H     H_    0.996248 0.661394 0.697813 0.206130
H41   H     H_    0.088226 0.728680 0.663558 0.188013
C45   C     C_3   0.062101 0.320979 0.645879 -0.419482
C46   C     C_3   0.044679 0.331474 0.784089 -0.832151
H42   H     H_    0.105086 0.361177 0.835199 0.261945
H43   H     H_    0.986026 0.377948 0.798825 0.258590
H44   H     H_    0.029343 0.260917 0.823531 0.257438
H45   H     H_    0.998741 0.299173 0.594558 0.224015
H46   H     H_    0.111044 0.262005 0.640623 0.208941
C47   C     C_3   0.215190 0.685256 0.492169 -0.394766
C48   C     C_3   0.220008 0.687745 0.351119 -0.792779
H47   H     H_    0.275709 0.642778 0.320698 0.302378
H48   H     H_    0.155421 0.662492 0.306141 0.270981
H49   H     H_    0.232371 0.761390 0.319897 0.227064
H50   H     H_    0.172622 0.746155 0.514577 0.212882
H51   H     H_    0.280075 0.704826 0.540205 0.228320
C49   C     C_3   0.202936 0.326680 0.449852 -0.443089
C50   C     C_3   0.202269 0.349672 0.311888 -0.668871
H52   H     H_    0.135406 0.378498 0.280473 0.234242
H53   H     H_    0.255104 0.402560 0.293361 0.321398
H54   H     H_    0.215124 0.284245 0.258098 0.271203
H55   H     H_    0.267908 0.294754 0.482206 0.247939
H56   H     H_    0.152265 0.269286 0.456160 0.196636

loop_
_geom_bond_atom_site_label_1
_geom_bond_atom_site_label_2
_ccdc_geom_bond_type
O6    Zn2   S    
C15   C18   A    
C30   H11   S    
C43   C44   S    
C4    C8    A    
C39   C40   S    
C36   H19   S    
C29   H2    S    
C49   H56   S    
C2    C32   S    
C20   N1    A    
N2    Zn1   S    
C50   H53   S    
C44   H39   S    
C29   C33   S    
C49   C50   S    
O8    Zn2   S    
C35   H20   S    
C38   H23   S    
C1    O1    A    
C48   H47   S    
C22   Cl1   S    
O1    Zn1   S    
C19   N2    A    
C28   H1    S    
C36   H17   S    
C31   H12   S    
C44   H38   S    
C2    C41   S    
C35   H21   S    
C42   H33   S    
C17   O3    A    
C39   H30   S    
C19   H8    S    
C2    C34   S    
C37   H26   S    
C32   H14   S    
N1    Zn2   S    
C17   C33   S    
C26   O5    A    
C18   N1    A    
C27   C34   S    
C41   H36   S    
O7    Zn1   S    
C49   H55   S    
C30   C34   S    
C35   C36   S    
C9    H15   S    
C24   C25   S    
C4    C6    A    
C3    C8    A    
C10   C14   A    
C18   H7    S    
C5    C7    A    
C9    C14   A    
C43   H40   S    
C31   C37   S    
O2    Zn2   S    
C4    C45   S    
C38   H22   S    
C21   H10   S    
C9    C11   A    
C48   H49   S    
C15   H5    S    
C44   H37   S    
C31   C34   S    
C45   H45   S    
C46   H43   S    
C41   C42   S    
C42   H34   S    
C45   H46   S    
C26   O6    A    
C17   O4    A    
C6    C49   S    
C39   H31   S    
C10   C12   A    
C47   H50   S    
C16   H6    S    
C1    O2    A    
C15   C24   A    
C20   C22   A    
C28   C33   S    
C40   H28   S    
C37   H25   S    
C21   C23   A    
C32   H13   S    
C22   C24   A    
C13   C26   S    
C50   H54   S    
C10   H16   S    
C37   C38   S    
C20   H9    S    
C11   H3    S    
C16   C25   A    
C41   H35   S    
C23   Cl2   S    
C8    C14   S    
C1    C7    S    
C30   C35   S    
C3    C5    A    
O5    Zn1   S    
C6    C7    A    
C40   H29   S    
C27   O8    A    
C32   C33   S    
C28   C30   S    
C28   Cl3   S    
C29   C31   S    
C27   O7    A    
C50   H52   S    
C11   C13   A    
C5    C47   S    
C16   C19   A    
O3    Zn1   S    
C46   H44   S    
O4    Zn2   S    
C23   C25   A    
C12   H4    S    
C45   C46   S    
C38   H24   S    
C48   H48   S    
C47   H51   S    
C29   Cl4   S    
C12   C13   A    
C36   H18   S    
C40   H27   S    
C46   H42   S    
C2    C39   S    
C3    C43   S    
C42   H32   S    
C47   C48   S    
C21   N2    A    
C43   H41   S    
