data_mof_unit_17959.cif
_audit_creation_date              2012-10-26T21:00:15-0400
_audit_creation_method            fapswitch 2.2
_symmetry_space_group_name_H-M    P1
_symmetry_Int_Tables_number       1
_space_group_crystal_system       triclinic
_cell_length_a                    19.295575
_cell_length_b                    8.65811
_cell_length_c                    7.514032
_cell_angle_alpha                 103.013388
_cell_angle_beta                  95.437065
_cell_angle_gamma                 93.002554
_cell_volume                      1214.05417357

loop_
_atom_site_label
_atom_site_type_symbol
_atom_type_description
_atom_site_fract_x
_atom_site_fract_y
_atom_site_fract_z
_atom_type_partial_charge
C1    C     C_R   0.497634 0.199818 0.453201 0.521271
C2    C     C_R   0.808851 0.401787 0.361619 -0.142623
C3    C     C_R   0.145812 0.512860 0.505575 -0.015069
C4    C     C_R   0.853254 0.506114 0.500715 -0.011415
C5    C     C_R   0.176179 0.527972 0.347727 -0.093869
C6    C     C_R   0.824693 0.615234 0.636548 -0.089127
C7    C     C_R   0.248565 0.535708 0.347105 0.256392
C8    C     C_R   0.752490 0.621753 0.633719 0.244029
C9    C     C_R   0.291458 0.514546 0.502577 -0.001462
C10   C     C_R   0.708070 0.510300 0.499312 0.009726
C11   C     C_R   0.929258 0.504181 0.502509 0.342959
C12   C     C_R   0.502250 0.800145 0.546766 0.513576
C13   C     C_R   0.069702 0.508087 0.505039 0.341769
C14   C     C_3   0.304375 0.717082 0.218601 0.020425
C15   C     C_3   0.249354 0.823526 0.162785 -0.278290
C16   C     C_3   0.281203 0.992220 0.181875 -0.477095
C17   C     C_3   0.712278 0.869519 0.682226 -0.011681
C18   C     C_3   0.716238 0.023033 0.832333 -0.271759
C19   C     C_3   0.703772 0.166849 0.750429 -0.460333
C20   C     C_3   0.387748 0.282177 0.964405 0.049139
C21   C     C_3   0.349688 0.160033 0.801784 -0.411019
C22   C     C_3   0.615253 0.707950 0.028699 0.078424
C23   C     C_2   0.495964 0.031494 0.427197 -0.176587
C24   C     C_3   0.658640 0.820146 0.189837 -0.405962
C25   C     C_2   0.503910 0.968401 0.572664 -0.179547
C26   C     C_R   0.367551 0.504101 0.500887 0.520386
C27   C     C_R   0.632278 0.504366 0.500082 0.533217
C28   C     C_R   0.260615 0.504258 0.661851 -0.189744
C29   C     C_R   0.736745 0.403191 0.361726 -0.192780
C30   C     C_R   0.188583 0.504479 0.663906 -0.141879
Cu1   Cu    Cu3+1 0.507710 0.517380 0.684380 1.023083
Cu2   Cu    Cu3+1 0.492290 0.482620 0.315620 1.027196
H1    H     H_    0.292015 0.494769 0.784994 0.153577
H2    H     H_    0.328364 0.768714 0.362353 0.125704
H3    H     H_    0.227361 0.773859 0.017733 0.177781
H4    H     H_    0.206286 0.827759 0.251526 0.167031
H5    H     H_    0.301290 0.046411 0.327325 0.144444
H6    H     H_    0.241008 0.066458 0.136302 0.164587
H7    H     H_    0.324771 0.989967 0.095255 0.139370
H8    H     H_    0.658408 0.848959 0.610620 0.137731
H9    H     H_    0.749859 0.887422 0.582858 0.129532
H10   H     H_    0.676096 0.014030 0.926622 0.154150
H11   H     H_    0.768536 0.041433 0.913096 0.176326
H12   H     H_    0.703294 0.318646 0.256028 0.125147
H13   H     H_    0.744536 0.182778 0.659774 0.156702
H14   H     H_    0.705915 0.275786 0.862674 0.159242
H15   H     H_    0.651587 0.151362 0.669593 0.158365
H16   H     H_    0.357770 0.389551 0.987307 0.172981
H17   H     H_    0.389095 0.231167 0.086946 0.164288
H18   H     H_    0.375884 0.047135 0.781714 0.144798
H19   H     H_    0.294849 0.136216 0.827395 0.107720
H20   H     H_    0.349534 0.205287 0.674731 0.161082
H21   H     H_    0.611164 0.766344 0.912072 0.194247
H22   H     H_    0.643223 0.597315 0.994599 0.167182
H23   H     H_    0.166272 0.494405 0.788169 0.157695
H24   H     H_    0.632008 0.930724 0.234992 0.137928
H25   H     H_    0.666335 0.759897 0.304309 0.141603
H26   H     H_    0.710687 0.850996 0.150338 0.132319
H27   H     H_    0.829860 0.316996 0.254961 0.143634
H28   H     H_    0.143875 0.538675 0.225663 0.147153
H29   H     H_    0.858353 0.699741 0.741692 0.152028
H30   H     H_    0.488113 0.959269 0.287293 0.158547
H31   H     H_    0.511860 0.040600 0.712545 0.165410
H32   H     H_    0.347307 0.716430 0.129758 0.166495
N1    N     N_R   0.027363 0.456715 0.345285 -0.222510
N2    N     N_R   0.971589 0.555405 0.662299 -0.222528
N3    N     N_R   0.958360 0.454184 0.344106 -0.218320
N4    N     N_R   0.040578 0.556651 0.663694 -0.224227
N5    N     N_2   0.480680 0.456420 0.038530 0.091654
N6    N     N_2   0.519320 0.543580 0.961470 0.087412
O1    O     O_R   0.505010 0.286130 0.619770 -0.457245
O2    O     O_3   0.726769 0.739553 0.761987 -0.597784
O3    O     O_3   0.455792 0.317102 0.925406 -0.464399
O4    O     O_3   0.548464 0.677385 0.078060 -0.475233
O5    O     O_R   0.494990 0.713870 0.380230 -0.463927
O6    O     O_R   0.491990 0.256780 0.308370 -0.512988
O7    O     O_R   0.508010 0.743220 0.691630 -0.517952
O8    O     O_R   0.406650 0.514660 0.655750 -0.503027
O9    O     O_R   0.593350 0.485340 0.344250 -0.493297
O10   O     O_R   0.393640 0.485310 0.344340 -0.506340
O11   O     O_R   0.606360 0.514690 0.655660 -0.518368
O12   O     O_3   0.275762 0.558160 0.190123 -0.597070

loop_
_geom_bond_atom_site_label_1
_geom_bond_atom_site_label_2
_ccdc_geom_bond_type
C10   C27   S    
N2    N4    A    
Cu2   O5    S    
C19   H14   S    
C22   H22   S    
C13   N1    A    
C1    O1    A    
C2    C29   A    
C6    H29   S    
C27   O9    A    
C18   H10   S    
C19   H15   S    
C15   C16   S    
C18   C19   S    
C25   H31   S    
Cu1   N6    S    
C24   H25   S    
N1    N3    A    
N6    O4    S    
N5    O3    S    
C3    C13   S    
C11   N2    A    
C16   H5    S    
Cu1   O1    S    
C15   H3    S    
C21   H18   S    
C11   N3    A    
C9    C26   S    
Cu1   O7    S    
C22   H21   S    
C23   H30   S    
C8    O2    S    
C27   O11   A    
C4    C6    A    
C5    C7    A    
C2    H27   S    
C6    C8    A    
C26   O10   A    
C17   H8    S    
C3    C30   A    
C2    C4    A    
Cu2   O6    S    
C20   H17   S    
Cu2   O10   S    
Cu1   Cu2   S    
C14   H32   S    
C12   O7    A    
C17   C18   S    
C26   O8    A    
C4    C11   S    
C20   H16   S    
C24   H26   S    
C28   H1    S    
C1    C23   S    
C29   H12   S    
C22   C24   S    
C22   O4    S    
C15   H4    S    
C21   H19   S    
Cu1   O8    S    
C7    C9    A    
C5    H28   S    
C1    O6    A    
C3    C5    A    
C14   H2    S    
C19   H13   S    
Cu2   N5    S    
C24   H24   S    
C30   H23   S    
Cu1   O11   S    
C12   C25   S    
C28   C30   A    
C18   H11   S    
Cu2   O9    S    
C10   C29   A    
C20   O3    S    
C23   C25   D    
N5    N6    D    
C17   H9    S    
C16   H7    S    
C7    O12   S    
C20   C21   S    
C17   O2    S    
C8    C10   A    
C12   O5    A    
C14   O12   S    
C14   C15   S    
C21   H20   S    
C9    C28   A    
C16   H6    S    
C13   N4    A    
