data_mof_unit_52868.cif
_audit_creation_date              2012-12-10T16:32:42-0500
_audit_creation_method            fapswitch 2.2
_symmetry_space_group_name_H-M    P1
_symmetry_Int_Tables_number       1
_space_group_crystal_system       triclinic
_cell_length_a                    16.878982
_cell_length_b                    16.875184
_cell_length_c                    16.877925
_cell_angle_alpha                 65.414534
_cell_angle_beta                  65.406639
_cell_angle_gamma                 64.414516
_cell_volume                      3775.45219497

loop_
_atom_site_label
_atom_site_type_symbol
_atom_type_description
_atom_site_fract_x
_atom_site_fract_y
_atom_site_fract_z
_atom_type_partial_charge
C1    C     C_R   0.589234 0.037201 0.589501 0.234116
C2    C     C_R   0.821774 0.568441 0.026908 0.928702
C3    C     C_R   0.436450 0.965387 0.178678 0.888085
C4    C     C_R   0.563394 0.034973 0.821324 0.944599
C5    C     C_R   0.558629 0.821766 0.046034 0.915725
C6    C     C_R   0.431657 0.178257 0.972878 0.927667
C7    C     C_R   0.034857 0.563427 0.821326 0.893846
C8    C     C_R   0.964838 0.436721 0.178667 0.946681
C9    C     C_R   0.820921 0.035250 0.563674 0.932244
C10   C     C_R   0.179097 0.964691 0.436317 0.937529
C11   C     C_R   0.543550 0.018279 0.543537 -0.235969
C12   C     C_R   0.410537 0.963382 0.410377 0.232840
C13   C     C_R   0.456109 0.982360 0.456419 -0.235499
C14   C     C_R   0.018017 0.543445 0.543802 -0.243623
C15   C     C_R   0.982140 0.456614 0.456069 -0.246232
C16   C     C_R   0.535253 0.553618 0.018114 -0.167880
C17   C     C_R   0.446291 0.464584 0.982214 -0.176742
C18   C     C_R   0.575359 0.931684 0.529053 0.320825
C19   C     C_R   0.424247 0.068938 0.470968 0.317290
C20   C     C_R   0.086708 0.511468 0.470480 0.316004
C21   C     C_R   0.913439 0.488620 0.529368 0.318417
C22   C     C_R   0.448050 0.600307 0.001407 0.313610
C23   C     C_R   0.037037 0.588947 0.589858 0.232328
C24   C     C_R   0.539547 0.424515 0.982626 0.324685
C25   C     C_R   0.531935 0.913942 0.485565 0.313301
C26   C     C_R   0.467592 0.086646 0.514575 0.314023
C27   C     C_R   0.399121 0.551073 0.000388 0.319249
C28   C     C_R   0.575923 0.460693 0.016414 0.324762
C29   C     C_R   0.068994 0.468046 0.426957 0.334100
C30   C     C_R   0.931145 0.532069 0.572872 0.332360
C31   C     C_R   0.547730 0.040827 0.679250 -0.178242
C32   C     C_R   0.452172 0.959570 0.320698 -0.184147
C33   C     C_R   0.040481 0.678674 0.548536 -0.172216
C34   C     C_R   0.963150 0.411036 0.410066 0.233057
C35   C     C_R   0.959679 0.321314 0.451468 -0.175031
C36   C     C_R   0.680236 0.571596 0.013089 -0.173512
C37   C     C_R   0.324320 0.463027 0.929072 -0.195216
C38   C     C_R   0.321129 0.959070 0.451843 -0.191791
C39   C     C_R   0.678677 0.041450 0.547951 -0.193006
C40   C     C_R   0.428687 0.319731 0.986617 -0.180317
C41   C     C_R   0.536958 0.675506 0.071454 -0.196853
C42   C     C_R   0.958619 0.452765 0.320627 -0.187315
C43   C     C_R   0.041489 0.547207 0.679310 -0.193296
C44   C     C_R   0.593949 0.054069 0.723837 -0.201063
C45   C     C_R   0.583832 0.599671 0.036032 0.203601
C46   C     C_R   0.406149 0.945926 0.276216 -0.195643
C47   C     C_R   0.054032 0.722841 0.594996 -0.192578
C48   C     C_R   0.946258 0.277078 0.404993 -0.193583
C49   C     C_R   0.724221 0.605290 0.041664 -0.184658
C50   C     C_R   0.277883 0.413149 0.924826 -0.248125
C51   C     C_R   0.277102 0.945683 0.405180 -0.193044
C52   C     C_R   0.722906 0.054400 0.594716 -0.196204
C53   C     C_R   0.394889 0.275827 0.958050 -0.181036
C54   C     C_R   0.586854 0.722118 0.075377 -0.248062
C55   C     C_R   0.945599 0.406319 0.276144 -0.205127
C56   C     C_R   0.400343 0.416094 0.964126 0.209606
C57   C     C_R   0.054608 0.593582 0.723780 -0.197678
C58   C     C_R   0.675008 0.074660 0.676470 0.405033
C59   C     C_R   0.325265 0.924820 0.323746 0.406860
C60   C     C_R   0.075259 0.674709 0.676269 0.405004
C61   C     C_R   0.925469 0.325010 0.323523 0.403434
C62   C     C_R   0.674760 0.675809 0.081691 0.413518
C63   C     C_R   0.324383 0.325371 0.918011 0.415906
C64   C     C_3   0.687016 0.197061 0.689256 0.052505
C65   C     C_3   0.730879 0.227067 0.729929 -0.623566
C66   C     C_3   0.326942 0.802906 0.297212 0.066673
C67   C     C_R   0.965066 0.179082 0.436186 0.929893
C68   C     C_3   0.286171 0.772497 0.253772 -0.670790
C69   C     C_3   0.196459 0.672657 0.704370 0.078421
C70   C     C_3   0.225850 0.712471 0.749648 -0.705522
C71   C     C_3   0.803366 0.318956 0.304411 0.060698
C72   C     C_3   0.773429 0.275687 0.263074 -0.653086
C73   C     C_3   0.677712 0.699767 0.203543 0.077848
C74   C     C_3   0.733014 0.724118 0.236733 -0.689868
C75   C     C_3   0.297885 0.325004 0.796228 0.071272
C76   C     C_3   0.274186 0.270025 0.762019 -0.679042
C77   C     C_R   0.035056 0.820891 0.563799 0.934686
C78   C     C_R   0.178264 0.441276 0.954151 0.914850
Cl1   Cl    Cl    0.427687 0.195896 0.531039 -0.531244
Cl2   Cl    Cl    0.401143 0.721361 0.969157 -0.537346
Cl3   Cl    Cl    0.803835 0.476150 0.565693 -0.511264
Cl4   Cl    Cl    0.196305 0.523969 0.434128 -0.511614
Cl5   Cl    Cl    0.571438 0.804499 0.469687 -0.534721
Cl6   Cl    Cl    0.842900 0.574845 0.662405 -0.444093
Cl7   Cl    Cl    0.157197 0.425416 0.337316 -0.421603
Cl8   Cl    Cl    0.666136 0.382651 0.065186 -0.568253
Cl9   Cl    Cl    0.277979 0.596517 0.034264 -0.509599
Cl10  Cl    Cl    0.331358 0.156879 0.432010 -0.461205
Cl11  Cl    Cl    0.668222 0.843717 0.568047 -0.453385
Cl12  Cl    Cl    0.617470 0.335171 0.932531 -0.551973
H1    H     H_    0.482061 0.028485 0.715220 0.191741
H2    H     H_    0.463288 0.703394 0.090025 0.211466
H3    H     H_    0.969981 0.518896 0.284790 0.194679
H4    H     H_    0.029918 0.481173 0.715186 0.194224
H5    H     H_    0.611062 0.226541 0.714378 0.137392
H6    H     H_    0.710129 0.224960 0.613737 0.127963
H7    H     H_    0.806805 0.200289 0.704552 0.241497
H8    H     H_    0.709399 0.303150 0.710075 0.248589
H9    H     H_    0.709004 0.200523 0.805322 0.275111
H10   H     H_    0.312947 0.764777 0.371082 0.139954
H11   H     H_    0.402505 0.784791 0.264342 0.109355
H12   H     H_    0.517735 0.972131 0.284680 0.190246
H13   H     H_    0.299725 0.808892 0.179792 0.258975
H14   H     H_    0.317755 0.697464 0.263036 0.229331
H15   H     H_    0.210935 0.788010 0.286126 0.257540
H16   H     H_    0.235572 0.686874 0.630779 0.136452
H17   H     H_    0.214088 0.597030 0.736860 0.106104
H18   H     H_    0.210877 0.787738 0.717762 0.253727
H19   H     H_    0.188352 0.698661 0.823385 0.264726
H20   H     H_    0.300645 0.680376 0.741579 0.214950
H21   H     H_    0.779014 0.394902 0.275011 0.131725
H22   H     H_    0.770503 0.300407 0.379407 0.127781
H23   H     H_    0.027817 0.715057 0.482683 0.191425
H24   H     H_    0.795204 0.199905 0.292361 0.239452
H25   H     H_    0.697583 0.301782 0.277986 0.231210
H26   H     H_    0.804814 0.293306 0.188145 0.280029
H27   H     H_    0.678495 0.627517 0.242451 0.129160
H28   H     H_    0.605862 0.746573 0.217901 0.126811
H29   H     H_    0.731926 0.796525 0.200888 0.252444
H30   H     H_    0.702991 0.715540 0.311000 0.253912
H31   H     H_    0.805162 0.678279 0.223525 0.243744
H32   H     H_    0.369158 0.326862 0.755867 0.135705
H33   H     H_    0.249162 0.396091 0.784514 0.118686
H34   H     H_    0.972196 0.284997 0.517389 0.190173
H35   H     H_    0.203133 0.267441 0.800280 0.245869
H36   H     H_    0.279034 0.302921 0.688576 0.246048
H37   H     H_    0.322761 0.198999 0.771239 0.255285
H38   H     H_    0.721771 0.523987 0.972942 0.227801
H39   H     H_    0.296150 0.536699 0.911197 0.208114
H40   H     H_    0.284882 0.970740 0.518138 0.192947
H41   H     H_    0.714807 0.030007 0.481553 0.191220
H42   H     H_    0.476644 0.278206 0.026379 0.218932
O1    O     O_R   0.982940 0.138950 0.510160 -0.644285
O2    O     O_R   0.982940 0.510160 0.138950 -0.628283
O3    O     O_R   0.861050 0.017060 0.489840 -0.641954
O4    O     O_R   0.138950 0.982940 0.510160 -0.641228
O5    O     O_R   0.867700 0.025880 0.612340 -0.568481
O6    O     O_R   0.132300 0.974120 0.387660 -0.566658
O7    O     O_R   0.025880 0.612340 0.867700 -0.579530
O8    O     O_R   0.974120 0.387660 0.132300 -0.564805
O9    O     O_R   0.612340 0.867700 0.025880 -0.573591
O10   O     O_R   0.387660 0.132300 0.974120 -0.570129
O11   O     O_R   0.387660 0.974120 0.132300 -0.577946
O12   O     O_R   0.017060 0.861050 0.489840 -0.641918
O13   O     O_R   0.612340 0.025880 0.867700 -0.562080
O14   O     O_R   0.132300 0.387660 0.974120 -0.575577
O15   O     O_R   0.867700 0.612340 0.025880 -0.571763
O16   O     O_R   0.974120 0.132300 0.387660 -0.567043
O17   O     O_R   0.025880 0.867700 0.612340 -0.566310
O18   O     O_3   0.713905 0.100343 0.716086 -0.575222
O19   O     O_3   0.286436 0.898388 0.284678 -0.573023
O20   O     O_3   0.101267 0.713869 0.715393 -0.571485
O21   O     O_3   0.899853 0.285801 0.284159 -0.573946
O22   O     O_3   0.717366 0.709932 0.109261 -0.575307
O23   O     O_R   0.138950 0.510160 0.982940 -0.596052
O24   O     O_3   0.290645 0.282870 0.889852 -0.575303
O25   O     O_R   0.861050 0.489840 0.017060 -0.624970
O26   O     O_R   0.510160 0.982940 0.138950 -0.650013
O27   O     O_R   0.489840 0.017060 0.861050 -0.632765
O28   O     O_R   0.489840 0.861050 0.017060 -0.598821
O29   O     O_R   0.510160 0.138950 0.982940 -0.627343
O30   O     O_R   0.017060 0.489840 0.861050 -0.645258
Zn1   Zn    Zn3+2 0.004880 0.004880 0.583590 1.036339
Zn2   Zn    Zn3+2 0.995120 0.995120 0.416410 1.038072
Zn3   Zn    Zn3+2 0.004880 0.583590 0.004880 1.069606
Zn4   Zn    Zn3+2 0.995120 0.416410 0.995120 1.053887
Zn5   Zn    Zn3+2 0.583590 0.004880 0.004880 1.050128
Zn6   Zn    Zn3+2 0.416410 0.995120 0.995120 1.066572

loop_
_geom_bond_atom_site_label_1
_geom_bond_atom_site_label_2
_ccdc_geom_bond_type
C16   C28   A    
C66   C68   S    
C11   C18   A    
C50   C63   A    
C20   Cl4   S    
C46   C59   A    
C75   H32   S    
C76   H36   S    
O3    Zn2   S    
C34   C42   A    
C68   H13   S    
C69   H17   S    
C74   H29   S    
C18   C25   A    
C72   H25   S    
C75   H33   S    
C38   H40   S    
C35   H34   S    
C67   O1    A    
C10   O4    A    
C63   O24   S    
C60   O20   S    
C78   O23   A    
C4    O27   A    
C10   C51   S    
C71   O21   S    
C72   H24   S    
C1    C31   A    
C43   H4    S    
C23   C43   A    
O27   Zn6   S    
C34   C35   A    
C73   C74   S    
C66   H10   S    
O7    Zn3   S    
C19   C26   A    
C70   H20   S    
C47   C60   A    
O30   Zn4   S    
C37   C56   A    
C9    O5    A    
C75   O24   S    
C44   C58   A    
C40   C56   A    
C71   H21   S    
C73   O22   S    
C3    O26   A    
O17   Zn1   S    
C6    O10   A    
O15   Zn3   S    
C15   C34   S    
C29   Cl7   S    
C39   C52   A    
C40   H42   S    
C12   C32   A    
C30   Cl6   S    
C76   H35   S    
C69   O20   S    
C66   H11   S    
C13   C25   A    
C36   H38   S    
C9    C52   S    
C14   C30   A    
C35   C48   A    
C50   C78   S    
C8    C55   S    
O26   Zn5   S    
C15   C29   A    
C20   C29   A    
O8    Zn4   S    
O11   Zn6   S    
C7    O30   A    
O9    Zn5   S    
C17   C24   A    
C73   H27   S    
C31   C44   A    
C13   C19   A    
C8    O2    A    
C17   C27   A    
C14   C20   A    
C5    C54   S    
O14   Zn4   S    
C3    O11   A    
C65   H9    S    
C19   Cl10  S    
C77   O17   A    
O5    Zn1   S    
C43   C57   A    
C57   C60   A    
C38   C51   A    
C4    C44   S    
C11   C26   A    
C23   C33   A    
C2    O15   A    
C62   O22   S    
C64   O18   S    
O16   Zn2   S    
C14   C23   S    
C16   C45   S    
C75   C76   S    
C2    C49   S    
C42   C55   A    
C5    O9    A    
C6    O29   A    
C5    O28   A    
C71   H22   S    
C41   H2    S    
O2    Zn3   S    
C36   C45   A    
C27   Cl9   S    
C17   C56   S    
C64   H6    S    
O29   Zn5   S    
C52   C58   A    
C9    O3    A    
C42   H3    S    
C21   Cl3   S    
C31   H1    S    
C22   C27   A    
C28   Cl8   S    
C33   C47   A    
C32   H12   S    
C51   C59   A    
C68   H15   S    
C47   C77   S    
C6    C53   S    
C74   H30   S    
C24   C28   A    
O13   Zn5   S    
C61   O21   S    
C70   H19   S    
C16   C22   A    
C49   C62   A    
C18   Cl11  S    
C32   C46   A    
C68   H14   S    
C64   H5    S    
C24   Cl12  S    
O25   Zn4   S    
C65   H8    S    
C73   H28   S    
C69   H16   S    
C59   O19   S    
C78   O14   A    
C54   C62   A    
C21   C30   A    
C72   H26   S    
C3    C46   S    
C33   H23   S    
C26   Cl1   S    
C8    O8    A    
C64   C65   S    
C77   O12   A    
C22   Cl2   S    
C66   O19   S    
C70   H18   S    
C7    O7    A    
C37   C50   A    
C53   C63   A    
C48   C61   A    
C39   H41   S    
O23   Zn3   S    
C2    O25   A    
C4    O13   A    
C55   C61   A    
C37   H39   S    
O28   Zn6   S    
C48   C67   S    
C12   C38   A    
C69   C70   S    
C41   C54   A    
C1    C39   A    
O10   Zn6   S    
C15   C21   A    
C74   H31   S    
C71   C72   S    
C12   C13   S    
C65   H7    S    
C40   C53   A    
C67   O16   A    
C25   Cl5   S    
C76   H37   S    
C41   C45   A    
O6    Zn2   S    
C1    C11   S    
C10   O6    A    
O1    Zn1   S    
C7    C57   S    
O12   Zn2   S    
C36   C49   A    
C58   O18   S    
O4    Zn1   S    
