data_mof_unit_35855.cif
_audit_creation_date              2012-12-10T20:37:31-0500
_audit_creation_method            fapswitch 2.2
_symmetry_space_group_name_H-M    P1
_symmetry_Int_Tables_number       1
_space_group_crystal_system       triclinic
_cell_length_a                    15.720596
_cell_length_b                    10.744166
_cell_length_c                    9.929037
_cell_angle_alpha                 90.616675
_cell_angle_beta                  90.431991
_cell_angle_gamma                 91.115845
_cell_volume                      1676.59543215

loop_
_atom_site_label
_atom_site_type_symbol
_atom_type_description
_atom_site_fract_x
_atom_site_fract_y
_atom_site_fract_z
_atom_type_partial_charge
C1    C     C_R   0.493205 0.260762 0.498348 0.907808
C2    C     C_3   0.083651 0.499123 0.506508 0.020797
C3    C     C_3   0.973911 0.619903 0.524922 -0.346614
C4    C     C_3   0.916539 0.501999 0.508760 0.014851
C5    C     C_3   0.027998 0.570057 0.407877 0.419850
C6    C     C_3   0.970606 0.454897 0.392256 0.429962
C7    C     C_1   0.174306 0.498869 0.501673 0.113423
C8    C     C_1   0.825794 0.502373 0.505053 0.119608
C9    C     C_R   0.469257 0.063784 0.610622 0.031658
C10   C     C_R   0.479333 0.129141 0.492274 -0.128448
C11   C     C_R   0.481188 0.060188 0.368913 -0.072557
C12   C     C_R   0.338182 0.499655 0.499594 0.913068
C13   C     C_R   0.488358 0.931599 0.373975 -0.221258
C14   C     C_R   0.488801 0.870367 0.498401 -0.109682
C15   C     C_R   0.474895 0.939486 0.614347 0.110932
C16   C     C_3   0.468634 0.935556 0.764991 0.258771
C17   C     C_3   0.461874 0.079702 0.759675 -0.375131
C18   C     C_R   0.435567 0.442686 0.069521 0.277692
C19   C     C_R   0.567113 0.548894 0.073363 -0.078790
C20   C     C_R   0.567891 0.546679 0.929575 -0.082991
C21   C     C_R   0.435373 0.443251 0.927562 0.180115
C22   C     C_3   0.343835 0.476567 0.921739 -0.439509
C23   C     C_R   0.498086 0.739447 0.500440 0.940281
C24   C     C_3   0.343893 0.475457 0.074469 -0.453217
C25   C     C_R   0.661833 0.500551 0.500534 0.906952
C26   C     C_3   0.971713 0.430301 0.608909 -0.105262
C27   C     C_3   0.026279 0.381221 0.490681 -0.356919
C28   C     C_1   0.249468 0.499107 0.499352 -0.099522
C29   C     C_1   0.750592 0.501747 0.502237 -0.081459
C30   C     C_3   0.030163 0.546701 0.624706 -0.095106
H1    H     H_    0.048435 0.284593 0.475768 0.198890
H2    H     H_    0.517679 0.131410 0.803367 0.175734
H3    H     H_    0.333948 0.570560 0.879313 0.243324
H4    H     H_    0.303473 0.401225 0.875864 0.234756
H5    H     H_    0.333659 0.568795 0.120398 0.214287
H6    H     H_    0.303935 0.398961 0.116517 0.248154
H7    H     H_    0.951731 0.716740 0.537877 0.195850
H8    H     H_    0.492539 0.879992 0.279899 0.236588
N1    N     N_R   0.499430 0.499140 0.142800 -0.158919
N2    N     N_R   0.499430 0.499180 0.857150 -0.155990
O1    O     O_R   0.500010 0.316790 0.614690 -0.618818
O2    O     O_R   0.500000 0.316760 0.385350 -0.613833
O3    O     O_R   0.376780 0.500010 0.614650 -0.599824
O4    O     O_R   0.376770 0.499970 0.385310 -0.626560
O5    O     O_R   0.500000 0.683240 0.614650 -0.564028
O6    O     O_R   0.499990 0.683210 0.385310 -0.612068
O7    O     O_R   0.623230 0.500030 0.614690 -0.607335
O8    O     O_R   0.623220 0.499990 0.385350 -0.605413
Zn1   Zn    Zn3+2 0.500010 0.500020 0.653130 1.025629
Zn2   Zn    Zn3+2 0.499990 0.499980 0.346870 1.014689
O9    O     O_3   0.545353 0.898539 0.823260 -0.690298
H9    H     H_    0.543022 0.922047 0.920050 0.379525
C31   C     C_2   0.377499 0.132411 0.801141 0.927610
O10   O     O_2   0.360326 0.140428 0.920668 -0.578675
O11   O     O_R   0.319571 0.172785 0.704022 -0.786915
H10   H     H_    0.265383 0.205257 0.745095 0.349969
C32   C     C_2   0.636534 0.615525 0.146190 0.994584
O12   O     O_2   0.706869 0.569334 0.153810 -0.560588
O13   O     O_R   0.622745 0.733662 0.200585 -0.788352
H11   H     H_    0.675181 0.770372 0.247294 0.344042
C33   C     C_2   0.642654 0.599203 0.859906 0.988088
O14   O     O_2   0.636334 0.693315 0.793257 -0.547888
O15   O     O_R   0.721147 0.541191 0.871813 -0.738877
H12   H     H_    0.767787 0.585596 0.819902 0.361164
C34   C     C_2   0.940869 0.351681 0.723146 0.987210
O16   O     O_2   0.992423 0.299467 0.794672 -0.594881
O17   O     O_R   0.853783 0.338546 0.747544 -0.772801
H13   H     H_    0.841158 0.283722 0.827720 0.374470
O18   O     O_3   0.937137 0.409400 0.270085 -0.694414
H14   H     H_    0.987144 0.386781 0.215524 0.360502
O19   O     O_3   0.059769 0.640760 0.301421 -0.726731
H15   H     H_    0.009011 0.674778 0.256074 0.365523
C35   C     C_2   0.063046 0.598161 0.756573 0.991067
O20   O     O_2   0.012778 0.633197 0.841572 -0.587484
O21   O     O_R   0.150549 0.605674 0.781879 -0.788570
H16   H     H_    0.164611 0.641725 0.874365 0.354576
C36   C     C_2   0.473752 0.115371 0.233649 1.015409
O22   O     O_2   0.412763 0.179566 0.206235 -0.580615
O23   O     O_R   0.535050 0.090385 0.136427 -0.787336
H17   H     H_    0.524042 0.135497 0.049143 0.340151
C37   C     C_2   0.392343 0.862522 0.816917 0.922538
O24   O     O_2   0.344096 0.806716 0.738964 -0.625807
O25   O     O_R   0.377868 0.858641 0.955549 -0.775869
H18   H     H_    0.325634 0.806646 0.978897 0.345263

loop_
_geom_bond_atom_site_label_1
_geom_bond_atom_site_label_2
_ccdc_geom_bond_type
C6    O18   S    
O11   H10   S    
C23   O5    A    
C18   C21   A    
C35   O20   D    
C31   O11   S    
C19   C20   A    
C16   O9    S    
C4    C8    S    
C37   O24   D    
O7    Zn1   S    
C31   O10   D    
C19   C32   S    
C26   C27   S    
C24   H6    S    
C12   C28   S    
C18   C24   S    
C8    C29   T    
C12   O3    A    
C5    C6    S    
C20   N2    A    
C32   O13   S    
O4    Zn2   S    
N2    Zn1   S    
C20   C33   S    
C33   O15   S    
C18   N1    A    
C11   C36   S    
C2    C7    S    
O25   H18   S    
C16   C17   S    
C34   O17   S    
C2    C27   S    
C9    C10   A    
C25   O7    A    
O8    Zn2   S    
O13   H11   S    
C23   O6    A    
C21   C22   S    
C35   O21   S    
O18   H14   S    
O1    Zn1   S    
C37   O25   S    
C36   O23   S    
C25   C29   S    
C22   H4    S    
C24   H5    S    
C27   H1    S    
O17   H13   S    
C4    C6    S    
C30   C35   S    
O3    Zn1   S    
C36   O22   D    
C7    C28   T    
O9    H9    S    
C14   C23   S    
C3    C30   S    
O21   H16   S    
C6    C27   S    
O5    Zn1   S    
C25   O8    A    
C13   H8    S    
C19   N1    A    
O2    Zn2   S    
C1    O1    A    
C26   C30   S    
C22   C24   S    
C2    C5    S    
C3    C4    S    
C17   C31   S    
C9    C17   S    
C22   H3    S    
C26   C34   S    
C1    C10   S    
O15   H12   S    
C3    C5    S    
C4    C26   S    
O6    Zn2   S    
C2    C30   S    
C9    C15   A    
O19   H15   S    
C12   O4    A    
C11   C13   A    
C32   O12   D    
C21   N2    A    
C16   C37   S    
C33   O14   D    
C10   C11   A    
O23   H17   S    
C1    O2    A    
N1    Zn2   S    
C3    H7    S    
C5    O19   S    
C34   O16   D    
C17   H2    S    
C14   C15   A    
C13   C14   A    
C15   C16   S    
