data_mof_unit_34871.cif
_audit_creation_date              2013-03-05T15:49:46-0500
_audit_creation_method            fapswitch 2.2
_symmetry_space_group_name_H-M    P1
_symmetry_Int_Tables_number       1
_space_group_crystal_system       triclinic
_cell_length_a                    6.910209
_cell_length_b                    20.143645
_cell_length_c                    22.477802
_cell_angle_alpha                 90.000098
_cell_angle_beta                  89.996884
_cell_angle_gamma                 90.00185
_cell_volume                      3128.8380351

loop_
_atom_site_label
_atom_site_type_symbol
_atom_site_description
_atom_site_fract_x
_atom_site_fract_y
_atom_site_fract_z
_atom_type_partial_charge
O1    O     O_R   0.620180 0.810610 0.187990 -0.578494
O2    O     O_R   0.379820 0.189390 0.812010 -0.579607
O3    O     O_R   0.379820 0.189390 0.687990 -0.578608
O4    O     O_R   0.620180 0.810610 0.312010 -0.579572
O5    O     O_R   0.120180 0.689390 0.312010 -0.578618
O6    O     O_R   0.879820 0.310610 0.687990 -0.579574
O7    O     O_R   0.879820 0.310610 0.812010 -0.578610
O8    O     O_R   0.120180 0.689390 0.187990 -0.579506
O9    O     O_R   0.290420 0.818570 0.311590 -0.576472
O10   O     O_R   0.709580 0.181430 0.688410 -0.573813
O11   O     O_R   0.709580 0.181430 0.811590 -0.576458
O12   O     O_R   0.290420 0.818570 0.188410 -0.573664
O13   O     O_R   0.790420 0.681430 0.188410 -0.576635
O14   O     O_R   0.209580 0.318570 0.811590 -0.573823
O15   O     O_R   0.209580 0.318570 0.688410 -0.576452
O16   O     O_R   0.790420 0.681430 0.311590 -0.573816
C1    C     C_R   0.459580 0.832981 0.333546 1.042102
C2    C     C_R   0.540384 0.166898 0.666565 1.040887
C3    C     C_R   0.540411 0.167019 0.833546 1.042185
C4    C     C_R   0.459634 0.833110 0.166573 1.040505
C5    C     C_R   0.959582 0.667025 0.166450 1.042125
C6    C     C_R   0.040381 0.333102 0.833434 1.040896
C7    C     C_R   0.040422 0.332980 0.666453 1.042120
C8    C     C_R   0.959613 0.666899 0.333435 1.040860
O17   O     O_3   0.453640 0.707610 0.250000 -0.258072
O18   O     O_3   0.546360 0.292390 0.750000 -0.258015
O19   O     O_3   0.953640 0.792390 0.250000 -0.257796
O20   O     O_3   0.046360 0.207610 0.750000 -0.258015
V1    V     V_3+5 0.178800 0.757860 0.250000 1.349103
V2    V     V_3+5 0.821200 0.242140 0.750000 1.348976
V3    V     V_3+5 0.678800 0.742140 0.250000 1.348986
V4    V     V_3+5 0.321200 0.257860 0.750000 1.348968
C9    C     C_R   0.877792 0.376028 0.572692 0.387257
C10   C     C_R   0.120510 0.624213 0.427512 0.406538
C11   C     C_R   0.122229 0.623976 0.072686 0.387286
C12   C     C_R   0.879470 0.375793 0.927512 0.406536
C13   C     C_R   0.377720 0.123949 0.927295 0.386774
C14   C     C_R   0.620600 0.875827 0.072522 0.406228
C15   C     C_R   0.622211 0.876031 0.427307 0.387260
C16   C     C_R   0.379488 0.124211 0.572488 0.406546
C17   C     C_R   0.028106 0.380116 0.615379 -0.298892
C18   C     C_R   0.971854 0.619632 0.384367 -0.301029
C19   C     C_R   0.971907 0.619890 0.115376 -0.299130
C20   C     C_R   0.028131 0.380371 0.884364 -0.301040
C21   C     C_R   0.528070 0.119879 0.884615 -0.298877
C22   C     C_R   0.471964 0.880414 0.115675 -0.300731
C23   C     C_R   0.471902 0.880118 0.384619 -0.298887
C24   C     C_R   0.528138 0.119631 0.615634 -0.301046
C25   C     C_R   0.165491 0.430529 0.610542 -0.054942
C26   C     C_R   0.835908 0.568702 0.388615 -0.055239
C27   C     C_R   0.834513 0.569480 0.110542 -0.054970
C28   C     C_R   0.164083 0.431299 0.888608 -0.055260
C29   C     C_R   0.665510 0.069490 0.889464 -0.054998
C30   C     C_R   0.336104 0.931367 0.111456 -0.054965
C31   C     C_R   0.334522 0.930529 0.389454 -0.054948
C32   C     C_R   0.664078 0.068702 0.611388 -0.055199
C33   C     C_R   0.153190 0.479181 0.565908 0.003981
C34   C     C_R   0.845182 0.520853 0.434039 0.013129
C35   C     C_R   0.846806 0.520828 0.065907 0.004013
C36   C     C_R   0.154812 0.479149 0.934031 0.013138
C37   C     C_R   0.653227 0.020833 0.934094 0.003946
C38   C     C_R   0.345349 0.979203 0.066019 0.013778
C39   C     C_R   0.346820 0.979181 0.434089 0.003985
C40   C     C_R   0.654807 0.020854 0.565963 0.013132
C41   C     C_R   0.004816 0.475410 0.522623 0.057977
C42   C     C_R   0.993925 0.524517 0.477252 0.045702
C43   C     C_R   0.995185 0.524596 0.022619 0.057972
C44   C     C_R   0.006066 0.475489 0.977247 0.045702
C45   C     C_R   0.504867 0.024606 0.977391 0.058210
C46   C     C_R   0.494081 0.975536 0.022797 0.045907
C47   C     C_R   0.495186 0.975411 0.477376 0.057979
C48   C     C_R   0.506072 0.024516 0.522749 0.045700
C49   C     C_R   0.867727 0.422594 0.524810 -0.124238
C50   C     C_R   0.131631 0.577179 0.474978 -0.121640
C51   C     C_R   0.132285 0.577410 0.024802 -0.124231
C52   C     C_R   0.868350 0.422830 0.974978 -0.121649
C53   C     C_R   0.367704 0.077398 0.975190 -0.124792
C54   C     C_R   0.631869 0.922903 0.025092 -0.122047
C55   C     C_R   0.632272 0.922596 0.475190 -0.124236
C56   C     C_R   0.368369 0.077176 0.525021 -0.121653
C57   C     C_R   0.287012 0.531865 0.564512 0.200127
C58   C     C_R   0.711467 0.468047 0.435393 0.198945
C59   C     C_R   0.712968 0.468149 0.064514 0.200107
C60   C     C_R   0.288534 0.531953 0.935379 0.198949
C61   C     C_R   0.787201 0.968191 0.935525 0.199814
C62   C     C_R   0.211561 0.031982 0.064648 0.199023
C63   C     C_R   0.213000 0.031863 0.435484 0.200133
C64   C     C_R   0.788520 0.968049 0.564611 0.198944
C65   C     C_R   0.276181 0.580702 0.520072 0.213556
C66   C     C_R   0.724181 0.418706 0.479426 0.204717
C67   C     C_R   0.723793 0.419311 0.020074 0.213548
C68   C     C_R   0.275826 0.581296 0.979412 0.204714
C69   C     C_R   0.776560 0.919426 0.980036 0.214161
C70   C     C_R   0.224179 0.081292 0.020584 0.204373
C71   C     C_R   0.223825 0.080698 0.479926 0.213551
C72   C     C_R   0.775810 0.918709 0.520576 0.204708
N1    N     N_R   0.430090 0.538346 0.610410 0.257850
O21   O     O_R   0.611645 0.527533 0.598699 -0.352856
O22   O     O_R   0.378754 0.555477 0.663934 -0.290119
N2    N     N_R   0.564624 0.462511 0.390438 0.253245
O23   O     O_R   0.563643 0.412011 0.354365 -0.239685
O24   O     O_R   0.424308 0.505455 0.388186 -0.387380
N3    N     N_R   0.569877 0.461674 0.110414 0.257842
O25   O     O_R   0.388315 0.472467 0.098700 -0.352830
O26   O     O_R   0.621203 0.444556 0.163941 -0.290166
N4    N     N_R   0.435369 0.537486 0.890417 0.253252
O27   O     O_R   0.436309 0.587974 0.854330 -0.239687
O28   O     O_R   0.575709 0.494551 0.888170 -0.387362
N5    N     N_R   0.930437 0.961735 0.889654 0.257611
O29   O     O_R   0.112378 0.971377 0.901655 -0.351740
O30   O     O_R   0.879056 0.945191 0.835985 -0.290931
N6    N     N_R   0.064706 0.037514 0.109604 0.253227
O31   O     O_R   0.063611 0.088043 0.145645 -0.239648
O32   O     O_R   0.924513 0.994522 0.111900 -0.387420
N7    N     N_R   0.069929 0.038343 0.389585 0.257849
O33   O     O_R   0.888369 0.027533 0.401294 -0.352849
O34   O     O_R   0.121274 0.055473 0.336061 -0.290155
N8    N     N_R   0.935354 0.962514 0.609568 0.253258
O35   O     O_R   0.936325 0.912014 0.645640 -0.239622
O36   O     O_R   0.075675 0.005459 0.611822 -0.387357
H1    H     H_    0.279815 0.432619 0.643410 0.181245
H2    H     H_    0.726062 0.565471 0.354440 0.183355
H3    H     H_    0.720182 0.567394 0.143411 0.181259
H4    H     H_    0.273937 0.434527 0.854431 0.183342
H5    H     H_    0.779918 0.067449 0.856621 0.181349
H6    H     H_    0.226275 0.934599 0.145639 0.183168
H7    H     H_    0.220201 0.932618 0.356585 0.181244
H8    H     H_    0.773919 0.065471 0.645564 0.183372
N9    N     N_R   0.405415 0.636104 0.524466 0.281654
O37   O     O_R   0.348966 0.689743 0.551618 -0.218382
O38   O     O_R   0.587356 0.628907 0.511078 -0.282724
N10   N     N_R   0.592425 0.363890 0.475777 0.283705
O39   O     O_R   0.407660 0.373923 0.482401 -0.299795
O40   O     O_R   0.652009 0.307656 0.453983 -0.210976
N11   N     N_R   0.594553 0.363910 0.024473 0.281653
O41   O     O_R   0.651003 0.310267 0.051615 -0.218399
O42   O     O_R   0.412614 0.371107 0.011086 -0.282730
N12   N     N_R   0.407573 0.636114 0.975752 0.283717
O43   O     O_R   0.592351 0.626081 0.982331 -0.299780
O44   O     O_R   0.347942 0.692359 0.953997 -0.211015
N13   N     N_R   0.906309 0.864160 0.975788 0.281814
O45   O     O_R   0.851947 0.810929 0.947574 -0.217929
O46   O     O_R   0.087382 0.871311 0.990299 -0.283543
N14   N     N_R   0.092351 0.136087 0.024215 0.283732
O47   O     O_R   0.907599 0.126017 0.017600 -0.300042
O48   O     O_R   0.151852 0.192337 0.045997 -0.210866
N15   N     N_R   0.094590 0.136097 0.475532 0.281654
O49   O     O_R   0.151029 0.189734 0.448374 -0.218385
O50   O     O_R   0.912654 0.128897 0.488927 -0.282743
N16   N     N_R   0.907563 0.863895 0.524226 0.283702
O51   O     O_R   0.092330 0.873932 0.517603 -0.299803
O52   O     O_R   0.847977 0.807660 0.546020 -0.210961
N17   N     N_R   0.734001 0.325381 0.579293 0.242098
O53   O     O_R   0.778958 0.263549 0.569944 -0.290386
O54   O     O_R   0.567871 0.339987 0.603133 -0.362390
N18   N     N_R   0.261412 0.675955 0.421846 0.240511
O55   O     O_R   0.425765 0.663610 0.395894 -0.340855
O56   O     O_R   0.214227 0.736977 0.433985 -0.289550
N19   N     N_R   0.266014 0.674626 0.079281 0.242107
O57   O     O_R   0.221020 0.736459 0.069966 -0.290229
O58   O     O_R   0.432191 0.660018 0.103082 -0.362583
N20   N     N_R   0.738578 0.324046 0.921854 0.240517
O59   O     O_R   0.574216 0.336386 0.895909 -0.340859
O60   O     O_R   0.785785 0.263026 0.933986 -0.289504
N21   N     N_R   0.233904 0.174583 0.920691 0.242144
O61   O     O_R   0.278824 0.236420 0.930038 -0.290304
O62   O     O_R   0.067790 0.159962 0.896853 -0.362818
N22   N     N_R   0.761118 0.823955 0.078082 0.240278
O63   O     O_R   0.924839 0.835935 0.104550 -0.340383
O64   O     O_R   0.713939 0.763089 0.065309 -0.288967
N23   N     N_R   0.765999 0.825386 0.420707 0.242097
O65   O     O_R   0.721038 0.763553 0.430056 -0.290374
O66   O     O_R   0.932130 0.839994 0.396867 -0.362399
N24   N     N_R   0.238590 0.175951 0.578153 0.240514
O67   O     O_R   0.074238 0.163606 0.604107 -0.340848
O68   O     O_R   0.285778 0.236972 0.566010 -0.289535

loop_
_geom_bond_atom_site_label_1
_geom_bond_atom_site_label_2
_geom_bond_distance
_ccdc_geom_bond_type
O17   V3    1.704280 S    
N23   O65   1.300783 A    
C64   C72   1.405439 A    
O18   V4    1.704279 S    
N21   O61   1.300786 A    
O12   V1    2.001719 S    
C46   C54   1.425957 A    
C27   H3    1.082473 S    
O16   C8    1.301465 A    
C45   C53   1.425394 A    
N15   O49   1.300791 A    
C26   H2    1.081927 S    
C40   C48   1.416148 A    
C68   N12   1.433479 S    
N6    O32   1.300422 A    
N1    O21   1.300267 A    
C43   C51   1.425377 A    
C41   C49   1.425362 A    
O15   V4    2.001808 S    
C8    C18   1.491431 S    
O16   V3    2.001806 S    
C14   N22   1.431911 S    
C38   C62   1.409282 A    
O11   C3    1.301649 A    
C59   N3    1.434945 S    
O8    V1    2.002301 S    
C50   C65   1.424880 A    
O2    V4    2.002321 S    
N18   O55   1.300742 A    
N15   O50   1.300859 A    
C35   C59   1.407949 A    
C49   C66   1.425075 A    
N9    O37   1.300793 A    
C61   N5    1.435140 S    
C34   C58   1.409303 A    
N24   O67   1.300739 A    
C9    N17   1.431802 S    
N22   O64   1.300737 A    
O19   V1    1.704321 S    
N4    O27   1.300896 A    
C54   C69   1.424844 A    
C37   C45   1.415583 A    
N7    O33   1.300268 A    
C42   C50   1.425958 A    
C53   C70   1.425084 A    
O1    V3    2.002323 S    
C65   N9    1.432722 S    
C38   C46   1.416181 A    
O3    C2    1.291595 A    
C16   C24   1.415756 A    
C10   C50   1.428960 A    
N8    O35   1.300894 A    
C15   N23   1.431801 S    
C62   C70   1.405422 A    
C35   C43   1.415529 A    
C5    C19   1.492211 S    
C29   C37   1.405094 A    
C34   C42   1.416150 A    
C6    C20   1.491420 S    
O11   V2    2.001718 S    
N10   O39   1.301210 A    
N7    O34   1.300897 A    
C31   C39   1.405084 A    
C60   N4    1.436393 S    
C16   C56   1.428959 A    
C7    C17   1.492228 S    
N17   O54   1.300599 A    
C11   C19   1.416495 A    
C11   C51   1.429388 A    
C63   N7    1.434934 S    
O9    V1    2.001773 S    
O4    V3    2.002287 S    
C28   H4    1.081928 S    
C57   C65   1.403996 A    
C20   C28   1.394288 A    
O15   C7    1.301648 A    
C23   C31   1.394371 A    
C25   H1    1.082474 S    
N21   O62   1.300593 A    
O7    V2    2.002299 S    
N11   O42   1.300868 A    
C12   N20   1.431967 S    
O12   C4    1.301499 A    
C45   C46   1.422759 A    
C61   C69   1.404051 A    
C17   C25   1.394370 A    
N6    O31   1.300898 A    
N1    O22   1.300901 A    
N8    O36   1.300412 A    
O17   V1    2.152134 S    
C55   C72   1.425074 A    
C10   C18   1.415758 A    
O19   V3    2.152076 S    
C43   C44   1.422762 A    
C26   C34   1.405575 A    
N11   O41   1.300783 A    
C71   N15   1.432720 S    
C9    C17   1.416494 A    
N14   O48   1.301021 A    
O14   V4    2.001745 S    
C13   N21   1.431802 S    
C14   C54   1.428942 A    
C13   C53   1.429358 A    
C47   C55   1.425363 A    
C63   C71   1.403994 A    
N13   O46   1.301073 A    
C15   C55   1.429371 A    
C62   N6    1.436410 S    
N23   O66   1.300600 A    
O10   V2    2.001775 S    
N19   O57   1.300745 A    
O20   V4    2.152076 S    
C72   N16   1.433476 S    
C22   C30   1.394234 A    
N2    O24   1.300415 A    
O8    C5    1.291895 A    
O13   C5    1.301634 A    
N3    O26   1.300909 A    
C56   C71   1.424878 A    
C29   H5    1.082420 S    
C51   C68   1.425081 A    
C18   C26   1.394288 A    
N10   O40   1.301022 A    
O4    C1    1.291892 A    
C9    C49   1.429372 A    
N22   O63   1.300848 A    
O6    V2    2.002274 S    
C39   C47   1.415533 A    
O18   V2    2.152134 S    
N13   O45   1.301175 A    
N16   O52   1.301023 A    
C12   C20   1.415751 A    
C27   C35   1.405077 A    
C64   N8    1.436399 S    
O5    V1    2.002272 S    
C69   N13   1.432615 S    
C15   C23   1.416491 A    
N20   O59   1.300749 A    
O9    C1    1.301647 A    
C24   C32   1.394288 A    
O1    C4    1.291529 A    
C39   C63   1.407943 A    
O2    C3    1.291884 A    
C58   N2    1.436400 S    
O13   V3    2.001747 S    
C1    C23   1.492217 S    
C33   C41   1.415534 A    
N14   O47   1.301207 A    
C2    C24   1.491424 S    
C31   H7    1.082476 S    
C25   C33   1.405091 A    
C3    C21   1.492215 S    
N12   O44   1.301000 A    
C10   N18   1.431956 S    
C44   C52   1.425967 A    
O7    C6    1.291596 A    
C59   C67   1.403996 A    
C58   C66   1.405441 A    
C70   N14   1.433474 S    
C47   C48   1.422759 A    
O14   C6    1.301453 A    
N5    O30   1.300964 A    
C37   C61   1.408045 A    
C66   N10   1.433477 S    
O20   V2    1.704320 S    
C48   C56   1.425959 A    
N20   O60   1.300642 A    
N5    O29   1.300454 A    
C16   N24   1.431955 S    
C36   C60   1.409293 A    
C19   C27   1.394368 A    
C32   C40   1.405570 A    
O5    C8    1.291591 A    
N4    O28   1.300417 A    
O10   C2    1.301463 A    
O6    C7    1.291887 A    
N18   O56   1.300650 A    
N2    O23   1.300895 A    
C57   N1    1.434937 S    
C33   C57   1.407944 A    
C32   H8    1.081927 S    
O3    V4    2.002288 S    
N24   O68   1.300639 A    
C14   C22   1.415719 A    
C11   N19   1.431817 S    
N12   O43   1.301195 A    
C52   C67   1.424877 A    
C21   C29   1.394342 A    
C30   H6    1.081921 S    
C12   C52   1.428967 A    
C67   N11   1.432725 S    
C36   C44   1.416142 A    
C28   C36   1.405565 A    
C41   C42   1.422761 A    
N3    O25   1.300292 A    
N16   O51   1.301211 A    
C30   C38   1.405576 A    
C60   C68   1.405442 A    
N17   O53   1.300783 A    
N19   O58   1.300589 A    
C13   C21   1.416464 A    
C40   C64   1.409301 A    
C4    C22   1.491360 S    
N9    O38   1.300861 A    
