data_mof_unit_57253.cif
_audit_creation_date              2012-12-11T14:38:22-0500
_audit_creation_method            fapswitch 2.2
_symmetry_space_group_name_H-M    P1
_symmetry_Int_Tables_number       1
_space_group_crystal_system       triclinic
_cell_length_a                    19.567097
_cell_length_b                    11.30909
_cell_length_c                    19.699807
_cell_angle_alpha                 89.40446
_cell_angle_beta                  96.313222
_cell_angle_gamma                 89.866371
_cell_volume                      4332.59568421

loop_
_atom_site_label
_atom_site_type_symbol
_atom_type_description
_atom_site_fract_x
_atom_site_fract_y
_atom_site_fract_z
_atom_type_partial_charge
C1    C     C_R   0.722523 0.959613 0.362077 0.616501
C2    C     C_3   0.167556 0.468410 0.467816 -0.209520
C3    C     C_3   0.077844 0.966553 0.056005 -0.061544
C4    C     C_3   0.383395 0.067858 0.141250 -0.063783
C5    C     C_3   0.617038 0.069242 0.859167 -0.058042
C6    C     C_3   0.883395 0.567858 0.141249 -0.063782
C7    C     C_3   0.117038 0.569245 0.859166 -0.058040
C8    C     C_3   0.326167 0.857432 0.544812 -0.233383
C9    C     C_3   0.667556 0.968410 0.467816 -0.209520
C10   C     C_3   0.700143 0.324570 0.563563 0.429303
C11   C     C_3   0.248592 0.301367 0.448991 0.381294
C12   C     C_3   0.200143 0.824569 0.563563 0.429304
C13   C     C_3   0.748592 0.801367 0.448991 0.381294
C14   C     C_3   0.759471 0.414019 0.568771 0.020086
C15   C     C_3   0.234741 0.433509 0.435117 0.048191
C16   C     C_3   0.259471 0.914019 0.568771 0.020086
C17   C     C_R   0.277000 0.958283 0.638320 0.608051
C18   C     C_3   0.734741 0.933509 0.435117 0.048191
C19   C     C_3   0.738330 0.347630 0.441541 -0.038936
C20   C     C_3   0.250997 0.399083 0.567027 0.021719
C21   C     C_3   0.238330 0.847630 0.441541 -0.038936
C22   C     C_3   0.750997 0.899083 0.567027 0.021719
C23   C     C_3   0.817716 0.341216 0.468468 0.094538
C24   C     C_3   0.173767 0.426021 0.541958 0.120189
C25   C     C_3   0.317716 0.841216 0.468468 0.094538
C26   C     C_3   0.673767 0.926021 0.541958 0.120189
C27   C     C_3   0.696587 0.272078 0.490261 -0.241367
C28   C     C_R   0.222523 0.459613 0.362077 0.616501
C29   C     C_3   0.269090 0.288437 0.527189 -0.226321
C30   C     C_3   0.196587 0.772077 0.490261 -0.241368
C31   C     C_3   0.769090 0.788437 0.527189 -0.226320
C32   C     C_3   0.505897 0.310143 0.962122 0.155095
C33   C     C_3   0.494397 0.310299 0.036487 0.153185
C34   C     C_3   0.005897 0.810143 0.962122 0.155095
C35   C     C_3   0.994397 0.810299 0.036487 0.153185
C36   C     C_3   0.429032 0.113956 0.970411 0.049519
C37   C     C_3   0.572210 0.114676 0.030444 0.049231
C38   C     C_3   0.929033 0.613956 0.970411 0.049519
C39   C     C_R   0.777000 0.458283 0.638320 0.608051
C40   C     C_3   0.072210 0.614676 0.030444 0.049232
C41   C     C_3   0.552784 0.102898 0.951461 0.089206
C42   C     C_3   0.448475 0.103081 0.049512 0.090892
C43   C     C_3   0.052785 0.602898 0.951461 0.089206
C44   C     C_3   0.948475 0.603080 0.049512 0.090892
C45   C     C_R   0.536003 0.180223 0.338177 0.524350
C46   C     C_R   0.461880 0.181095 0.660492 0.557360
C47   C     C_R   0.036003 0.680222 0.338177 0.524351
C48   C     C_R   0.961880 0.681095 0.660492 0.557359
C49   C     C_3   0.487222 0.179257 0.933255 -0.016565
C50   C     C_3   0.715188 0.473832 0.447956 -0.160364
C51   C     C_3   0.513568 0.179968 0.066727 -0.016210
C52   C     C_3   0.987222 0.679256 0.933255 -0.016566
C53   C     C_3   0.013568 0.679968 0.066727 -0.016210
C54   C     C_1   0.763116 0.429129 0.905370 0.055961
C55   C     C_1   0.237403 0.430020 0.094781 0.055072
C56   C     C_1   0.263116 0.929129 0.905370 0.055961
C57   C     C_1   0.737403 0.930019 0.094781 0.055072
C58   C     C_1   0.752234 0.412530 0.036534 0.018624
C59   C     C_1   0.247791 0.411256 0.963465 0.017759
C60   C     C_1   0.252234 0.912530 0.036534 0.018625
C61   C     C_3   0.301311 0.495269 0.547663 -0.268218
C62   C     C_1   0.747792 0.911256 0.963465 0.017758
C63   C     C_1   0.756671 0.419821 0.965437 0.043648
C64   C     C_1   0.243717 0.419884 0.034702 0.043091
C65   C     C_1   0.256671 0.919821 0.965437 0.043648
C66   C     C_1   0.743717 0.919883 0.034702 0.043091
C67   C     C_1   0.746935 0.397899 0.096561 -0.001108
C68   C     C_1   0.252814 0.396153 0.903453 0.000698
C69   C     C_1   0.246935 0.897899 0.096561 -0.001108
C70   C     C_1   0.752814 0.896152 0.903453 0.000697
C71   C     C_R   0.725556 0.312461 0.368115 0.528887
C72   C     C_3   0.215188 0.973832 0.447956 -0.160364
C73   C     C_R   0.259966 0.364425 0.639739 0.606017
C74   C     C_R   0.225555 0.812461 0.368115 0.528887
C75   C     C_R   0.759966 0.864425 0.639739 0.606017
C76   C     C_R   0.722302 0.955095 0.163155 0.587441
C77   C     C_R   0.277780 0.954423 0.836857 0.594317
C78   C     C_R   0.222302 0.455095 0.163155 0.587441
C79   C     C_R   0.777780 0.454423 0.836857 0.594317
C80   C     C_R   0.534983 0.181238 0.140327 0.614829
C81   C     C_R   0.465479 0.180552 0.859566 0.613573
C82   C     C_R   0.034983 0.681238 0.140327 0.614829
C83   C     C_3   0.801311 0.995270 0.547663 -0.268218
C84   C     C_R   0.965479 0.680552 0.859566 0.613571
C85   C     C_R   0.737123 0.360539 0.164755 0.576595
C86   C     C_R   0.262881 0.359482 0.835360 0.572136
C87   C     C_R   0.237123 0.860539 0.164755 0.576595
C88   C     C_R   0.762881 0.859482 0.835360 0.572136
C89   C     C_1   0.480704 0.175014 0.592310 0.107698
C90   C     C_1   0.512196 0.172510 0.404340 0.067698
C91   C     C_1   0.980704 0.675014 0.592310 0.107698
C92   C     C_1   0.012196 0.672510 0.404340 0.067698
C93   C     C_1   0.500002 0.170413 0.462994 0.075348
C94   C     C_3   0.826167 0.357431 0.544812 -0.233382
C95   C     C_1   0.490112 0.171763 0.532887 0.091534
C96   C     C_1   0.000002 0.670413 0.462994 0.075348
C97   C     C_1   0.990112 0.671763 0.532887 0.091534
C98   C     C_3   0.738201 0.516154 0.519833 -0.260267
C99   C     C_3   0.297772 0.503416 0.469479 -0.282894
C100  C     C_3   0.238201 0.016154 0.519833 -0.260267
C101  C     C_3   0.797772 0.003416 0.469479 -0.282894
C102  C     C_3   0.421793 0.466199 0.940581 -0.061169
C103  C     C_3   0.577844 0.466553 0.056005 -0.061544
C104  C     C_3   0.921793 0.966199 0.940581 -0.061169
Cl1   Cl    Cl    0.345301 0.174852 0.948414 -0.632069
Cl2   Cl    Cl    0.171173 0.220912 0.420959 -0.641934
Cl3   Cl    Cl    0.216741 0.719711 0.632117 -0.527519
Cl4   Cl    Cl    0.671173 0.720912 0.420959 -0.641934
Cl5   Cl    Cl    0.618325 0.388997 0.576306 -0.556922
Cl6   Cl    Cl    0.316225 0.245765 0.403180 -0.569746
Cl7   Cl    Cl    0.118325 0.888997 0.576306 -0.556922
Cl8   Cl    Cl    0.816225 0.745765 0.403180 -0.569746
Cl9   Cl    Cl    0.655520 0.176480 0.051490 -0.631660
Cl10  Cl    Cl    0.845301 0.674851 0.948414 -0.632069
Cl11  Cl    Cl    0.155520 0.676480 0.051491 -0.631660
Cl12  Cl    Cl    0.369704 0.947666 0.428338 -0.562243
Cl13  Cl    Cl    0.626112 0.012560 0.594952 -0.555153
Cl14  Cl    Cl    0.869704 0.447666 0.428339 -0.562243
Cl15  Cl    Cl    0.126112 0.512561 0.594952 -0.555153
Cl16  Cl    Cl    0.716741 0.219712 0.632117 -0.527518
Cr1   Cr    Cr6+3 0.765780 0.160710 0.267420 1.083578
Cr2   Cr    Cr6+3 0.383970 0.323720 0.751490 1.086093
Cr3   Cr    Cr6+3 0.116030 0.823720 0.248510 1.092343
Cr4   Cr    Cr6+3 0.883970 0.823720 0.751490 1.086093
Cr5   Cr    Cr6+3 0.234220 0.160710 0.732580 1.107638
Cr6   Cr    Cr6+3 0.265780 0.660710 0.267420 1.083578
Cr7   Cr    Cr6+3 0.734220 0.660710 0.732580 1.107638
Cr8   Cr    Cr6+3 0.612200 0.009560 0.248850 1.067056
Cr9   Cr    Cr6+3 0.387800 0.009560 0.751150 1.051659
Cr10  Cr    Cr6+3 0.112200 0.509560 0.248850 1.067056
Cr11  Cr    Cr6+3 0.887800 0.509560 0.751150 1.051659
Cr12  Cr    Cr6+3 0.616030 0.323720 0.248510 1.092343
H1    H     H_    0.784990 0.569899 0.517026 0.174448
H2    H     H_    0.120530 0.427603 0.441192 0.196448
H3    H     H_    0.337386 0.770694 0.570758 0.137282
H4    H     H_    0.620530 0.927603 0.441192 0.196448
H5    H     H_    0.841763 0.256120 0.458350 0.156436
H6    H     H_    0.144920 0.341194 0.542233 0.193806
H7    H     H_    0.341763 0.756120 0.458350 0.156436
H8    H     H_    0.644919 0.841193 0.542233 0.193806
H9    H     H_    0.562057 0.317346 0.960797 0.216200
H10   H     H_    0.438207 0.317603 0.037747 0.214673
H11   H     H_    0.062057 0.817346 0.960797 0.216200
H12   H     H_    0.295480 0.594831 0.452150 0.110779
H13   H     H_    0.938207 0.817603 0.037747 0.214673
H14   H     H_    0.540011 0.007888 0.941316 0.073477
H15   H     H_    0.461932 0.008237 0.061090 0.074691
H16   H     H_    0.040012 0.507888 0.941316 0.073478
H17   H     H_    0.961933 0.508237 0.061090 0.074691
H18   H     H_    0.578245 0.022869 0.051290 0.130766
H19   H     H_    0.423655 0.021977 0.950903 0.128798
H20   H     H_    0.078245 0.522869 0.051290 0.130766
H21   H     H_    0.923655 0.521976 0.950903 0.128798
H22   H     H_    0.693783 0.562883 0.537701 0.208265
H23   H     H_    0.284989 0.069899 0.517026 0.174448
H24   H     H_    0.346362 0.468160 0.452985 0.192207
H25   H     H_    0.193783 0.062883 0.537701 0.208265
H26   H     H_    0.846362 0.968160 0.452985 0.192207
H27   H     H_    0.658102 0.479662 0.437301 0.205699
H28   H     H_    0.355080 0.472737 0.568249 0.158365
H29   H     H_    0.158102 0.979662 0.437301 0.205699
H30   H     H_    0.855080 0.972737 0.568249 0.158365
H31   H     H_    0.738591 0.529092 0.409846 0.279512
H32   H     H_    0.290052 0.580304 0.569753 0.194039
H33   H     H_    0.238591 0.029092 0.409846 0.279512
H34   H     H_    0.795480 0.094831 0.452150 0.110779
H35   H     H_    0.790052 0.080304 0.569753 0.194038
H36   H     H_    0.372226 0.913668 0.558578 0.192427
H37   H     H_    0.654073 0.061566 0.461255 0.106859
H38   H     H_    0.872226 0.413667 0.558578 0.192427
H39   H     H_    0.154074 0.561566 0.461255 0.106859
H40   H     H_    0.642514 0.261296 0.467537 0.138460
H41   H     H_    0.324368 0.264274 0.539445 0.129690
H42   H     H_    0.142514 0.761296 0.467537 0.138460
H43   H     H_    0.824369 0.764274 0.539445 0.129690
H44   H     H_    0.430408 0.519767 0.987567 0.145345
H45   H     H_    0.721311 0.187112 0.497129 0.114382
H46   H     H_    0.382528 0.398803 0.945529 0.171310
H47   H     H_    0.402113 0.526993 0.898350 0.149931
H48   H     H_    0.568509 0.520488 0.008542 0.146537
H49   H     H_    0.617532 0.399651 0.051452 0.170160
H50   H     H_    0.597433 0.527133 0.097535 0.150234
H51   H     H_    0.930408 0.019766 0.987567 0.145345
H52   H     H_    0.882529 0.898802 0.945529 0.171310
H53   H     H_    0.902113 0.026993 0.898350 0.149931
H54   H     H_    0.068509 0.020488 0.008542 0.146537
H55   H     H_    0.117532 0.899651 0.051452 0.170160
H56   H     H_    0.238092 0.221407 0.546947 0.123008
H57   H     H_    0.097433 0.027133 0.097536 0.150234
H58   H     H_    0.424552 0.079941 0.183893 0.146922
H59   H     H_    0.379820 0.973245 0.126647 0.112971
H60   H     H_    0.334173 0.092605 0.160453 0.156764
H61   H     H_    0.576101 0.084140 0.816441 0.152672
H62   H     H_    0.619848 0.974007 0.873704 0.108765
H63   H     H_    0.666472 0.093043 0.839996 0.163171
H64   H     H_    0.924552 0.579941 0.183892 0.146922
H65   H     H_    0.879819 0.473245 0.126647 0.112971
H66   H     H_    0.834173 0.592605 0.160453 0.156764
H67   H     H_    0.221311 0.687112 0.497129 0.114382
H68   H     H_    0.076102 0.584149 0.816439 0.152673
H69   H     H_    0.119845 0.474009 0.873701 0.108764
H70   H     H_    0.166473 0.593042 0.839997 0.163168
H71   H     H_    0.738092 0.721407 0.546947 0.123008
H72   H     H_    0.837386 0.270693 0.570758 0.137281
O1    O     O_R   0.783100 0.287550 0.345460 -0.462999
O2    O     O_R   0.454350 0.284910 0.836260 -0.422752
O3    O     O_R   0.045650 0.784910 0.163740 -0.424814
O4    O     O_R   0.954350 0.784910 0.836260 -0.422753
O5    O     O_R   0.677950 0.374280 0.185410 -0.480527
O6    O     O_R   0.322050 0.374280 0.814590 -0.487417
O7    O     O_R   0.177950 0.874280 0.185410 -0.480527
O8    O     O_R   0.822050 0.874280 0.814590 -0.487417
O9    O     O_3   0.664670 0.164660 0.254930 -0.306234
O10   O     O_3   0.335330 0.164660 0.745070 -0.291623
O11   O     O_3   0.164670 0.664660 0.254930 -0.306234
O12   O     O_R   0.216900 0.287550 0.654540 -0.509989
O13   O     O_3   0.835330 0.664660 0.745070 -0.291623
O14   O     O_R   0.760020 0.037400 0.337700 -0.532941
O15   O     O_R   0.239980 0.037400 0.662300 -0.479832
O16   O     O_R   0.260020 0.537400 0.337700 -0.532941
O17   O     O_R   0.739980 0.537400 0.662300 -0.479832
O18   O     O_R   0.666600 0.921990 0.332020 -0.454229
O19   O     O_R   0.333400 0.921990 0.667980 -0.511718
O20   O     O_R   0.166600 0.421990 0.332020 -0.454229
O21   O     O_R   0.833400 0.421990 0.667980 -0.511718
O22   O     O_R   0.557260 0.082670 0.312540 -0.507706
O23   O     O_R   0.283100 0.787550 0.345460 -0.462999
O24   O     O_R   0.442740 0.082670 0.687460 -0.509268
O25   O     O_R   0.057260 0.582670 0.312540 -0.507706
O26   O     O_R   0.942740 0.582670 0.687460 -0.509268
O27   O     O_R   0.548410 0.285740 0.316480 -0.506823
O28   O     O_R   0.451590 0.285740 0.683520 -0.492779
O29   O     O_R   0.048410 0.785740 0.316480 -0.506823
O30   O     O_R   0.951590 0.785740 0.683520 -0.492779
O31   O     O_R   0.680500 0.375040 0.327000 -0.483269
O32   O     O_R   0.319500 0.375040 0.673000 -0.511822
O33   O     O_R   0.180500 0.875040 0.327000 -0.483269
O34   O     O_R   0.716900 0.787550 0.654540 -0.509988
O35   O     O_R   0.819500 0.875040 0.673000 -0.511822
O36   O     O_R   0.780350 0.286720 0.192720 -0.488938
O37   O     O_R   0.219650 0.286720 0.807280 -0.492584
O38   O     O_R   0.280350 0.786720 0.192720 -0.488938
O39   O     O_R   0.719650 0.786720 0.807280 -0.492584
O40   O     O_R   0.757470 0.036630 0.196110 -0.470241
O41   O     O_R   0.242530 0.036630 0.803890 -0.465117
O42   O     O_R   0.257470 0.536630 0.196110 -0.470240
O43   O     O_R   0.742530 0.536630 0.803890 -0.465117
O44   O     O_R   0.663840 0.921160 0.179280 -0.503556
O45   O     O_R   0.554710 0.081900 0.170950 -0.529184
O46   O     O_R   0.336160 0.921160 0.820720 -0.505907
O47   O     O_R   0.163840 0.421160 0.179280 -0.503556
O48   O     O_R   0.836160 0.421160 0.820720 -0.505906
O49   O     O_3   0.483686 0.415395 0.924540 -0.549150
O50   O     O_3   0.516495 0.415060 0.073071 -0.549407
O51   O     O_3   0.983687 0.915395 0.924540 -0.549150
O52   O     O_3   0.016495 0.915060 0.073071 -0.549406
O53   O     O_3   0.393323 0.142635 0.085333 -0.528926
O54   O     O_3   0.607675 0.142568 0.915044 -0.528389
O55   O     O_3   0.893323 0.642635 0.085333 -0.528926
O56   O     O_R   0.445290 0.081900 0.829050 -0.528427
O57   O     O_3   0.107676 0.642569 0.915044 -0.528390
O58   O     O_R   0.054710 0.581900 0.170950 -0.529184
O59   O     O_R   0.945290 0.581900 0.829050 -0.528426
O60   O     O_R   0.545650 0.284910 0.163740 -0.424814

loop_
_geom_bond_atom_site_label_1
_geom_bond_atom_site_label_2
_ccdc_geom_bond_type
C10   C27   S    
Cr1   O40   S    
Cr2   O32   S    
C98   H22   S    
C4    O53   S    
C8    C25   S    
Cr3   O11   S    
Cr6   O42   S    
C61   H32   S    
C68   C86   S    
Cr1   O14   S    
Cr2   O2    S    
C19   C71   S    
Cr6   O23   S    
C80   O60   A    
C26   Cl13  S    
Cr1   O1    S    
C57   C66   T    
Cr9   O19   S    
Cr9   O56   S    
C70   C88   S    
C84   O4    A    
C23   Cl14  S    
C6    H64   S    
C46   C89   S    
C31   H43   S    
Cr10  O47   S    
C103  O50   S    
C104  H53   S    
C87   O7    A    
C98   H1    S    
C40   H20   S    
C59   C64   S    
C2    H2    S    
C104  O51   S    
C13   C18   S    
C57   C76   S    
C5    H61   S    
C33   O50   S    
C76   O40   A    
C34   C35   S    
C7    H70   S    
C26   H8    S    
C13   Cl8   S    
C3    H57   S    
C23   C94   S    
C38   Cl10  S    
Cr5   O12   S    
C100  H23   S    
C43   C52   S    
C40   Cl11  S    
C35   C53   S    
C54   C63   T    
C102  H44   S    
C56   C65   T    
C103  H50   S    
C92   C96   T    
C62   C70   T    
C10   Cl5   S    
C103  H48   S    
C35   H13   S    
C49   C81   S    
C7    H68   S    
C52   C84   S    
C4    H60   S    
C51   C80   S    
C73   O32   A    
C43   H16   S    
C8    H36   S    
C13   Cl4   S    
C14   C39   S    
C3    O52   S    
C75   O35   A    
C44   C53   S    
C40   C43   S    
C41   H14   S    
C12   C16   S    
C16   C17   S    
C81   O56   A    
C48   C91   S    
Cr3   O7    S    
C32   O49   S    
Cr6   O38   S    
C72   H29   S    
Cr2   O6    S    
C73   O12   A    
Cr5   O37   S    
C1    O14   A    
C71   O31   A    
C19   C27   S    
Cr7   O17   S    
C37   H18   S    
C102  H46   S    
C31   H71   S    
C69   C87   S    
C76   O44   A    
C2    H39   S    
C5    H63   S    
C48   O26   A    
C8    C16   S    
C86   O6    A    
C30   H67   S    
C50   H31   S    
C93   C95   S    
Cr3   O29   S    
Cr4   O4    S    
C11   Cl6   S    
C102  H47   S    
C4    H59   S    
C61   C99   S    
C11   C15   S    
C22   C75   S    
C88   O39   A    
C47   C92   S    
C42   H15   S    
C100  H25   S    
C41   C49   S    
C82   O3    A    
Cr6   O16   S    
C9    C26   S    
C14   C98   S    
Cr11  O59   S    
C20   C29   S    
C55   C64   T    
Cr5   O41   S    
C34   H11   S    
C67   C85   S    
C50   C98   S    
C22   C31   S    
C62   C66   S    
C21   C72   S    
Cr8   O44   S    
C4    H58   S    
C99   H12   S    
Cr7   O39   S    
C88   O8    A    
C10   C14   S    
C61   H28   S    
Cr8   O18   S    
C43   O57   S    
Cr4   O35   S    
C3    H54   S    
C16   C100  S    
C87   O38   A    
Cr4   O8    S    
Cr10  O25   S    
C24   H6    S    
C83   H35   S    
C21   C74   S    
C56   C77   S    
Cr2   O10   S    
C3    H55   S    
C53   C82   S    
C18   C101  S    
C79   O43   A    
C9    H37   S    
C89   C95   T    
Cr12  O9    S    
C19   C23   S    
C9    H4    S    
C38   C44   S    
C74   O23   A    
C17   O19   A    
C44   H17   S    
C59   C68   T    
C6    H65   S    
Cr5   O10   S    
Cr11  O21   S    
C78   O47   A    
C28   O20   A    
C96   C97   S    
C11   Cl2   S    
C1    C18   S    
Cr3   O3    S    
Cr10  O11   S    
C84   O59   A    
C91   C97   T    
C58   C63   S    
C2    C15   S    
C32   H9    S    
Cr10  O58   S    
Cr7   O43   S    
C14   C94   S    
Cr5   O15   S    
Cr11  O26   S    
Cr8   O22   S    
C104  H52   S    
C83   H30   S    
C60   C65   S    
C7    O57   S    
C80   O45   A    
C2    C24   S    
C35   O52   S    
C50   H27   S    
Cr8   O9    S    
C25   Cl12  S    
C94   H72   S    
Cr3   O33   S    
Cr12  O27   S    
Cr11  O48   S    
Cr7   O13   S    
C90   C93   T    
C6    H66   S    
C54   C79   S    
C72   C100  S    
C82   O58   A    
C55   C78   S    
C21   C25   S    
Cr9   O46   S    
C24   Cl15  S    
C83   C101  S    
C25   H7    S    
C36   Cl1   S    
C103  H49   S    
C46   O28   A    
C23   H5    S    
C79   O48   A    
C39   O17   A    
Cr12  O5    S    
C27   H45   S    
C29   H41   S    
C17   O15   A    
C36   C42   S    
C101  H26   S    
C12   Cl3   S    
C34   O51   S    
C36   H19   S    
C9    C18   S    
C47   O25   A    
C42   C51   S    
C33   H10   S    
C33   C51   S    
Cr1   O36   S    
Cr2   O28   S    
C21   C30   S    
C20   C61   S    
C81   O2    A    
C34   C52   S    
Cr8   O45   S    
C72   H33   S    
Cr12  O60   S    
Cr11  O13   S    
C102  O49   S    
C32   C33   S    
C85   O36   A    
C74   O33   A    
C12   C30   S    
C94   H38   S    
Cr4   O30   S    
C7    H69   S    
C45   O22   A    
C22   C83   S    
C44   O55   S    
C15   C99   S    
C19   C50   S    
C15   C28   S    
Cr9   O24   S    
C60   C69   T    
C86   O37   A    
C37   C51   S    
C27   H40   S    
C38   C52   S    
Cr10  O20   S    
C5    O54   S    
C78   O42   A    
C30   H42   S    
C20   C73   S    
Cr9   O10   S    
C77   O41   A    
C42   O53   S    
C37   C41   S    
C101  H34   S    
C13   C31   S    
Cr12  O31   S    
C48   O30   A    
C32   C49   S    
C39   O21   A    
C10   Cl16  S    
Cr6   O11   S    
Cr4   O13   S    
C6    O55   S    
C99   H24   S    
C58   C67   T    
C71   O1    A    
C104  H51   S    
C37   Cl9   S    
C85   O5    A    
C11   C29   S    
Cr7   O34   S    
C28   O16   A    
C40   C53   S    
C22   C26   S    
C29   H56   S    
C46   O24   A    
C1    O18   A    
C75   O34   A    
C77   O46   A    
C45   O27   A    
C38   H21   S    
C47   O29   A    
C41   O54   S    
C20   C24   S    
C12   Cl7   S    
C45   C90   S    
C36   C49   S    
Cr1   O9    S    
C5    H62   S    
C8    H3    S    
