data_mof_unit_51300.cif
_audit_creation_date              2012-12-11T15:53:45-0500
_audit_creation_method            fapswitch 2.2
_symmetry_space_group_name_H-M    P1
_symmetry_Int_Tables_number       1
_space_group_crystal_system       triclinic
_cell_length_a                    10.608028
_cell_length_b                    10.725133
_cell_length_c                    16.927586
_cell_angle_alpha                 80.706145
_cell_angle_beta                  99.380937
_cell_angle_gamma                 118.830299
_cell_volume                      1656.94550337

loop_
_atom_site_label
_atom_site_type_symbol
_atom_type_description
_atom_site_fract_x
_atom_site_fract_y
_atom_site_fract_z
_atom_type_partial_charge
C1    C     C_R   0.385318 0.285637 0.632059 0.550849
C2    C     C_R   0.380349 0.834122 0.669607 0.251532
C3    C     C_R   0.367657 0.853641 0.747331 0.362135
C4    C     C_3   0.146446 0.455477 0.795593 0.445920
C5    C     C_3   0.160483 0.433126 0.711798 -0.166972
C6    C     C_R   0.310033 0.694060 0.644467 -0.034468
C7    C     C_1   0.852318 0.669819 0.702359 0.003905
C8    C     C_1   0.899585 0.704387 0.769202 -0.005694
C9    C     C_1   0.366038 0.234955 0.714562 0.027938
C10   C     C_1   0.334589 0.187844 0.781867 0.065135
C11   C     C_1   0.317775 0.683147 0.280465 0.013510
C12   C     C_R   0.367681 0.655985 0.584642 0.565535
C13   C     C_1   0.296691 0.707397 0.209716 -0.006859
C14   C     C_R   0.794782 0.648361 0.148508 0.029537
C15   C     C_R   0.771648 0.521266 0.196540 -0.050602
C16   C     C_R   0.737682 0.500234 0.273653 -0.032011
C17   C     C_R   0.711228 0.714395 0.252242 -0.087873
C18   C     C_R   0.751821 0.739673 0.173962 0.378469
C19   C     C_3   0.869713 0.454171 0.220197 -0.176772
C20   C     C_3   0.834043 0.433774 0.305318 -0.212607
C21   C     C_R   0.718295 0.601106 0.304882 -0.054275
C22   C     C_R   0.342642 0.197989 0.149963 -0.005256
C23   C     C_R   0.781903 0.621252 0.625945 0.554015
C24   C     C_R   0.269644 0.267246 0.168856 0.010305
C25   C     C_R   0.280886 0.295578 0.246752 0.003666
C26   C     C_R   0.459134 0.212988 0.285406 -0.150249
C27   C     C_R   0.448132 0.183819 0.206858 -0.159658
C28   C     C_3   0.113228 0.233004 0.154802 0.338603
C29   C     C_3   0.124687 0.259348 0.241511 0.566856
C30   C     C_R   0.369398 0.262215 0.306741 -0.009169
C31   C     C_R   0.948487 0.725211 0.851812 0.507698
C32   C     C_R   0.281606 0.750674 0.882610 0.576745
C33   C     C_R   0.287042 0.118997 0.858546 0.585161
C34   C     C_R   0.379100 0.292992 0.387720 0.558269
C35   C     C_R   0.882154 0.688760 0.082052 0.556007
C36   C     C_R   0.284103 0.738983 0.125471 0.537108
C37   C     C_R   0.288877 0.113992 0.082440 0.552242
C38   C     C_R   0.361818 0.657099 0.361886 0.541570
C39   C     C_R   0.701831 0.583802 0.389731 0.539368
C40   C     C_R   0.280345 0.736111 0.798353 -0.041915
C41   C     C_R   0.186308 0.607631 0.764767 -0.024549
C42   C     C_R   0.200286 0.587156 0.688879 -0.106705
Cr1   Cr    Cr6+3 0.608440 0.389080 0.519680 1.106124
Cr2   Cr    Cr6+3 0.288640 0.400090 0.490760 1.079336
Cr3   Cr    Cr6+3 0.602940 0.710800 0.489510 1.089618
Cr4   Cr    Cr6+3 0.052530 0.947560 0.964210 1.151644
Cr5   Cr    Cr6+3 0.059970 0.626800 0.992920 1.179605
Cr6   Cr    Cr6+3 0.373320 0.938440 0.995370 1.134946
H1    H     H_    0.827947 0.351840 0.193192 0.208863
H2    H     H_    0.774900 0.319593 0.328281 0.160362
H3    H     H_    0.928715 0.500889 0.345980 0.177713
H4    H     H_    0.531057 0.188275 0.330158 0.158216
H5    H     H_    0.509764 0.134575 0.193746 0.156728
H6    H     H_    0.035986 0.121390 0.141774 0.176074
H7    H     H_    0.251338 0.411105 0.709114 0.128452
H8    H     H_    0.056667 0.361298 0.678971 0.174842
H9    H     H_    0.686560 0.789537 0.273356 0.188954
H10   H     H_    0.985027 0.531200 0.213243 0.198302
O1    O     O_R   0.754020 0.497590 0.609930 -0.479798
O2    O     O_R   0.295080 0.533620 0.397890 -0.478644
O3    O     O_R   0.485280 0.746620 0.388440 -0.519519
O4    O     O_R   0.720550 0.696220 0.420010 -0.472419
O5    O     O_3   0.500010 0.499990 0.499980 -0.351650
O6    O     O_R   0.163320 0.092900 0.874450 -0.467054
O7    O     O_R   0.934650 0.822080 0.882840 -0.466173
O8    O     O_R   0.915520 0.604140 0.893670 -0.448220
O9    O     O_R   0.191760 0.638110 0.923230 -0.426967
O10   O     O_R   0.406180 0.826930 0.920660 -0.399396
O11   O     O_R   0.358620 0.062870 0.901950 -0.470182
O12   O     O_R   0.481420 0.271390 0.600630 -0.400274
O13   O     O_R   0.163910 0.085460 0.050210 -0.480806
O14   O     O_R   0.935200 0.815170 0.045770 -0.439488
O15   O     O_R   0.916120 0.596690 0.069430 -0.520067
O16   O     O_R   0.192310 0.631200 0.086170 -0.394082
O17   O     O_R   0.406770 0.819480 0.096420 -0.461029
O18   O     O_R   0.359170 0.055960 0.064880 -0.528599
O19   O     O_3   0.161940 0.837600 0.984160 -0.388200
O20   O     O_R   0.263810 0.254550 0.589590 -0.502445
O21   O     O_R   0.300820 0.531200 0.560890 -0.529983
O22   O     O_R   0.491480 0.744020 0.564270 -0.446845
O23   O     O_R   0.726290 0.693800 0.583010 -0.482852
O24   O     O_R   0.747830 0.500190 0.434090 -0.513635
O25   O     O_R   0.475680 0.273800 0.437630 -0.493287
O26   O     O_R   0.257620 0.257160 0.413750 -0.415773
Cl1   Cl    Cl    0.495319 0.985424 0.609577 -0.457725
F1    F     F_    0.093249 0.334603 0.100470 -0.543596
F2    F     F_    0.107227 0.375524 0.250295 -0.610757
Cl2   Cl    Cl    0.012477 0.099848 0.300454 -0.558495
F3    F     F_    0.450055 0.984171 0.774976 -0.577443
Cl3   Cl    Cl    0.966094 0.357335 0.823551 -0.442254
Cl4   Cl    Cl    0.277020 0.434482 0.870283 -0.508400
F4    F     F_    0.762588 0.859142 0.127231 -0.590163

loop_
_geom_bond_atom_site_label_1
_geom_bond_atom_site_label_2
_ccdc_geom_bond_type
C31   O8    A    
C5    C42   S    
C16   C21   A    
Cr1   O25   S    
C41   C42   A    
C14   C18   A    
C5    H8    S    
C19   C20   S    
Cr6   O11   S    
C39   O24   A    
Cr1   O5    S    
C7    C8    T    
C15   C19   S    
C26   C27   A    
C28   C29   S    
C20   H3    S    
C6    C12   S    
C4    C41   S    
C15   C16   A    
C12   O21   A    
Cr3   O4    S    
C2    Cl1   S    
Cr6   O18   S    
C29   Cl2   S    
C20   H2    S    
C10   C33   S    
C9    C10   T    
Cr5   O8    S    
Cr4   O14   S    
Cr1   O1    S    
C32   O10   A    
C38   O3    A    
C19   H10   S    
C1    O20   A    
Cr6   O17   S    
C2    C6    A    
C34   O26   A    
Cr5   O9    S    
C4    Cl3   S    
Cr2   O5    S    
C25   C29   S    
C30   C34   S    
C1    C9    S    
C24   C25   A    
Cr5   O15   S    
C13   C36   S    
C14   C35   S    
C28   H6    S    
C22   C37   S    
Cr3   O5    S    
C17   C21   A    
Cr4   O6    S    
Cr6   O19   S    
C11   C38   S    
C23   O1    A    
C36   O17   A    
C26   H4    S    
C19   H1    S    
C21   C39   S    
C16   C20   S    
C17   C18   A    
Cr6   O10   S    
Cr4   O13   S    
C36   O16   A    
Cr4   O7    S    
C32   O9    A    
C38   O2    A    
C40   C41   A    
C37   O18   A    
C3    C40   A    
C26   C30   A    
Cr1   O12   S    
C22   C27   A    
C37   O13   A    
C28   F1    S    
C22   C24   A    
C34   O25   A    
Cr5   O19   S    
C25   C30   A    
C31   O7    A    
C39   O4    A    
C35   O15   A    
C23   O23   A    
C8    C31   S    
C5    H7    S    
Cr2   O21   S    
Cr3   O23   S    
C24   C28   S    
Cr5   O16   S    
C4    C5    S    
Cr2   O26   S    
C35   O14   A    
Cr4   O19   S    
C27   H5    S    
C33   O11   A    
C1    O12   A    
C3    F3    S    
C18   F4    S    
C4    Cl4   S    
Cr2   O20   S    
C2    C3    A    
C11   C13   T    
Cr2   O2    S    
C33   O6    A    
C7    C23   S    
C12   O22   A    
Cr3   O3    S    
Cr3   O22   S    
C32   C40   S    
C29   F2    S    
C6    C42   A    
Cr1   O24   S    
C14   C15   A    
C17   H9    S    
