data_mof_unit_31939.cif
_audit_creation_date              2012-12-10T18:57:42-0500
_audit_creation_method            fapswitch 2.2
_symmetry_space_group_name_H-M    P1
_symmetry_Int_Tables_number       1
_space_group_crystal_system       triclinic
_cell_length_a                    10.926283
_cell_length_b                    10.819434
_cell_length_c                    9.546667
_cell_angle_alpha                 90.043522
_cell_angle_beta                  89.742812
_cell_angle_gamma                 90.219766
_cell_volume                      1128.55069166

loop_
_atom_site_label
_atom_site_type_symbol
_atom_type_description
_atom_site_fract_x
_atom_site_fract_y
_atom_site_fract_z
_atom_type_partial_charge
C1    C     C_R   0.497337 0.262321 0.499928 0.796653
C2    C     C_R   0.484556 0.129201 0.499680 -0.099161
C3    C     C_R   0.468815 0.064217 0.373365 -0.207314
C4    C     C_R   0.469119 0.935347 0.373399 -0.194914
C5    C     C_R   0.485183 0.870742 0.499740 -0.080475
C6    C     C_R   0.483282 0.936471 0.625534 0.171329
C7    C     C_3   0.568166 0.930829 0.747535 -0.482114
C8    C     C_3   0.567093 0.071131 0.747970 -0.458660
C9    C     C_R   0.557747 0.592227 0.073355 0.248641
C10   C     C_R   0.433314 0.415992 0.074702 -0.065383
C11   C     C_R   0.433313 0.415973 0.925817 -0.060788
C12   C     C_R   0.265707 0.507289 0.500298 0.755990
C13   C     C_R   0.557773 0.592213 0.925941 0.224409
C14   C     C_3   0.690572 0.623901 0.919344 -0.439413
C15   C     C_3   0.690575 0.623543 0.078101 -0.492876
C16   C     C_R   0.497758 0.737692 0.499973 0.835920
C17   C     C_R   0.734502 0.495602 0.499970 0.845865
C18   C     C_2   0.934629 0.503004 0.389070 -0.098804
C19   C     C_2   0.865846 0.481330 0.502056 -0.234886
C20   C     C_2   0.067029 0.489732 0.395979 -0.290565
C21   C     C_2   0.135997 0.534795 0.501052 0.277021
C22   C     C_R   0.482765 0.063682 0.625530 0.128341
Cu1   Cu    Cu3+1 0.499990 0.499980 0.640670 0.964809
Cu2   Cu    Cu3+1 0.500010 0.500020 0.359330 0.953577
H1    H     H_    0.894013 0.523833 0.288636 0.161580
H2    H     H_    0.657212 0.113075 0.720827 0.207078
H3    H     H_    0.381200 0.346508 0.130712 0.135447
H4    H     H_    0.381236 0.346452 0.870237 0.143824
H5    H     H_    0.747240 0.548777 0.873626 0.237683
H6    H     H_    0.707330 0.716913 0.874030 0.202839
H7    H     H_    0.746217 0.547346 0.121687 0.214393
H8    H     H_    0.707591 0.716205 0.124627 0.203023
H9    H     H_    0.907244 0.452323 0.599663 0.188634
H10   H     H_    0.109116 0.437025 0.311717 0.149012
H11   H     H_    0.462423 0.112247 0.274172 0.161488
H12   H     H_    0.462899 0.887095 0.274214 0.164693
H13   H     H_    0.523770 0.889584 0.841609 0.200054
H14   H     H_    0.658839 0.891476 0.719240 0.210018
H15   H     H_    0.521496 0.110918 0.841983 0.197860
N1    N     N_R   0.500780 0.500930 0.147930 -0.184280
N2    N     N_R   0.500780 0.500890 0.852020 -0.190002
O1    O     O_R   0.500000 0.319640 0.618810 -0.586712
O2    O     O_R   0.500010 0.319680 0.381230 -0.590293
O3    O     O_R   0.321940 0.499980 0.618760 -0.563201
O4    O     O_R   0.321950 0.500020 0.381180 -0.595560
O5    O     O_R   0.499990 0.680320 0.618770 -0.577224
O6    O     O_R   0.500000 0.680360 0.381190 -0.586013
O7    O     O_R   0.678050 0.499980 0.618820 -0.579705
O8    O     O_R   0.678060 0.500020 0.381240 -0.585901
S1    S     S_3+6 0.084247 0.644486 0.627540 0.010915
O9    O     O_2   0.979932 0.719799 0.571797 -0.255910
O10   O     O_2   0.043078 0.578376 0.758102 -0.332859
O11   O     O_3   0.199797 0.741394 0.668094 -0.521823
H16   H     H_    0.238459 0.705998 0.752639 0.363742

loop_
_geom_bond_atom_site_label_1
_geom_bond_atom_site_label_2
_ccdc_geom_bond_type
C10   H3    S    
C2    C22   A    
C8    C22   S    
Cu1   Cu2   S    
C4    H12   S    
C15   H7    S    
C6    C7    S    
C12   O4    A    
C8    H15   S    
C8    H2    S    
S1    O10   D    
Cu1   N2    S    
C17   O7    A    
C3    H11   S    
C20   H10   S    
C13   N2    A    
C2    C3    A    
C7    H13   S    
C7    C8    S    
C12   O3    A    
Cu1   O5    S    
C13   C14   S    
Cu1   O1    S    
C18   H1    S    
C11   H4    S    
C14   H6    S    
Cu2   O4    S    
C16   O6    A    
C21   S1    S    
C17   C19   S    
C7    H14   S    
C11   N2    A    
C18   C20   S    
C9    C15   S    
C5    C6    A    
S1    O11   S    
C10   C11   A    
C14   H5    S    
C16   O5    A    
C3    C4    A    
C6    C22   A    
C1    O1    A    
C15   H8    S    
C20   C21   D    
C10   N1    A    
C1    C2    S    
C19   H9    S    
C17   O8    A    
Cu2   O8    S    
Cu2   O2    S    
C9    C13   A    
C14   C15   S    
C18   C19   D    
C5    C16   S    
Cu1   O7    S    
S1    O9    D    
Cu2   N1    S    
O11   H16   S    
Cu2   O6    S    
C12   C21   S    
C1    O2    A    
C9    N1    A    
Cu1   O3    S    
C4    C5    A    
