data_mof_unit_57518.cif
_audit_creation_date              2012-10-26T21:01:34-0400
_audit_creation_method            fapswitch 2.2
_symmetry_space_group_name_H-M    P1
_symmetry_Int_Tables_number       1
_space_group_crystal_system       triclinic
_cell_length_a                    15.865197
_cell_length_b                    13.012055
_cell_length_c                    11.658353
_cell_angle_alpha                 100.551018
_cell_angle_beta                  93.660864
_cell_angle_gamma                 90.316367
_cell_volume                      2360.8526299

loop_
_atom_site_label
_atom_site_type_symbol
_atom_type_description
_atom_site_fract_x
_atom_site_fract_y
_atom_site_fract_z
_atom_type_partial_charge
C1    C     C_R   0.499661 0.298762 0.477761 0.557687
C2    C     C_R   0.500394 0.967738 0.444977 -0.013107
C3    C     C_R   0.419100 0.402646 0.020841 0.214467
C4    C     C_R   0.583089 0.594497 0.978719 0.203410
C5    C     C_R   0.426735 0.413068 0.143692 0.071259
C6    C     C_R   0.573541 0.586546 0.856226 0.064346
C7    C     C_R   0.535734 0.540609 0.157588 0.026619
C8    C     C_R   0.464607 0.458970 0.842356 0.029533
C9    C     C_R   0.530264 0.534086 0.034483 -0.037475
C10   C     C_R   0.470648 0.464760 0.965357 -0.034083
C11   C     C_R   0.339706 0.500092 0.500396 0.549967
C12   C     C_R   0.500932 0.701329 0.522357 0.565080
C13   C     C_R   0.660269 0.499957 0.499553 0.545170
C14   C     C_3   0.972722 0.409607 0.518217 0.296299
C15   C     C_3   0.027009 0.590998 0.479619 0.299101
C16   C     C_3   0.023932 0.422670 0.413579 -0.134864
C17   C     C_3   0.975824 0.577936 0.584273 -0.135691
C18   C     C_1   0.250054 0.500278 0.501078 -0.015307
C19   C     C_1   0.749857 0.500027 0.498497 -0.026330
C20   C     C_3   0.032267 0.484859 0.604909 -0.136032
C21   C     C_3   0.967426 0.515723 0.392942 -0.135751
C22   C     C_3   0.082816 0.499701 0.499916 0.027127
C23   C     C_R   0.502479 0.011410 0.344282 -0.110301
C24   C     C_3   0.916948 0.500919 0.497998 0.026177
C25   C     C_1   0.174502 0.500224 0.500782 -0.020906
C26   C     C_1   0.825343 0.500275 0.497971 -0.029252
C27   C     C_R   0.500528 0.815494 0.536932 0.013681
C28   C     C_R   0.500599 0.184805 0.463796 0.006762
C29   C     C_3   0.002857 0.245088 0.554374 -0.007588
C30   C     C_3   0.964364 0.142972 0.574162 -0.369939
C31   C     C_3   0.996401 0.754677 0.441243 -0.006803
C32   C     C_3   0.034623 0.857378 0.422793 -0.368994
C33   C     C_3   0.435766 0.868850 0.818917 -0.011216
C34   C     C_R   0.499390 0.988984 0.656671 -0.118181
C35   C     C_3   0.424120 0.792172 0.900928 -0.348805
C36   C     C_3   0.592831 0.160017 0.220855 0.002130
C37   C     C_3   0.598070 0.206654 0.111002 -0.368416
C38   C     C_3   0.390240 0.234927 0.931919 -0.029590
C39   C     C_3   0.328825 0.165749 0.845198 -0.370454
C40   C     C_3   0.720621 0.617389 0.044871 -0.018409
C41   C     C_3   0.782296 0.688103 0.129648 -0.372948
C42   C     C_R   0.504947 0.119804 0.352903 0.251416
C43   C     C_R   0.498738 0.880157 0.648610 0.260485
C44   C     C_R   0.498490 0.140281 0.564282 -0.177843
C45   C     C_R   0.500759 0.860065 0.436338 -0.176847
C46   C     C_R   0.499212 0.032529 0.555709 -0.009624
Cu1   Cu    Cu3+1 0.506200 0.507730 0.615930 0.948043
Cu2   Cu    Cu3+1 0.493800 0.492270 0.384070 0.948321
H1    H     H_    0.044892 0.358858 0.345065 0.104385
H2    H     H_    0.580995 0.593592 0.212133 0.169189
H3    H     H_    0.612943 0.634429 0.813879 0.158760
H4    H     H_    0.386272 0.366560 0.186222 0.154747
H5    H     H_    0.045437 0.277424 0.632404 0.127810
H6    H     H_    0.040384 0.227504 0.475846 0.123371
H7    H     H_    0.922502 0.107562 0.496858 0.154943
H8    H     H_    0.015288 0.087405 0.587830 0.088255
H9    H     H_    0.926912 0.157491 0.652660 0.162302
H10   H     H_    0.957309 0.771618 0.518261 0.122768
H11   H     H_    0.955340 0.721772 0.361844 0.121696
H12   H     H_    0.954874 0.641817 0.652722 0.102662
H13   H     H_    0.073452 0.843510 0.345643 0.163482
H14   H     H_    0.983506 0.912230 0.407539 0.086711
H15   H     H_    0.075101 0.893275 0.501319 0.156166
H16   H     H_    0.375119 0.871174 0.765446 0.123735
H17   H     H_    0.450149 0.947154 0.873358 0.123834
H18   H     H_    0.482648 0.789717 0.957873 0.177689
H19   H     H_    0.371167 0.817153 0.956927 0.094391
H20   H     H_    0.409483 0.712735 0.849574 0.177788
H21   H     H_    0.616551 0.078617 0.201972 0.123758
H22   H     H_    0.634486 0.207573 0.291877 0.140742
H23   H     H_    0.939633 0.529246 0.307248 0.098586
H24   H     H_    0.576542 0.288705 0.127113 0.164746
H25   H     H_    0.664410 0.205709 0.085764 0.097726
H26   H     H_    0.557970 0.160172 0.038017 0.134335
H27   H     H_    0.397622 0.201414 0.013224 0.156936
H28   H     H_    0.452295 0.234314 0.891825 0.110030
H29   H     H_    0.321632 0.196555 0.762379 0.154665
H30   H     H_    0.352960 0.085001 0.825930 0.078096
H31   H     H_    0.266191 0.163739 0.882250 0.164400
H32   H     H_    0.745471 0.605403 0.956268 0.132522
H33   H     H_    0.717182 0.540736 0.074509 0.123566
H34   H     H_    0.059934 0.471234 0.690614 0.108300
H35   H     H_    0.759399 0.700408 0.219150 0.149626
H36   H     H_    0.845303 0.651413 0.131169 0.090639
H37   H     H_    0.788493 0.764924 0.102016 0.161428
H38   H     H_    0.502079 0.810969 0.350596 0.138788
H39   H     H_    0.496210 0.189413 0.649874 0.126643
H40   H     H_    0.503491 0.961712 0.258884 0.119389
H41   H     H_    0.501530 0.039628 0.741658 0.093741
H42   H     H_    0.419345 0.406000 0.787801 0.170059
N1    N     N_R   0.515540 0.519350 0.790140 -0.277231
N2    N     N_R   0.484460 0.480650 0.209860 -0.276295
O1    O     O_R   0.504400 0.354460 0.582000 -0.524135
O2    O     O_3   0.061993 0.685662 0.459899 -0.542927
O3    O     O_3   0.503695 0.836334 0.748826 -0.540396
O4    O     O_3   0.508209 0.161267 0.252130 -0.555058
O5    O     O_3   0.357695 0.336760 0.956494 -0.575562
O6    O     O_3   0.640967 0.665155 0.043717 -0.581973
O7    O     O_R   0.495600 0.645540 0.418000 -0.520626
O8    O     O_R   0.493920 0.341410 0.386200 -0.455688
O9    O     O_R   0.506080 0.658590 0.613800 -0.446852
O10   O     O_R   0.384320 0.506520 0.597880 -0.504069
O11   O     O_R   0.615680 0.493480 0.402120 -0.510492
O12   O     O_R   0.373840 0.493460 0.402080 -0.496190
O13   O     O_R   0.626160 0.506540 0.597920 -0.501751
O14   O     O_3   0.937527 0.315077 0.537996 -0.546485

loop_
_geom_bond_atom_site_label_1
_geom_bond_atom_site_label_2
_ccdc_geom_bond_type
C37   H26   S    
C11   C18   S    
C16   C21   S    
Cu1   O9    S    
C4    O6    S    
C15   O2    S    
C33   H17   S    
C38   H28   S    
C2    C46   A    
C23   C42   A    
C21   H23   S    
C42   O4    S    
C39   H29   S    
C31   H10   S    
C36   C37   S    
C24   C26   S    
C32   H13   S    
C20   H34   S    
C40   O6    S    
C38   C39   S    
C29   H6    S    
C14   C24   S    
C6    N1    A    
C41   H35   S    
C30   H9    S    
C17   C20   S    
C7    C9    A    
C31   H11   S    
C19   C26   T    
C3    O5    S    
C12   O7    A    
C15   C22   S    
Cu1   Cu2   S    
C44   C46   A    
Cu1   O13   S    
C22   C25   S    
C1    C28   S    
C43   O3    S    
C40   H32   S    
C5    H4    S    
C11   O12   A    
C34   C46   A    
C6    H3    S    
C13   O11   A    
C44   H39   S    
C9    C10   A    
C27   C45   A    
Cu1   O10   S    
C18   C25   T    
C38   O5    S    
C33   O3    S    
C1    O8    A    
C36   H22   S    
C38   H27   S    
C2    C45   A    
Cu2   O8    S    
C17   C24   S    
C13   C19   S    
C12   C27   S    
C39   H30   S    
C14   C20   S    
C16   H1    S    
C32   H15   S    
C4    C6    A    
C35   H18   S    
Cu2   O11   S    
C30   H8    S    
C28   C44   A    
C39   H31   S    
C29   C30   S    
C36   O4    S    
C31   C32   S    
C35   H19   S    
Cu1   O1    S    
C8    N1    A    
C1    O1    A    
C40   C41   S    
C20   C22   S    
C23   H40   S    
C14   C16   S    
C29   O14   S    
C21   C24   S    
C8    H42   S    
C36   H21   S    
C14   O14   S    
C15   C17   S    
Cu2   O7    S    
C37   H25   S    
C16   C22   S    
Cu1   N1    S    
C40   H33   S    
C34   C43   A    
C7    H2    S    
C3    C5    A    
C31   O2    S    
C41   H37   S    
C30   H7    S    
C45   H38   S    
C34   H41   S    
C32   H14   S    
C12   O9    A    
C3    C10   A    
C41   H36   S    
C29   H5    S    
C35   H20   S    
C33   H16   S    
C7    N2    A    
C28   C42   A    
C33   C35   S    
C11   O10   A    
C5    N2    A    
C17   H12   S    
C27   C43   A    
C15   C21   S    
C8    C10   A    
Cu2   N2    S    
C37   H24   S    
C2    C23   A    
C4    C9    A    
C13   O13   A    
Cu2   O12   S    
