data_mof_unit_9707.cif
_audit_creation_date              2013-03-05T16:06:21-0500
_audit_creation_method            fapswitch 2.2
_symmetry_space_group_name_H-M    P1
_symmetry_Int_Tables_number       1
_space_group_crystal_system       triclinic
_cell_length_a                    10.848389
_cell_length_b                    9.522031
_cell_length_c                    27.875545
_cell_angle_alpha                 90.659217
_cell_angle_beta                  92.255491
_cell_angle_gamma                 89.642485
_cell_volume                      2877.03791837

loop_
_atom_site_label
_atom_site_type_symbol
_atom_site_description
_atom_site_fract_x
_atom_site_fract_y
_atom_site_fract_z
_atom_type_partial_charge
O1    O     O_R   0.319640 0.618740 0.500000 -0.574763
O2    O     O_R   0.680360 0.381260 0.500000 -0.574764
O3    O     O_R   0.680360 0.618740 0.500000 -0.572661
O4    O     O_R   0.319640 0.381260 0.500000 -0.572661
C1    C     C_R   0.262736 0.500616 0.504885 0.837510
C2    C     C_R   0.737264 0.499384 0.495115 0.837510
O5    O     O_R   0.500020 0.618770 0.430260 -0.587615
O6    O     O_R   0.499980 0.381230 0.569740 -0.587615
O7    O     O_R   0.499980 0.618770 0.569740 -0.575196
O8    O     O_R   0.500020 0.381230 0.430260 -0.575196
C3    C     C_R   0.503836 0.498869 0.407372 0.832411
C4    C     C_R   0.496164 0.501131 0.592628 0.832411
Cu1   Cu    Cu3+1 0.500000 0.640660 0.500000 0.961229
Cu2   Cu    Cu3+1 0.500000 0.359340 0.500000 0.961229
C5    C     C_R   0.392511 0.483001 0.176733 0.559896
C6    C     C_R   0.607487 0.517001 0.823267 0.559894
O9    O     O_2   0.290910 0.463708 0.202083 -0.539164
O10   O     O_2   0.709089 0.536293 0.797917 -0.539164
N1    N     N_R   0.501894 0.507178 0.201407 -0.457990
N2    N     N_R   0.498106 0.492822 0.798593 -0.457989
C7    C     C_R   0.609543 0.522491 0.178509 0.543458
C8    C     C_R   0.390457 0.477509 0.821491 0.543456
C9    C     C_R   0.540708 0.380068 0.276858 -0.014044
C10   C     C_R   0.459292 0.619932 0.723142 -0.014044
C11   C     C_R   0.547216 0.376201 0.327613 0.097346
C12   C     C_R   0.452784 0.623799 0.672387 0.097346
C13   C     C_R   0.477158 0.620428 0.329455 -0.229747
C14   C     C_R   0.522840 0.379572 0.670545 -0.229747
C15   C     C_R   0.476037 0.625744 0.279404 0.188223
C16   C     C_R   0.523961 0.374256 0.720596 0.188222
C17   C     C_R   0.505679 0.504462 0.253041 0.276825
C18   C     C_R   0.494321 0.495539 0.746959 0.276828
C19   C     C_R   0.498584 0.495059 0.101618 -0.084935
C20   C     C_R   0.501414 0.504943 0.898382 -0.084936
C21   C     C_R   0.387386 0.475167 0.125676 -0.076894
C22   C     C_R   0.612612 0.524837 0.874324 -0.076895
C23   C     C_R   0.278636 0.439078 0.098041 0.155832
C24   C     C_R   0.721362 0.560929 0.901959 0.155833
C25   C     C_R   0.610301 0.515130 0.128465 0.007374
C26   C     C_R   0.389698 0.484871 0.871534 0.007373
C27   C     C_R   0.509426 0.496862 0.354151 -0.096606
C28   C     C_R   0.490573 0.503138 0.645849 -0.096606
H1    H     H_    0.452312 0.714064 0.349272 0.182175
H2    H     H_    0.547686 0.285935 0.650728 0.182175
C29   C     C_R   0.389184 0.479259 0.972709 0.077462
C30   C     C_R   0.610814 0.520743 0.027291 0.077462
C31   C     C_R   0.610286 0.535433 0.976503 -0.015688
C32   C     C_R   0.389712 0.464570 0.023497 -0.015688
C33   C     C_R   0.500960 0.504616 0.949333 0.032200
C34   C     C_R   0.499038 0.495386 0.050667 0.032199
C35   C     C_R   0.278222 0.481291 0.944679 -0.215645
C36   C     C_R   0.721777 0.518711 0.055321 -0.215645
C37   C     C_R   0.278554 0.478804 0.895025 -0.147898
C38   C     C_R   0.721444 0.521197 0.104974 -0.147899
O11   O     O_2   0.284204 0.456131 0.795649 -0.533901
O12   O     O_2   0.715795 0.543868 0.204351 -0.533902
C39   C     C_R   0.286776 0.413366 0.048172 0.155233
C40   C     C_R   0.713221 0.586640 0.951828 0.155233
H3    H     H_    0.190814 0.474012 0.875118 0.186098
H4    H     H_    0.809185 0.525988 0.124881 0.186098
H5    H     H_    0.189440 0.487503 0.960659 0.159739
H6    H     H_    0.810558 0.512498 0.039340 0.159739
C41   C     C_R   0.063232 0.372733 0.509155 0.144549
C42   C     C_R   0.936768 0.627267 0.490845 0.144549
C43   C     C_R   0.938940 0.370426 0.493740 0.150431
C44   C     C_R   0.061060 0.629574 0.506260 0.150431
C45   C     C_R   0.872291 0.498502 0.490477 -0.144376
C46   C     C_R   0.127709 0.501498 0.509523 -0.144376
C47   C     C_R   0.423205 0.074192 0.468862 0.008516
C48   C     C_R   0.576795 0.925808 0.531138 0.008517
C49   C     C_R   0.576805 0.074984 0.531146 0.022173
C50   C     C_R   0.423195 0.925016 0.468853 0.022174
N3    N     N_R   0.500000 0.852070 0.500000 -0.201923
N4    N     N_R   0.500000 0.147930 0.500000 -0.201923
C51   C     C_1   0.341220 0.148403 0.435713 0.270938
N5    N     N_1   0.275052 0.206759 0.409006 -0.271573
C52   C     C_1   0.658781 0.851597 0.564287 0.270938
N6    N     N_1   0.724949 0.793241 0.590994 -0.271573
C53   C     C_1   0.659418 0.149770 0.564164 0.269934
N7    N     N_1   0.726589 0.208326 0.590664 -0.289214
C54   C     C_1   0.340581 0.850230 0.435835 0.269934
N8    N     N_1   0.273410 0.791674 0.409337 -0.289215
C55   C     C_3   0.442960 0.760753 0.254249 -0.773064
H7    H     H_    0.424538 0.847249 0.280129 0.225897
H8    H     H_    0.520233 0.793180 0.231953 0.243768
H9    H     H_    0.358885 0.745742 0.230809 0.248355
C56   C     C_3   0.557038 0.239247 0.745751 -0.773064
H10   H     H_    0.479764 0.206820 0.768047 0.243770
H11   H     H_    0.575459 0.152751 0.719871 0.225897
H12   H     H_    0.641112 0.254257 0.769191 0.248355
C57   C     C_3   0.154526 0.422804 0.120657 -0.731414
H13   H     H_    0.077165 0.410023 0.093842 0.203930
H14   H     H_    0.155738 0.329543 0.144214 0.262065
H15   H     H_    0.131781 0.519483 0.141197 0.255274
C58   C     C_3   0.845471 0.577207 0.879343 -0.731413
H16   H     H_    0.922832 0.589993 0.906157 0.203931
H17   H     H_    0.868220 0.480529 0.858803 0.255275
H18   H     H_    0.844256 0.670468 0.855785 0.262064
C59   C     C_3   0.401030 0.752900 0.647132 -0.785905
H19   H     H_    0.330623 0.721175 0.619250 0.221801
H20   H     H_    0.353526 0.826743 0.671342 0.226501
H21   H     H_    0.476262 0.811528 0.630768 0.244267
C60   C     C_3   0.598971 0.247101 0.352868 -0.785906
H22   H     H_    0.669378 0.278826 0.380750 0.221801
H23   H     H_    0.523739 0.188472 0.369231 0.244268
H24   H     H_    0.646476 0.173258 0.328657 0.226501
C61   C     C_1   0.432495 0.743730 0.751724 0.283502
N9    N     N_1   0.411263 0.842466 0.774631 -0.277096
C62   C     C_1   0.567507 0.256271 0.248276 0.283503
N10   N     N_1   0.588740 0.157535 0.225369 -0.277095
C63   C     C_3   0.202032 0.302690 0.025305 -0.867091
H25   H     H_    0.109855 0.347684 0.015675 0.219253
H26   H     H_    0.242039 0.253231 0.993162 0.246125
H27   H     H_    0.189768 0.215340 0.050748 0.246744
C64   C     C_3   0.797964 0.697316 0.974695 -0.867091
H28   H     H_    0.757957 0.746774 0.006839 0.246125
H29   H     H_    0.890141 0.652323 0.984325 0.219254
H30   H     H_    0.810227 0.784668 0.949253 0.246744
C65   C     C_3   0.120990 0.239510 0.529630 -0.781568
H31   H     H_    0.194997 0.263500 0.557092 0.233548
H32   H     H_    0.051809 0.178234 0.548796 0.228967
H33   H     H_    0.157394 0.172641 0.500598 0.233904
C66   C     C_3   0.879010 0.760489 0.470370 -0.781568
H34   H     H_    0.805003 0.736500 0.442908 0.233548
H35   H     H_    0.842606 0.827359 0.499401 0.233904
H36   H     H_    0.948191 0.821765 0.451204 0.228967
C67   C     C_3   0.884566 0.232147 0.475808 -0.789173
H37   H     H_    0.809197 0.248284 0.448421 0.227369
H38   H     H_    0.955060 0.168860 0.457250 0.228051
H39   H     H_    0.851640 0.170280 0.506053 0.236269
C68   C     C_3   0.115433 0.767853 0.524192 -0.789173
H40   H     H_    0.190803 0.751716 0.551579 0.227368
H41   H     H_    0.148360 0.829721 0.493947 0.236269
H42   H     H_    0.044940 0.831140 0.542750 0.228051

loop_
_geom_bond_atom_site_label_1
_geom_bond_atom_site_label_2
_geom_bond_distance
_ccdc_geom_bond_type
C44   C46   1.415881 A    
C56   H10   1.110412 S    
C41   C43   1.399211 A    
C13   C15   1.396268 A    
C58   H16   1.108002 S    
C35   H5    1.077963 S    
C68   H42   1.110765 S    
N1    C17   1.438815 S    
C67   H38   1.110765 S    
C54   N8    1.157909 T    
C37   H3    1.083697 S    
C58   H18   1.110228 S    
C66   H34   1.110239 S    
C31   C33   1.412396 A    
C38   H4    1.083697 S    
C52   N6    1.157892 T    
C5    N1    1.367358 A    
C19   C25   1.411956 A    
O1    C1    1.297519 A    
Cu2   N4    2.013054 S    
N1    C7    1.362130 A    
C10   C12   1.414703 A    
C15   C55   1.506084 S    
C29   C32   1.424014 A    
C25   C38   1.396351 A    
C29   C35   1.409235 A    
C64   H28   1.109664 S    
C30   C36   1.409232 A    
C14   C28   1.405480 A    
O7    Cu1   1.957575 S    
C4    C28   1.487099 S    
C24   C40   1.414837 A    
C59   H19   1.108821 S    
C64   H29   1.109824 S    
C24   C58   1.518508 S    
C61   N9    1.157470 T    
C3    C27   1.487102 S    
C48   C49   1.420460 A    
C63   H27   1.111264 S    
C50   C54   1.444092 S    
O3    Cu1   1.966421 S    
C6    N2    1.367362 A    
C12   C59   1.517290 S    
C50   N3    1.371215 A    
O3    C2    1.298296 A    
C32   C34   1.412397 A    
Cu1   Cu2   2.678738 S    
C48   C52   1.444557 S    
C7    O12   1.350252 S    
O2    C2    1.297517 A    
C1    C46   1.475544 S    
C5    C21   1.423243 A    
C36   C38   1.384203 A    
C65   H32   1.110550 S    
C9    C62   1.449567 S    
C23   C57   1.518508 S    
C42   C45   1.415112 A    
C32   C39   1.425772 A    
C60   H23   1.107554 S    
O8    Cu2   1.957574 S    
C11   C27   1.426103 A    
C57   H13   1.108002 S    
C11   C60   1.517289 S    
C66   H36   1.110550 S    
C43   C45   1.415881 A    
C19   C34   1.420542 A    
C14   H2    1.081750 S    
C49   C53   1.444090 S    
C35   C37   1.384203 A    
C9    C17   1.407412 A    
C47   C50   1.420460 A    
O5    C3    1.302685 A    
C51   N5    1.157894 T    
C10   C18   1.407413 A    
C57   H14   1.110225 S    
C41   C65   1.518609 S    
C13   C27   1.405479 A    
C55   H7    1.110999 S    
C7    C25   1.396303 A    
C29   C33   1.422231 A    
O6    C4    1.302685 A    
C64   H30   1.111262 S    
C8    C26   1.396293 A    
C55   H9    1.109873 S    
C48   N3    1.369972 A    
C47   N4    1.369975 A    
C63   H26   1.109663 S    
C10   C61   1.449569 S    
C2    C45   1.475544 S    
C59   H20   1.107870 S    
Cu1   N3    2.013053 S    
C56   H11   1.110999 S    
C40   C64   1.520726 S    
C20   C26   1.411956 A    
O1    Cu1   1.969011 S    
C68   H40   1.107685 S    
C43   C67   1.517505 S    
C12   C28   1.426103 A    
C44   C68   1.517504 S    
N2    C18   1.438807 S    
C65   H33   1.107470 S    
C5    O9    1.347146 S    
C30   C34   1.422228 A    
C30   C31   1.424015 A    
C20   C33   1.420543 A    
O6    Cu2   1.952805 S    
C63   H25   1.109824 S    
C21   C23   1.425066 A    
N2    C8    1.362135 A    
O4    C1    1.298296 A    
C68   H41   1.105992 S    
C49   N4    1.371212 A    
C65   H31   1.110240 S    
C58   H17   1.110111 S    
C8    O11   1.350254 S    
C42   C66   1.518608 S    
C41   C46   1.415111 A    
C22   C24   1.425068 A    
C67   H39   1.105992 S    
C15   C17   1.404132 A    
C36   H6    1.077965 S    
C62   N10   1.157472 T    
C6    C22   1.423236 A    
C31   C40   1.425773 A    
C16   C18   1.404134 A    
C39   C63   1.520727 S    
C14   C16   1.396262 A    
C19   C21   1.417839 A    
C47   C51   1.444556 S    
C60   H24   1.107871 S    
C20   C22   1.417840 A    
C9    C11   1.414706 A    
O4    Cu2   1.966421 S    
C55   H8    1.110415 S    
O2    Cu2   1.969011 S    
O7    C4    1.297164 A    
C66   H35   1.107471 S    
O8    C3    1.297164 A    
C53   N7    1.157911 T    
C13   H1    1.081748 S    
O5    Cu1   1.952805 S    
C59   H21   1.107556 S    
C6    O10   1.347146 S    
C26   C37   1.396352 A    
C56   H12   1.109872 S    
C60   H22   1.108820 S    
C16   C56   1.506086 S    
C23   C39   1.414835 A    
C67   H37   1.107684 S    
C42   C44   1.399211 A    
C57   H15   1.110111 S    
