data_mof_unit_18225.cif
_audit_creation_date              2013-03-05T15:58:18-0500
_audit_creation_method            fapswitch 2.2
_symmetry_space_group_name_H-M    P1
_symmetry_Int_Tables_number       1
_space_group_crystal_system       triclinic
_cell_length_a                    12.643993
_cell_length_b                    13.242864
_cell_length_c                    15.329588
_cell_angle_alpha                 83.774414
_cell_angle_beta                  98.72942
_cell_angle_gamma                 97.121495
_cell_volume                      2506.9871287

loop_
_atom_site_label
_atom_site_type_symbol
_atom_site_description
_atom_site_fract_x
_atom_site_fract_y
_atom_site_fract_z
_atom_type_partial_charge
O1    O     O_R   0.374950 0.371210 0.521360 -0.610788
O2    O     O_R   0.542050 0.338030 0.492790 -0.603428
C1    C     C_R   0.442898 0.309026 0.508076 0.836469
O3    O     O_R   0.368720 0.526070 0.390200 -0.624990
O4    O     O_R   0.535820 0.492890 0.361630 -0.625054
C2    C     C_R   0.436919 0.516504 0.335612 0.893889
Zn1   Zn    Zn3+2 0.388420 0.522150 0.519080 0.990922
Zn2   Zn    Zn3+2 0.611580 0.477850 0.480920 0.969874
O5    O     O_R   0.457950 0.661970 0.507210 -0.563040
O6    O     O_R   0.625050 0.628790 0.478640 -0.646304
O7    O     O_R   0.464180 0.507110 0.638370 -0.623930
O8    O     O_R   0.631280 0.473930 0.609800 -0.589809
C3    C     C_R   0.555928 0.691214 0.488762 0.910663
C4    C     C_R   0.565053 0.488266 0.664440 0.883112
C5    C     C_R   0.408032 0.548022 0.241285 -0.117593
C6    C     C_R   0.609028 0.496161 0.758308 -0.179151
C7    C     C_R   0.294752 0.634910 0.120740 0.299872
C8    C     C_R   0.313891 0.593675 0.209245 -0.187399
C9    C     C_R   0.484085 0.545100 0.185344 -0.246071
C10   C     C_R   0.469937 0.588551 0.098027 0.086743
C11   C     C_R   0.371163 0.627810 0.063272 0.031889
C12   C     C_R   0.549158 0.585067 0.042970 0.035751
C13   C     C_R   0.519718 0.595969 0.950539 0.093935
C14   C     C_R   0.421725 0.636211 0.916027 -0.214027
C15   C     C_R   0.349992 0.653994 0.971728 -0.139681
C16   C     C_R   0.656449 0.569807 0.077851 -0.291883
C17   C     C_R   0.728914 0.549036 0.023778 0.305562
C18   C     C_R   0.691215 0.535300 0.934095 -0.028025
C19   C     C_R   0.586988 0.560931 0.896843 0.060005
C20   C     C_R   0.752223 0.489864 0.882803 -0.184069
C21   C     C_R   0.711649 0.468182 0.796084 0.289847
C22   C     C_R   0.548606 0.541464 0.809252 -0.264114
H1    H     H_    0.275023 0.681927 0.941315 0.201989
H2    H     H_    0.468746 0.557508 0.780376 0.175597
H3    H     H_    0.256772 0.600357 0.253754 0.207411
H4    H     H_    0.553732 0.505394 0.210121 0.171353
H5    H     H_    0.399259 0.656405 0.846127 0.142905
H6    H     H_    0.686192 0.577594 0.147017 0.192750
H7    H     H_    0.828822 0.463982 0.911527 0.218523
C23   C     C_R   0.714731 0.928767 0.557129 -0.167637
H8    H     H_    0.753139 0.778656 0.547818 0.164889
H9    H     H_    0.719788 0.097885 0.634909 0.183352
H10   H     H_    0.791110 0.949264 0.597269 0.162460
C24   C     C_R   0.590862 0.799880 0.486023 -0.137726
C25   C     C_R   0.311272 0.187622 0.430527 -0.151138
C26   C     C_R   0.299145 0.105989 0.379286 -0.140995
C27   C     C_R   0.376949 0.038517 0.391901 -0.087699
C28   C     C_R   0.461341 0.043299 0.464123 0.090266
C29   C     C_R   0.475538 0.129031 0.513836 0.060537
C30   C     C_R   0.536110 0.969564 0.485385 -0.038842
C31   C     C_R   0.634163 0.994453 0.542008 0.108674
C32   C     C_R   0.647936 0.081069 0.588127 -0.171024
C33   C     C_R   0.566327 0.143435 0.578814 -0.155788
C34   C     C_R   0.513871 0.869194 0.458993 0.242333
C35   C     C_R   0.693578 0.831987 0.528109 -0.241499
C36   C     C_R   0.403377 0.203765 0.492895 -0.091172
H11   H     H_    0.256566 0.245111 0.412272 0.165854
H12   H     H_    0.371947 0.986643 0.341601 0.190841
H13   H     H_    0.233643 0.099510 0.325071 0.170164
H14   H     H_    0.576785 0.206021 0.620352 0.194885
C37   C     C_R   0.139254 0.651469 0.614596 -0.251063
H15   H     H_    0.311448 0.668111 0.625916 0.141891
H16   H     H_    0.941744 0.675150 0.640851 0.159219
H17   H     H_    0.137790 0.709426 0.659051 0.157375
N1    N     N_R   0.239390 0.551900 0.544730 -0.138706
C38   C     C_R   0.755956 0.389308 0.388209 0.014146
C39   C     C_R   0.848475 0.381926 0.352386 -0.178935
C40   C     C_R   0.945229 0.431759 0.389657 -0.084257
C41   C     C_R   0.950775 0.483479 0.466691 0.014009
C42   C     C_R   0.852982 0.498106 0.493976 0.243952
C43   C     C_R   0.048146 0.526458 0.514063 -0.008308
C44   C     C_R   0.044334 0.600118 0.574104 0.167671
C45   C     C_R   0.945823 0.620252 0.594211 -0.215965
C46   C     C_R   0.851578 0.567003 0.556904 -0.137590
C47   C     C_R   0.149660 0.497745 0.506844 0.070242
C48   C     C_R   0.236983 0.627782 0.596797 0.074263
N2    N     N_R   0.759950 0.448600 0.455730 -0.127978
H18   H     H_    0.679325 0.353633 0.358382 0.142501
H19   H     H_    0.013250 0.432573 0.354769 0.143851
H20   H     H_    0.844762 0.340670 0.294587 0.181232
H21   H     H_    0.778548 0.583380 0.576576 0.194027
N3    N     N_R   0.408460 0.831235 0.418128 0.188923
O9    O     O_R   0.397585 0.787088 0.344932 -0.402326
O10   O     O_R   0.325844 0.827995 0.460200 -0.385810
C49   C     C_2   0.162558 0.403046 0.470053 0.422199
H22   H     H_    0.208472 0.405888 0.415687 0.066373
O11   O     O_2   0.120325 0.321115 0.499659 -0.556633
N4    N     N_R   0.773356 0.413002 0.750001 0.215310
O12   O     O_R   0.729438 0.329250 0.716135 -0.397720
O13   O     O_R   0.877385 0.434487 0.757055 -0.374981
N5    N     N_R   0.839008 0.539646 0.061435 0.216190
O14   O     O_R   0.916799 0.581869 0.018528 -0.322659
O15   O     O_R   0.862218 0.503593 0.143632 -0.393195
N6    N     N_R   0.199855 0.686050 0.091938 0.216211
O16   O     O_R   0.112797 0.656120 0.127501 -0.298682
O17   O     O_R   0.206552 0.774039 0.045077 -0.365219

loop_
_geom_bond_atom_site_label_1
_geom_bond_atom_site_label_2
_geom_bond_distance
_ccdc_geom_bond_type
C5    C8    1.400062 A    
C26   H13   1.083009 S    
C45   C46   1.384407 A    
C9    C10   1.393035 A    
C49   H22   1.080577 S    
C6    C21   1.414515 A    
C5    C9    1.388651 A    
C25   H11   1.077943 S    
C16   C17   1.394539 A    
C30   C34   1.413837 A    
N1    C48   1.355261 A    
C13   C19   1.417576 A    
C18   C19   1.420724 A    
C19   C22   1.396837 A    
C9    H4    1.079915 S    
C20   C21   1.397179 A    
O7    C4    1.323367 A    
Zn1   N1    2.074395 S    
C41   C43   1.418306 A    
O5    C3    1.314642 A    
H8    C35   1.083401 S    
C2    C5    1.464615 S    
C47   C49   1.466094 S    
C23   H10   1.084346 S    
C25   C36   1.400237 A    
C40   C41   1.416655 A    
C42   C46   1.401234 A    
C13   C14   1.415165 A    
C17   N5    1.438710 S    
C8    H3    1.083261 S    
C40   H19   1.077923 S    
C28   C30   1.421187 A    
C38   C39   1.383677 A    
C42   N2    1.356483 A    
H15   C48   1.081861 S    
C41   C42   1.405459 A    
O3    Zn1   1.949263 S    
C33   H14   1.082414 S    
C30   C31   1.425903 A    
C49   O11   1.221260 D    
C37   C48   1.384471 A    
C38   H18   1.081636 S    
C31   C32   1.390999 A    
C14   C15   1.392420 A    
O3    C2    1.314904 A    
N5    O14   1.301138 A    
C16   H6    1.081361 S    
H16   C45   1.084257 S    
C25   C26   1.384098 A    
C7    C11   1.420283 A    
C39   C40   1.388530 A    
O1    C1    1.312495 A    
C22   H2    1.076018 S    
C37   H17   1.083805 S    
Zn1   O7    1.933363 S    
N5    O15   1.301465 A    
C1    C36   1.452347 S    
C27   C28   1.417124 A    
Zn2   O8    1.949263 S    
C23   C35   1.383696 A    
C7    C8    1.403546 A    
N4    O12   1.301023 A    
N6    O17   1.301309 A    
C37   C44   1.396859 A    
C28   C29   1.413355 A    
N4    O13   1.301334 A    
N3    O10   1.302445 A    
Zn2   N2    2.061795 S    
C4    C6    1.471749 S    
C46   H21   1.067231 S    
C29   C36   1.407516 A    
C34   N3    1.438832 S    
C32   C33   1.381397 A    
C14   H5    1.079212 S    
Zn1   O5    1.950985 S    
C38   N2    1.356846 A    
C11   C15   1.401670 A    
C26   C27   1.387903 A    
C21   N4    1.436102 S    
O1    Zn1   1.981914 S    
O2    Zn2   1.950985 S    
C39   H20   1.082483 S    
C10   C12   1.412206 A    
C44   C45   1.390770 A    
O6    C3    1.311270 A    
O4    Zn2   1.933363 S    
C6    C22   1.396361 A    
C23   C31   1.397302 A    
N1    C47   1.351812 A    
C18   C20   1.406105 A    
O2    C1    1.313159 A    
O8    C4    1.313632 A    
C43   C44   1.421575 A    
C27   H12   1.076928 S    
C43   C47   1.406259 A    
C24   C35   1.397133 A    
O4    C2    1.318773 A    
C29   C33   1.409310 A    
C20   H7    1.081444 S    
N6    O16   1.301191 A    
C24   C34   1.406607 A    
C10   C11   1.418744 A    
Zn2   O6    1.981913 S    
N3    O9    1.302007 A    
C12   C16   1.411181 A    
H9    C32   1.084419 S    
C17   C18   1.408614 A    
C12   C13   1.405691 A    
C7    N6    1.438446 S    
C3    C24   1.450061 S    
C15   H1    1.080799 S    
