data_mof_unit_67722.cif
_audit_creation_date              2012-10-26T19:56:18-0400
_audit_creation_method            fapswitch 2.2
_symmetry_space_group_name_H-M    P1
_symmetry_Int_Tables_number       1
_space_group_crystal_system       triclinic
_cell_length_a                    10.942437
_cell_length_b                    10.601543
_cell_length_c                    9.526222
_cell_angle_alpha                 89.55437
_cell_angle_beta                  90.763348
_cell_angle_gamma                 88.621599
_cell_volume                      1104.65164919

loop_
_atom_site_label
_atom_site_type_symbol
_atom_type_description
_atom_site_fract_x
_atom_site_fract_y
_atom_site_fract_z
_atom_type_partial_charge
C1    C     C_R   0.500617 0.259750 0.500588 0.570767
C2    C     C_3   0.392559 0.045810 0.449583 -0.120907
C3    C     C_3   0.499381 0.877441 0.498212 0.039898
C4    C     C_3   0.500624 0.122559 0.501788 0.039907
C5    C     C_3   0.408750 0.959601 0.580396 -0.103298
C6    C     C_3   0.591255 0.040399 0.419604 -0.103330
C7    C     C_3   0.611200 0.495685 0.053579 -0.011672
C8    C     C_3   0.388799 0.504315 0.946421 -0.011702
C9    C     C_3   0.556979 0.596243 0.950845 0.221796
C10   C     C_3   0.443020 0.403757 0.049155 0.221773
C11   C     C_3   0.552767 0.401723 0.952822 0.302673
C12   C     C_R   0.499385 0.740250 0.499412 0.570747
C13   C     C_3   0.447232 0.598276 0.047178 0.302669
C14   C     C_R   0.262721 0.505162 0.498876 0.603226
C15   C     C_R   0.737279 0.494835 0.501125 0.603190
C16   C     C_R   0.152429 0.882056 0.220957 -0.095224
C17   C     C_R   0.847581 0.117932 0.779042 -0.095257
C18   C     C_R   0.132586 0.798964 0.333372 0.194416
C19   C     C_R   0.867422 0.201029 0.666630 0.194535
C20   C     C_R   0.112060 0.670645 0.306629 0.040061
C21   C     C_R   0.887924 0.329351 0.693376 0.039906
C22   C     C_R   0.117340 0.621252 0.169919 0.074304
C23   C     C_R   0.871629 0.495564 0.502136 0.040105
C24   C     C_R   0.882635 0.378741 0.830088 0.074104
C25   C     C_R   0.134078 0.695894 0.050601 -0.013013
C26   C     C_R   0.865902 0.304093 0.949403 -0.013034
C27   C     C_R   0.149391 0.833840 0.075725 -0.016299
C28   C     C_R   0.850605 0.166146 0.924275 -0.016355
C29   C     C_R   0.927808 0.587110 0.419765 0.238446
C30   C     C_R   0.072197 0.412889 0.580258 0.238525
C31   C     C_R   0.128372 0.504427 0.497869 0.040105
C32   C     C_R   0.943153 0.409113 0.584325 0.005787
C33   C     C_R   0.056846 0.590886 0.415695 0.005754
C34   C     C_3   0.516834 0.038650 0.632813 -0.090923
C35   C     C_3   0.483170 0.961350 0.367187 -0.090936
C36   C     C_3   0.607445 0.954190 0.550417 -0.120941
Cu1   Cu    Cu3+1 0.500030 0.499990 0.643150 1.044787
Cu2   Cu    Cu3+1 0.499970 0.500010 0.356850 1.044800
H1    H     H_    0.704468 0.490131 0.100678 0.175636
H2    H     H_    0.469218 0.927291 0.258372 0.204845
H3    H     H_    0.334256 0.922411 0.645474 0.188699
H4    H     H_    0.665749 0.077589 0.354526 0.188683
H5    H     H_    0.646180 0.314653 0.814272 0.344675
H6    H     H_    0.353809 0.685339 0.185725 0.344660
H7    H     H_    0.135930 0.934217 0.470082 0.332714
H8    H     H_    0.864103 0.065777 0.529916 0.332678
H9    H     H_    0.898627 0.744125 0.310938 0.356714
H10   H     H_    0.101345 0.256083 0.689519 0.356753
H11   H     H_    0.295531 0.509868 0.899323 0.175589
H12   H     H_    0.164954 0.981637 0.238579 0.164632
H13   H     H_    0.835071 0.018349 0.761416 0.164631
H14   H     H_    0.143630 0.784088 0.028916 0.195010
H15   H     H_    0.856357 0.215898 0.971084 0.195036
H16   H     H_    0.695305 0.912574 0.590352 0.146779
H17   H     H_    0.304700 0.087426 0.409647 0.146830
H18   H     H_    0.530787 0.072709 0.741627 0.204842
I1    I     I_    0.171214 0.984972 0.909293 -0.274438
I2    I     I_    0.828795 0.015009 0.090703 -0.274396
I3    I     I_    0.625703 0.775588 0.890490 -0.199619
I4    I     I_    0.374284 0.224418 0.109512 -0.199678
I5    I     I_    0.097057 0.425281 0.138346 -0.290934
I6    I     I_    0.902916 0.574711 0.861669 -0.290953
N1    N     N_3   0.500090 0.499970 0.858290 -0.296291
N2    N     N_3   0.499910 0.500030 0.141710 -0.296294
O1    O     O_R   0.500060 0.316850 0.620870 -0.493237
O2    O     O_3   0.396717 0.710000 0.099634 -0.674751
O3    O     O_3   0.124989 0.841653 0.469664 -0.691975
O4    O     O_3   0.875036 0.158342 0.530338 -0.691859
O5    O     O_3   0.852685 0.670735 0.343600 -0.658392
O6    O     O_3   0.147340 0.329261 0.656402 -0.658441
O7    O     O_R   0.499940 0.683150 0.379130 -0.493236
O8    O     O_R   0.500000 0.316860 0.379090 -0.482199
O9    O     O_R   0.500000 0.683140 0.620910 -0.482202
O10   O     O_R   0.319670 0.500010 0.620890 -0.454031
O11   O     O_R   0.680330 0.499990 0.379110 -0.454014
O12   O     O_R   0.319620 0.500010 0.379110 -0.518554
O13   O     O_R   0.680380 0.499990 0.620890 -0.518551
O14   O     O_3   0.603278 0.289997 0.900368 -0.674747

loop_
_geom_bond_atom_site_label_1
_geom_bond_atom_site_label_2
_ccdc_geom_bond_type
C2    C35   S    
C15   O11   A    
Cu1   O10   S    
C34   H18   S    
C8    C13   S    
H6    O2    S    
C14   C31   S    
C17   H13   S    
Cu2   O12   S    
H5    O14   S    
C7    C11   S    
C23   C29   A    
C19   C21   A    
C16   H12   S    
C11   N1    S    
C2    H17   S    
C30   C31   A    
C29   C33   A    
C6    C35   S    
C18   C20   A    
C9    C13   S    
H9    O5    S    
C5    H3    S    
C3    C12   S    
Cu1   N1    S    
Cu2   O7    S    
C22   C25   A    
Cu1   O1    S    
H7    O3    S    
C1    O1    A    
C31   C33   A    
C29   O5    S    
Cu2   O11   S    
C16   C27   A    
C15   C23   S    
C12   O9    A    
C30   O6    S    
Cu2   N2    S    
C13   O2    S    
C21   C32   S    
Cu2   O8    S    
C1    O8    A    
C4    C6    S    
C27   I1    S    
H10   O6    S    
C18   O3    S    
Cu1   O13   S    
C9    I3    S    
C14   O12   A    
C2    C4    S    
H8    O4    S    
Cu1   Cu2   S    
C11   O14   S    
C3    C35   S    
C5    C34   S    
C19   O4    S    
C20   C33   S    
C16   C18   A    
C12   O7    A    
C20   C22   A    
C2    C5    S    
C26   H15   S    
C14   O10   A    
C7    C9    S    
Cu1   O9    S    
C10   I4    S    
C24   I6    S    
C9    N1    S    
C17   C28   A    
C10   N2    S    
C24   C26   A    
C3    C5    S    
C28   I2    S    
C25   C27   A    
C26   C28   A    
C1    C4    S    
C23   C32   A    
C35   H2    S    
C25   H14   S    
C22   I5    S    
C30   C32   A    
C15   O13   A    
C13   N2    S    
C3    C36   S    
C17   C19   A    
C6    C36   S    
C34   C36   S    
C4    C34   S    
C7    N2    S    
C36   H16   S    
C10   C11   S    
C8    N1    S    
C8    C10   S    
C6    H4    S    
C21   C24   A    
C7    H1    S    
C8    H11   S    
