data_mof_unit_49144.cif
_audit_creation_date              2012-12-10T18:03:34-0500
_audit_creation_method            fapswitch 2.2
_symmetry_space_group_name_H-M    P1
_symmetry_Int_Tables_number       1
_space_group_crystal_system       triclinic
_cell_length_a                    10.832788
_cell_length_b                    9.486916
_cell_length_c                    19.574248
_cell_angle_alpha                 90.046261
_cell_angle_beta                  90.27158
_cell_angle_gamma                 89.995894
_cell_volume                      2011.6173112

loop_
_atom_site_label
_atom_site_type_symbol
_atom_type_description
_atom_site_fract_x
_atom_site_fract_y
_atom_site_fract_z
_atom_type_partial_charge
C1    C     C_R   0.871823 0.500015 0.500007 -0.018558
C2    C     C_R   0.128184 0.500020 0.499977 -0.016684
C3    C     C_R   0.392749 0.507656 0.965194 -0.194581
C4    C     C_R   0.619148 0.506985 0.034739 -0.194804
C5    C     C_R   0.394829 0.508201 0.036171 -0.201453
C6    C     C_R   0.617067 0.507174 0.963692 -0.200307
C7    C     C_R   0.507998 0.508202 0.070992 0.145226
C8    C     C_R   0.503832 0.507815 0.928917 0.145376
C9    C     C_R   0.261971 0.500007 0.499973 0.808442
C10   C     C_R   0.738031 0.500002 0.500022 0.804408
C11   C     C_R   0.503191 0.499999 0.367141 0.822333
C12   C     C_R   0.495712 0.499993 0.632859 0.830571
C13   C     C_R   0.063863 0.371906 0.500003 -0.164019
C14   C     C_R   0.936144 0.628135 0.499955 -0.161747
C15   C     C_R   0.936167 0.371904 0.500042 -0.169177
C16   C     C_R   0.063845 0.628138 0.499958 -0.164518
C17   C     C_R   0.502116 0.372618 0.747379 -0.047695
C18   C     C_R   0.531104 0.629418 0.254579 -0.042845
C19   C     C_R   0.493097 0.373953 0.252310 -0.040478
C20   C     C_R   0.474624 0.629662 0.745888 -0.030708
C21   C     C_R   0.507699 0.375019 0.819479 0.078301
C22   C     C_R   0.526429 0.632915 0.182421 0.070852
C23   C     C_R   0.496049 0.375919 0.180213 0.083332
C24   C     C_R   0.484152 0.633129 0.817902 0.070102
C25   C     C_R   0.500994 0.505599 0.853991 0.008696
C26   C     C_R   0.509810 0.505791 0.145937 0.009653
C27   C     C_R   0.413145 0.074470 0.463854 0.012313
C28   C     C_R   0.586273 0.925530 0.536628 0.007133
C29   C     C_R   0.586529 0.074549 0.536433 -0.001435
C30   C     C_R   0.413505 0.925457 0.463544 0.003687
C31   C     C_R   0.489663 0.500410 0.709627 -0.249814
C32   C     C_R   0.509834 0.500750 0.290473 -0.255215
Cu1   Cu    Cu3+1 0.500000 0.640660 0.500000 0.989586
Cu2   Cu    Cu3+1 0.500000 0.359340 0.500000 0.997245
H1    H     H_    0.343301 0.130861 0.435283 0.128701
H2    H     H_    0.655055 0.869262 0.566122 0.143426
H3    H     H_    0.655683 0.130897 0.565639 0.152838
H4    H     H_    0.344482 0.869146 0.434203 0.130876
H5    H     H_    0.111928 0.271764 0.500001 0.151520
H6    H     H_    0.888073 0.728275 0.499921 0.151762
H7    H     H_    0.888119 0.271761 0.500099 0.152462
H8    H     H_    0.111902 0.728279 0.499937 0.150078
H9    H     H_    0.305037 0.507467 0.938392 0.137076
H10   H     H_    0.706812 0.506149 0.061578 0.135788
H11   H     H_    0.308734 0.507572 0.064089 0.138533
H12   H     H_    0.703099 0.505814 0.935729 0.137233
N1    N     N_R   0.500000 0.852070 0.500000 -0.172181
N2    N     N_R   0.500000 0.147930 0.500000 -0.166382
O1    O     O_R   0.319640 0.618740 0.500000 -0.590750
O2    O     O_R   0.680360 0.381260 0.500000 -0.592647
O3    O     O_R   0.680360 0.618740 0.500000 -0.588773
O4    O     O_R   0.319640 0.381260 0.500000 -0.591305
O5    O     O_R   0.500020 0.618830 0.400190 -0.561763
O6    O     O_R   0.499980 0.381170 0.599810 -0.563105
O7    O     O_R   0.499980 0.618830 0.599810 -0.562685
O8    O     O_R   0.500020 0.381170 0.400190 -0.557951
C33   C     C_2   0.504036 0.234331 0.712277 0.908102
O9    O     O_2   0.601024 0.169528 0.706650 -0.600229
O10   O     O_R   0.394906 0.181063 0.683984 -0.749750
H13   H     H_    0.408658 0.090650 0.657613 0.339804
C34   C     C_2   0.562978 0.760847 0.291754 0.891948
O11   O     O_2   0.488775 0.857694 0.294333 -0.606416
O12   O     O_R   0.677439 0.772252 0.324555 -0.754209
H14   H     H_    0.687955 0.865791 0.348996 0.344982
C35   C     C_2   0.469417 0.237440 0.286410 0.896873
O13   O     O_2   0.555546 0.168361 0.309186 -0.567931
O14   O     O_R   0.348484 0.187090 0.290657 -0.783523
H15   H     H_    0.343736 0.090401 0.312407 0.341481
C36   C     C_2   0.440773 0.760808 0.709246 0.867278
O15   O     O_2   0.513898 0.858672 0.706344 -0.599069
O16   O     O_R   0.325660 0.770131 0.676960 -0.754205
H16   H     H_    0.313639 0.862570 0.651928 0.323633
C37   C     C_3   0.515504 0.237172 0.859860 -0.402564
C38   C     C_3   0.387702 0.172940 0.870149 -0.805902
H17   H     H_    0.325548 0.249500 0.895581 0.251264
H18   H     H_    0.346493 0.141463 0.820437 0.276226
H19   H     H_    0.395239 0.077990 0.902996 0.233649
H20   H     H_    0.576099 0.159780 0.834041 0.229940
H21   H     H_    0.559315 0.251968 0.910621 0.209099
C39   C     C_3   0.538674 0.772528 0.143891 -0.383307
C40   C     C_3   0.412085 0.837476 0.129701 -0.781541
H22   H     H_    0.351874 0.762439 0.101718 0.244547
H23   H     H_    0.366356 0.867344 0.178203 0.280796
H24   H     H_    0.422676 0.933198 0.097762 0.230718
H25   H     H_    0.596397 0.849676 0.172189 0.212718
H26   H     H_    0.587912 0.758612 0.094848 0.201789
C41   C     C_3   0.489866 0.237961 0.139694 -0.398186
C42   C     C_3   0.618284 0.173765 0.131893 -0.805841
H27   H     H_    0.681986 0.250249 0.107660 0.249635
H28   H     H_    0.656226 0.142834 0.182462 0.278388
H29   H     H_    0.613113 0.078664 0.098971 0.234295
H30   H     H_    0.427865 0.160353 0.164293 0.223980
H31   H     H_    0.449105 0.252773 0.088185 0.209346
C43   C     C_3   0.475513 0.772942 0.856713 -0.383767
C44   C     C_3   0.603381 0.836180 0.868851 -0.773463
H32   H     H_    0.663550 0.761120 0.896818 0.242108
H33   H     H_    0.647607 0.863231 0.819556 0.287545
H34   H     H_    0.595109 0.933435 0.900015 0.229492
H35   H     H_    0.417116 0.850878 0.829434 0.212571
H36   H     H_    0.428780 0.759923 0.906550 0.201724

loop_
_geom_bond_atom_site_label_1
_geom_bond_atom_site_label_2
_ccdc_geom_bond_type
C27   N2    A    
Cu1   O7    S    
C41   C42   S    
C28   N1    A    
Cu2   O8    S    
C37   C38   S    
C44   H32   S    
C40   H22   S    
C44   H34   S    
C3    H9    S    
C7    C26   S    
C38   H18   S    
C28   C29   A    
C36   O15   D    
C33   O10   S    
C10   O3    A    
Cu1   O1    S    
C21   C37   S    
C30   H4    S    
C36   O16   S    
C23   C26   A    
C34   O12   S    
C2    C13   A    
C39   H26   S    
C20   C24   A    
C35   O14   S    
C38   H19   S    
C37   H20   S    
C1    C15   A    
C2    C16   A    
C11   O5    A    
O10   H13   S    
C23   C41   S    
C41   H30   S    
C27   C30   A    
C8    C25   S    
C34   O11   D    
C9    O4    A    
C4    C7    A    
C19   C32   A    
C40   H23   S    
Cu1   O5    S    
Cu2   O2    S    
C38   H17   S    
C29   N2    A    
O14   H15   S    
C30   N1    A    
C9    O1    A    
C24   C25   A    
C15   H7    S    
C4    C6    A    
C3    C8    A    
C5    C7    A    
C6    C8    A    
C4    H10   S    
C27   H1    S    
C5    H11   S    
C17   C21   A    
C19   C23   A    
C39   H25   S    
C24   C43   S    
C42   H29   S    
C43   H36   S    
Cu1   Cu2   S    
C37   H21   S    
C42   H28   S    
C11   C32   S    
Cu2   O6    S    
C13   C15   A    
C12   C31   S    
C17   C31   A    
C14   C16   A    
C20   C36   S    
Cu2   N2    S    
C10   O2    A    
C16   H8    S    
C40   H24   S    
C21   C25   A    
C6    H12   S    
C18   C22   A    
C1    C10   S    
C39   C40   S    
C3    C5    A    
C44   H33   S    
C18   C34   S    
Cu1   O3    S    
Cu2   O4    S    
C22   C39   S    
O16   H16   S    
C33   O9    D    
C43   H35   S    
Cu1   N1    S    
C41   H31   S    
C19   C35   S    
C43   C44   S    
C13   H5    S    
C12   O7    A    
C14   H6    S    
O12   H14   S    
C18   C32   A    
C42   H27   S    
C28   H2    S    
C35   O13   D    
C22   C26   A    
C29   H3    S    
C1    C14   A    
C2    C9    S    
C12   O6    A    
C11   O8    A    
C17   C33   S    
C20   C31   A    
