data_mof_unit_50372.cif
_audit_creation_date              2013-03-05T15:54:33-0500
_audit_creation_method            fapswitch 2.2
_symmetry_space_group_name_H-M    P1
_symmetry_Int_Tables_number       1
_space_group_crystal_system       triclinic
_cell_length_a                    19.32803
_cell_length_b                    18.715302
_cell_length_c                    12.454177
_cell_angle_alpha                 90.231026
_cell_angle_beta                  130.215988
_cell_angle_gamma                 89.696907
_cell_volume                      3440.07730448

loop_
_atom_site_label
_atom_site_type_symbol
_atom_site_description
_atom_site_fract_x
_atom_site_fract_y
_atom_site_fract_z
_atom_type_partial_charge
O1    O     O_R   0.608610 0.924520 0.551740 -0.535661
O2    O     O_R   0.608610 0.075480 0.551740 -0.544844
O3    O     O_R   0.108610 0.424520 0.551740 -0.538612
O4    O     O_R   0.108610 0.575480 0.551740 -0.542926
O5    O     O_R   0.564110 0.924510 0.685150 -0.605192
O6    O     O_R   0.564110 0.075490 0.685150 -0.605054
O7    O     O_R   0.064110 0.424510 0.685150 -0.600241
O8    O     O_R   0.064110 0.575490 0.685150 -0.617929
C1    C     C_R   0.611042 0.897626 0.650986 0.809831
C2    C     C_R   0.617551 0.096563 0.661115 0.801114
C3    C     C_R   0.117116 0.402846 0.660280 0.804108
C4    C     C_R   0.105414 0.605588 0.644977 0.818681
Cu1   Cu    Cu3+1 0.526340 0.000000 0.421010 0.988457
Cu2   Cu    Cu3+1 0.026340 0.500000 0.421010 0.988250
Cu3   Cu    Cu3+1 0.473640 0.000000 0.578990 0.945673
Cu4   Cu    Cu3+1 0.973640 0.500000 0.578990 0.942630
O9    O     O_R   0.435880 0.075470 0.314850 -0.595046
O10   O     O_R   0.435880 0.924530 0.314850 -0.588053
O11   O     O_R   0.935880 0.575470 0.314850 -0.594251
O12   O     O_R   0.935880 0.424530 0.314850 -0.589455
O13   O     O_R   0.391380 0.075460 0.448260 -0.580892
O14   O     O_R   0.391380 0.924540 0.448260 -0.596511
O15   O     O_R   0.891380 0.575460 0.448260 -0.589258
O16   O     O_R   0.891380 0.424540 0.448260 -0.587566
C5    C     C_R   0.384869 0.098927 0.342860 0.801942
C6    C     C_R   0.385653 0.900766 0.343790 0.799470
C7    C     C_R   0.885502 0.599432 0.343874 0.792575
C8    C     C_R   0.884870 0.401325 0.342625 0.805141
C9    C     C_R   0.669480 0.293278 0.132827 0.189067
C10   C     C_R   0.670700 0.708295 0.139562 0.205999
C11   C     C_R   0.166314 0.802221 0.144208 0.216897
C12   C     C_R   0.170291 0.209522 0.135687 0.188364
H1    H     H_    0.243058 0.870042 0.324507 0.189338
H2    H     H_    0.241569 0.145021 0.322297 0.184677
H3    H     H_    0.740418 0.357666 0.319800 0.188033
H4    H     H_    0.744071 0.645010 0.327199 0.184416
C13   C     C_R   0.313454 0.850104 0.247017 -0.090644
C14   C     C_R   0.315018 0.151886 0.246541 -0.088395
C15   C     C_R   0.814887 0.348991 0.245822 -0.085813
C16   C     C_R   0.815863 0.652714 0.248837 -0.090481
C17   C     C_R   0.783282 0.123004 0.824909 0.146697
C18   C     C_R   0.746608 0.823599 0.734397 0.189573
C19   C     C_R   0.202433 0.708775 0.679863 0.203273
C20   C     C_R   0.282257 0.374029 0.820894 0.152184
C21   C     C_R   0.262428 0.763177 0.765572 -0.093468
C22   C     C_R   0.357303 0.341139 0.941414 -0.093057
C23   C     C_R   0.858037 0.157524 0.942520 -0.084486
C24   C     C_R   0.821574 0.786259 0.844660 -0.108692
C25   C     C_R   0.277825 0.782600 0.886705 -0.179657
C26   C     C_R   0.347617 0.292758 0.014396 -0.179803
C27   C     C_R   0.847971 0.207650 0.013163 -0.188113
C28   C     C_R   0.825382 0.758631 0.951381 -0.165881
C29   C     C_R   0.761670 0.225105 0.967323 0.085524
C30   C     C_R   0.749365 0.762251 0.943997 0.085099
C31   C     C_R   0.223687 0.755400 0.915978 0.098902
C32   C     C_R   0.261410 0.275653 0.968471 0.083812
C33   C     C_R   0.684371 0.193073 0.843529 0.014780
C34   C     C_R   0.672060 0.800185 0.830612 0.010516
C35   C     C_R   0.154153 0.706829 0.819251 0.020695
C36   C     C_R   0.183978 0.307418 0.844249 0.011819
C37   C     C_R   0.232394 0.779917 0.032476 0.032576
C38   C     C_R   0.251279 0.232830 0.050693 0.031146
C39   C     C_R   0.751322 0.268410 0.049317 0.033590
C40   C     C_R   0.746999 0.728634 0.043911 0.033406
C41   C     C_R   0.668787 0.267376 0.025004 0.043252
C42   C     C_R   0.667495 0.733089 0.028889 0.039954
C43   C     C_R   0.162477 0.766640 0.039067 0.049713
C44   C     C_R   0.169119 0.235010 0.027460 0.046974
C45   C     C_R   0.590459 0.242603 0.893006 0.163328
C46   C     C_R   0.587177 0.757861 0.900394 0.153444
C47   C     C_R   0.092042 0.719956 0.938942 0.136054
C48   C     C_R   0.090602 0.260171 0.895803 0.162696
C49   C     C_R   0.598831 0.210342 0.800877 -0.191612
C50   C     C_R   0.590523 0.792918 0.805849 -0.192575
C51   C     C_R   0.086085 0.694434 0.828212 -0.195677
C52   C     C_R   0.098595 0.291228 0.802740 -0.198041
C53   C     C_R   0.309542 0.817799 0.142701 -0.230014
C54   C     C_R   0.320969 0.187690 0.155097 -0.224175
C55   C     C_R   0.821396 0.312463 0.155334 -0.234296
C56   C     C_R   0.819708 0.687235 0.154152 -0.211892
C57   C     C_R   0.242316 0.841686 0.247730 -0.187276
C58   C     C_R   0.242322 0.166551 0.242463 -0.187662
C59   C     C_R   0.741537 0.335689 0.240328 -0.188306
C60   C     C_R   0.743983 0.666835 0.246698 -0.192548
C61   C     C_R   0.694731 0.141895 0.769956 -0.125758
C62   C     C_R   0.675236 0.838380 0.735648 -0.147845
C63   C     C_R   0.153633 0.674370 0.713985 -0.161737
C64   C     C_R   0.194009 0.356899 0.768507 -0.133958
H5    H     H_    0.368174 0.822314 0.150291 0.172746
H6    H     H_    0.378708 0.177306 0.161831 0.177143
H7    H     H_    0.880201 0.321415 0.164736 0.168111
H8    H     H_    0.879135 0.677993 0.165859 0.175871
H9    H     H_    0.327287 0.823708 0.948939 0.136249
H10   H     H_    0.409157 0.274234 0.113510 0.178273
H11   H     H_    0.909574 0.226660 0.111273 0.174543
H12   H     H_    0.887904 0.732649 0.034752 0.187479
H13   H     H_    0.297801 0.791267 0.738134 0.193021
H14   H     H_    0.424705 0.356834 0.984621 0.202086
H15   H     H_    0.925657 0.141278 0.986667 0.200723
H16   H     H_    0.878064 0.779437 0.847441 0.207592
H17   H     H_    0.537243 0.196829 0.696820 0.186777
H18   H     H_    0.526825 0.808157 0.705538 0.187022
H19   H     H_    0.024049 0.667336 0.746372 0.207203
H20   H     H_    0.036794 0.304437 0.698614 0.186316
C65   C     C_R   0.682596 0.006748 0.287053 -0.243798
C66   C     C_R   0.183512 0.506054 0.288342 -0.242496
H21   H     H_    0.703892 0.013296 0.476995 0.178911
H22   H     H_    0.203033 0.518846 0.476533 0.178910
H23   H     H_    0.720797 0.009106 0.119228 0.166786
H24   H     H_    0.222410 0.507123 0.120508 0.164508
H25   H     H_    0.753974 0.013678 0.341020 0.168980
H26   H     H_    0.254598 0.514758 0.342321 0.168616
N1    N     N_R   0.566260 0.000000 0.302220 -0.183923
N2    N     N_R   0.066260 0.500000 0.302220 -0.184054
C67   C     C_R   0.344609 0.989123 0.621255 0.075273
C68   C     C_R   0.845625 0.484652 0.623433 0.066090
C69   C     C_R   0.312664 0.964984 0.686483 0.101845
C70   C     C_R   0.817159 0.454316 0.690412 0.121968
C71   C     C_R   0.372899 0.956983 0.831733 -0.232646
C72   C     C_R   0.878504 0.446642 0.835978 -0.202323
C73   C     C_R   0.463619 0.981778 0.917079 -0.004022
C74   C     C_R   0.966568 0.475950 0.918959 -0.001361
C75   C     C_R   0.494889 0.996436 0.842806 0.280539
C76   C     C_R   0.996225 0.493914 0.843290 0.293400
C77   C     C_R   0.525903 0.988868 0.070153 -0.000479
C78   C     C_R   0.028180 0.484124 0.071836 0.017146
C79   C     C_R   0.619171 0.999148 0.140786 0.125862
C80   C     C_R   0.121051 0.495777 0.142467 0.136358
C81   C     C_R   0.649255 0.003194 0.065175 -0.236711
C82   C     C_R   0.151013 0.500191 0.066438 -0.223289
C83   C     C_R   0.588414 0.002806 0.919572 -0.155659
C84   C     C_R   0.089869 0.500911 0.920282 -0.149135
C85   C     C_R   0.500647 0.991964 0.156470 0.333699
C86   C     C_R   0.001743 0.488858 0.156750 0.334659
C87   C     C_R   0.654707 0.007019 0.365347 0.110766
C88   C     C_R   0.154745 0.508193 0.365731 0.111711
N3    N     N_R   0.434410 0.000000 0.697680 -0.228122
N4    N     N_R   0.934410 0.500000 0.697680 -0.229185
H27   H     H_    0.299457 0.992088 0.507778 0.147322
H28   H     H_    0.799380 0.487445 0.509884 0.145925
H29   H     H_    0.346498 0.927445 0.870770 0.167224
H30   H     H_    0.856701 0.413699 0.879112 0.184212
H31   H     H_    0.617691 0.006004 0.870815 0.204431
H32   H     H_    0.118967 0.506221 0.871539 0.204866
C89   C     C_3   0.401143 0.989442 0.085023 -0.753992
H33   H     H_    0.379206 0.006784 0.140640 0.267260
H34   H     H_    0.361451 0.025581 0.992708 0.209352
H35   H     H_    0.378769 0.933295 0.062136 0.189402
C90   C     C_3   0.901767 0.486637 0.083080 -0.757953
H36   H     H_    0.878696 0.430558 0.062539 0.202903
H37   H     H_    0.880505 0.507668 0.137906 0.267869
H38   H     H_    0.862353 0.520424 0.987363 0.212479
I1    I     I_    0.175558 0.934888 0.564667 -0.332010
I2    I     I_    0.684867 0.412820 0.571062 -0.319757
I3    I     I_    0.454688 0.263851 0.803574 -0.312642
I4    I     I_    0.457535 0.717834 0.809940 -0.319875
I5    I     I_    0.005658 0.665622 0.960535 -0.418897
I6    I     I_    0.954785 0.240906 0.807808 -0.322033
I7    I     I_    0.587928 0.250757 0.175371 -0.364187
I8    I     I_    0.581087 0.742454 0.174149 -0.306345
I9    I     I_    0.057796 0.824026 0.143331 -0.303846
I10   I     I_    0.088876 0.252658 0.179004 -0.387038
I11   I     I_    0.817378 0.031152 0.768326 -0.321846
I12   I     I_    0.749309 0.846604 0.569578 -0.286944
I13   I     I_    0.184619 0.691637 0.494043 -0.263673
I14   I     I_    0.314826 0.459952 0.750578 -0.302500

loop_
_geom_bond_atom_site_label_1
_geom_bond_atom_site_label_2
_geom_bond_distance
_ccdc_geom_bond_type
C84   H32   1.066143 S    
C39   C41   1.418933 A    
C2    C61   1.474934 S    
C74   C78   1.462281 A    
C31   C35   1.413191 A    
C73   C77   1.461935 A    
C16   C60   1.396092 A    
O10   C6    1.314470 A    
C48   C52   1.393799 A    
C70   C72   1.391981 A    
C11   I9    2.127759 S    
C89   H33   1.068109 S    
C36   C64   1.424811 A    
C28   H12   1.073509 S    
C48   I6    2.124586 S    
C9    I7    2.119849 S    
C39   C55   1.396856 A    
C54   H6    1.080353 S    
O7    C3    1.309308 A    
C53   H5    1.078390 S    
C45   I3    2.122077 S    
O13   C5    1.312472 A    
Cu1   O10   1.956003 S    
C46   I4    2.115844 S    
C76   N4    1.389742 A    
C9    C59   1.399064 A    
C24   C28   1.384976 A    
C90   H37   1.071688 S    
C1    C62   1.478559 S    
C18   I12   2.132463 S    
C10   C60   1.394582 A    
C66   C80   1.400862 A    
C23   H15   1.082632 S    
C76   C84   1.404592 A    
C81   C83   1.384736 A    
C33   C49   1.407733 A    
C12   C58   1.399795 A    
O2    Cu1   1.958788 S    
H21   C87   1.069515 S    
O6    Cu3   1.956362 S    
Cu3   O14   1.958466 S    
C67   N3    1.352325 A    
C28   C30   1.412903 A    
C67   C69   1.377994 A    
C12   I10   2.120891 S    
C46   C50   1.387852 A    
C16   C56   1.390444 A    
C45   C49   1.392981 A    
C18   C62   1.415421 A    
O15   C7    1.310621 A    
O4    C4    1.325389 A    
O11   C7    1.314711 A    
C7    C16   1.464600 S    
C55   H7    1.078719 S    
C44   C48   1.413757 A    
C65   C87   1.385646 A    
C32   C38   1.412953 A    
C11   C43   1.425354 A    
C19   I13   2.131515 S    
C22   H14   1.081899 S    
O8    Cu4   1.956362 S    
N1    C85   1.397493 A    
C14   C58   1.398569 A    
C51   H19   1.076034 S    
C40   C56   1.402048 A    
C13   C57   1.390495 A    
C24   H16   1.076722 S    
C34   C62   1.419344 A    
C89   H34   1.108882 S    
C72   C74   1.414144 A    
C68   N4    1.355116 A    
C71   C73   1.420408 A    
C17   I11   2.112807 S    
C10   I8    2.131609 S    
C47   I5    2.119904 S    
O5    Cu3   1.950694 S    
C65   C79   1.399082 A    
Cu2   O12   1.956003 S    
C17   C23   1.385574 A    
O1    C1    1.308836 A    
C90   H38   1.108832 S    
C37   C53   1.403772 A    
H3    C59   1.083291 S    
C26   H10   1.077858 S    
C66   H26   1.083941 S    
C14   C54   1.391184 A    
C8    C15   1.463244 S    
Cu2   N2    2.063517 S    
C86   C90   1.512802 S    
C13   C53   1.387944 A    
C36   C52   1.408845 A    
C26   C32   1.406916 A    
C32   C36   1.412364 A    
C80   C82   1.395699 A    
C27   C29   1.407475 A    
C15   C55   1.388941 A    
C56   H8    1.073455 S    
C82   C84   1.390068 A    
C52   H20   1.081097 S    
C79   C81   1.392374 A    
O5    C1    1.322453 A    
C5    C14   1.465660 S    
C37   C43   1.428859 A    
C21   C25   1.383315 A    
C3    C64   1.474457 S    
O8    C4    1.314448 A    
N2    C86   1.401107 A    
C72   H30   1.069597 S    
C18   C24   1.378837 A    
C19   C21   1.387805 A    
C10   C42   1.419001 A    
O3    Cu2   1.956124 S    
N1    C87   1.350465 A    
C9    C41   1.417741 A    
O7    Cu4   1.950694 S    
C67   H27   1.081399 S    
Cu4   O15   1.955801 S    
C17   C61   1.416194 A    
Cu1   Cu3   2.737987 S    
H23   C81   1.084630 S    
C71   H29   1.061994 S    
Cu2   Cu4   2.737987 S    
O1    Cu1   1.956124 S    
C74   C76   1.425442 A    
O2    C2    1.316615 A    
C35   C51   1.410745 A    
Cu3   N3    2.051174 S    
C89   H35   1.102579 S    
C83   H31   1.066248 S    
C34   C50   1.404110 A    
C30   C34   1.415204 A    
C77   C85   1.440179 A    
C75   N3    1.381845 A    
C78   C80   1.416702 A    
C4    C63   1.494563 S    
C75   C83   1.401975 A    
Cu2   O11   1.950335 S    
C38   C54   1.397814 A    
Cu4   N4    2.051174 S    
O16   C8    1.310575 A    
C29   C33   1.412810 A    
O6    C2    1.310178 A    
C23   C27   1.380003 A    
C6    C13   1.460079 S    
H22   C88   1.073170 S    
Cu1   O9    1.950335 S    
O12   C8    1.313945 A    
C22   C26   1.381757 A    
H24   C82   1.084339 S    
C11   C57   1.386996 A    
C12   C44   1.417920 A    
C50   H18   1.082034 S    
O9    C5    1.313317 A    
C69   C71   1.389584 A    
C69   I1    2.111542 S    
C19   C63   1.418122 A    
O4    Cu2   1.958788 S    
C25   C31   1.409511 A    
C90   H36   1.105114 S    
C47   C51   1.390472 A    
C29   C39   1.412455 A    
C42   C46   1.405743 A    
C30   C40   1.423526 A    
H4    C60   1.083087 S    
C41   C45   1.413090 A    
C31   C37   1.422694 A    
C49   H17   1.081145 S    
C68   C70   1.385877 A    
C70   I2    2.110500 S    
C43   C47   1.408284 A    
C38   C44   1.418857 A    
C65   H25   1.084271 S    
C35   C63   1.436834 A    
C73   C75   1.421943 A    
O3    C3    1.317417 A    
C20   I14   2.117301 S    
C15   C59   1.398172 A    
Cu3   O13   1.955801 S    
C85   C89   1.511142 S    
C78   C86   1.443558 A    
Cu4   O16   1.958466 S    
O14   C6    1.308783 A    
C27   H11   1.076815 S    
C77   C79   1.419513 A    
N2    C88   1.352411 A    
C21   H13   1.080525 S    
H2    C58   1.083108 S    
C25   H9    1.073649 S    
C20   C64   1.415905 A    
H1    C57   1.083718 S    
C33   C61   1.422986 A    
C20   C22   1.386473 A    
Cu1   N1    2.063517 S    
C40   C42   1.425064 A    
C66   C88   1.389656 A    
C68   H28   1.081365 S    
