data_mof_unit_27404.cif
_audit_creation_date              2013-03-05T15:55:01-0500
_audit_creation_method            fapswitch 2.2
_symmetry_space_group_name_H-M    P1
_symmetry_Int_Tables_number       1
_space_group_crystal_system       triclinic
_cell_length_a                    23.41925
_cell_length_b                    10.628853
_cell_length_c                    9.917989
_cell_angle_alpha                 89.838243
_cell_angle_beta                  89.994338
_cell_angle_gamma                 91.867921
_cell_volume                      2467.46176257

loop_
_atom_site_label
_atom_site_type_symbol
_atom_site_description
_atom_site_fract_x
_atom_site_fract_y
_atom_site_fract_z
_atom_type_partial_charge
O1    O     O_R   0.500000 0.316780 0.614690 -0.630082
O2    O     O_R   0.500000 0.316750 0.385360 -0.630157
C1    C     C_R   0.499861 0.260635 0.500369 0.951014
O3    O     O_R   0.416160 0.499970 0.614690 -0.639050
O4    O     O_R   0.416150 0.499950 0.385360 -0.641611
C2    C     C_R   0.389402 0.499871 0.500020 0.927306
Zn1   Zn    Zn3+2 0.500000 0.500020 0.653130 0.949689
Zn2   Zn    Zn3+2 0.500000 0.499980 0.346870 0.955762
O5    O     O_R   0.500000 0.683250 0.614640 -0.611769
O6    O     O_R   0.500000 0.683220 0.385310 -0.610203
O7    O     O_R   0.583850 0.500050 0.614640 -0.632560
O8    O     O_R   0.583840 0.500030 0.385310 -0.619347
C3    C     C_R   0.501246 0.739196 0.499735 0.891836
C4    C     C_R   0.610600 0.500318 0.499968 0.830234
C5    C     C_R   0.882293 0.602141 0.474624 0.502618
N1    N     N_R   0.852181 0.492374 0.500358 -0.359372
C6    C     C_R   0.878490 0.381936 0.526178 0.503998
C7    C     C_R   0.938071 0.378856 0.526767 -0.014264
C8    C     C_R   0.969914 0.490953 0.500147 -0.021358
C9    C     C_R   0.941921 0.603771 0.473758 -0.014641
C10   C     C_R   0.966379 0.266957 0.552890 -0.156909
C11   C     C_R   0.025822 0.266283 0.552746 -0.155272
C12   C     C_R   0.057920 0.377488 0.526427 -0.019321
C13   C     C_R   0.029892 0.490259 0.499925 -0.020530
C14   C     C_R   0.061702 0.602376 0.473229 -0.017029
C15   C     C_R   0.033415 0.714290 0.447191 -0.152829
C16   C     C_R   0.974002 0.714990 0.447486 -0.159168
C17   C     C_R   0.117588 0.379259 0.525634 0.509571
N2    N     N_R   0.147612 0.489026 0.499480 -0.362397
C18   C     C_R   0.121247 0.599368 0.473630 0.505382
O9    O     O_2   0.854454 0.709195 0.450784 -0.554932
O10   O     O_2   0.846959 0.275676 0.550311 -0.559002
H1    H     H_    0.942746 0.179719 0.573493 0.194351
H2    H     H_    0.046482 0.178551 0.573249 0.194908
O11   O     O_2   0.145528 0.272467 0.550042 -0.529700
O12   O     O_2   0.152722 0.705663 0.449217 -0.534795
H3    H     H_    0.057038 0.801536 0.426564 0.197645
H4    H     H_    0.953353 0.802753 0.427068 0.193565
C19   C     C_R   0.237715 0.484332 0.621853 -0.093429
H5    H     H_    0.214534 0.478975 0.716288 0.141966
C20   C     C_R   0.297008 0.488079 0.622271 -0.185403
H6    H     H_    0.319139 0.484656 0.718037 0.163949
C21   C     C_R   0.327108 0.496282 0.499920 -0.010842
C22   C     C_R   0.297191 0.499524 0.377324 -0.185867
H7    H     H_    0.319454 0.505191 0.281662 0.164448
C23   C     C_R   0.237912 0.496034 0.377349 -0.085701
H8    H     H_    0.214878 0.499408 0.282798 0.141756
C24   C     C_R   0.208305 0.488844 0.499521 0.313478
C25   C     C_R   0.761726 0.484096 0.622072 -0.111333
H9    H     H_    0.784591 0.475465 0.716377 0.141660
C26   C     C_R   0.702522 0.486748 0.622215 -0.242485
H10   H     H_    0.680135 0.479353 0.717605 0.166500
C27   C     C_R   0.672821 0.498431 0.500066 -0.041756
C28   C     C_R   0.703040 0.507291 0.377972 -0.209350
H11   H     H_    0.681068 0.516414 0.282529 0.162773
C29   C     C_R   0.762245 0.504814 0.378244 -0.103274
H12   H     H_    0.785513 0.511880 0.284017 0.140118
C30   C     C_R   0.791479 0.493292 0.500196 0.323058
C31   C     C_R   0.603121 0.139935 0.572981 -0.151222
H13   H     H_    0.604588 0.241581 0.573974 0.138076
C32   C     C_R   0.652949 0.078954 0.607238 -0.115897
H14   H     H_    0.691137 0.133468 0.633828 0.164480
C33   C     C_R   0.653652 0.948080 0.606823 -0.119519
H15   H     H_    0.692383 0.900804 0.633047 0.158780
C34   C     C_R   0.604560 0.877897 0.571867 -0.172285
H16   H     H_    0.606918 0.776408 0.571365 0.131077
C35   C     C_R   0.553701 0.938551 0.537094 0.097434
C36   C     C_R   0.552763 0.070160 0.537847 0.056434
C37   C     C_R   0.501410 0.128078 0.502029 -0.230124
C38   C     C_R   0.451691 0.058713 0.465148 0.293971
H17   H     H_    0.416133 0.873617 0.434601 0.187826
C39   C     C_R   0.453961 0.929675 0.461589 -0.249373
C40   C     C_R   0.503664 0.871420 0.499061 -0.157625
H18   H     H_    0.565048 0.639893 0.124739 0.147001
C41   C     C_R   0.424081 0.336624 0.140228 -0.145163
H19   H     H_    0.421872 0.330188 0.247153 0.230258
C42   C     C_R   0.386263 0.257285 0.069994 -0.161635
H20   H     H_    0.356646 0.195421 0.124136 0.214979
C43   C     C_R   0.386512 0.256890 0.930469 -0.191574
H21   H     H_    0.357266 0.194462 0.876106 0.188158
C44   C     C_R   0.424392 0.336274 0.860248 -0.147981
H22   H     H_    0.422398 0.329700 0.753374 0.231482
C45   C     C_R   0.462696 0.419373 0.927874 0.158499
C46   C     C_R   0.462638 0.419476 0.072438 0.152749
N3    N     N_R   0.499460 0.498800 0.142780 -0.122787
C47   C     C_R   0.535795 0.576973 0.071244 -0.104025
H23   H     H_    0.564993 0.639921 0.874191 0.146454
C48   C     C_R   0.535769 0.576969 0.928152 -0.105593
N4    N     N_R   0.499440 0.498720 0.857170 -0.123161
N5    N     N_R   0.398450 0.117174 0.435631 0.191930
O13   O     O_R   0.381801 0.211238 0.507641 -0.445850
O14   O     O_R   0.362158 0.063303 0.352954 -0.397623

loop_
_geom_bond_atom_site_label_1
_geom_bond_atom_site_label_2
_geom_bond_distance
_ccdc_geom_bond_type
H23   C48   1.081934 S    
C33   C34   1.394303 A    
C7    C10   1.403881 A    
C20   H6    1.083145 S    
C8    C9    1.409141 A    
C21   C22   1.404287 A    
C44   H22   1.063406 S    
C19   C20   1.387887 A    
C27   C28   1.403896 A    
Zn1   O7    2.000418 S    
C15   C16   1.391663 A    
C17   N2    1.366603 A    
C1    C37   1.410632 S    
Zn2   N3    2.024275 S    
N3    C47   1.366860 A    
O4    C2    1.298246 A    
O7    C4    1.298338 A    
C47   C48   1.419182 A    
C41   C46   1.409833 A    
C10   H1    1.083190 S    
C16   H4    1.083229 S    
C5    N1    1.366853 A    
Zn1   N4    2.023713 S    
C29   H12   1.082954 S    
C7    C8    1.409128 A    
C32   C33   1.391696 A    
O5    C3    1.283834 A    
C23   H8    1.082981 S    
C17   O11   1.349833 S    
N1    C6    1.366949 A    
C25   C26   1.387707 A    
C12   C13   1.409328 A    
C35   C40   1.404170 A    
C32   H14   1.082702 S    
C31   H13   1.079883 S    
C10   C11   1.392365 A    
C20   C21   1.404360 A    
C38   N5    1.440850 S    
O3    Zn1   2.000161 S    
C45   N4    1.375762 A    
C44   C45   1.409432 A    
C22   C23   1.387549 A    
C23   C24   1.396677 A    
C42   C43   1.383845 A    
C5    C9    1.396023 A    
C11   H2    1.083216 S    
C28   C29   1.387640 A    
C31   C32   1.394787 A    
N2    C24   1.421447 S    
C35   C36   1.399780 A    
C13   C14   1.409058 A    
O3    C2    1.298556 A    
C19   H5    1.082941 S    
C43   C44   1.389861 A    
C36   C37   1.413725 A    
C34   C35   1.414975 A    
C14   C15   1.403630 A    
C42   H20   1.081664 S    
H18   C47   1.081803 S    
C25   C30   1.396758 A    
C26   H10   1.083017 S    
O1    C1    1.282729 A    
C41   H19   1.063641 S    
N2    C18   1.366748 A    
C31   C36   1.416622 A    
N5    O14   1.301421 A    
C45   C46   1.433783 A    
Zn2   O8    2.000159 S    
C6    C7    1.396821 A    
N1    C30   1.421946 S    
C12   C17   1.396914 A    
C46   N3    1.377405 A    
C41   C42   1.391217 A    
O8    C4    1.298450 A    
C34   H16   1.081937 S    
C2    C21   1.458132 S    
C22   H7    1.083133 S    
C14   C18   1.395917 A    
Zn1   O5    1.983529 S    
C28   H11   1.083083 S    
O1    Zn1   1.985650 S    
O2    Zn2   1.983528 S    
C3    C40   1.404683 S    
C39   C40   1.386423 A    
O6    C3    1.282744 A    
O4    Zn2   2.000420 S    
C15   H3    1.083202 S    
C5    O9    1.350018 S    
C9    C16   1.403603 A    
C18   O12   1.350009 S    
O2    C1    1.285644 A    
H17   C39   1.085377 S    
N5    O13   1.300411 A    
C33   H15   1.082551 S    
C29   C30   1.396945 A    
C8    C13   1.404901 A    
C37   C38   1.406701 A    
C43   H21   1.082844 S    
C4    C27   1.457954 S    
C48   N4    1.366924 A    
Zn2   O6    1.985652 S    
C25   H9    1.082958 S    
C6    O10   1.349904 S    
C11   C12   1.403786 A    
C38   C39   1.374832 A    
C26   C27   1.404229 A    
C19   C24   1.396697 A    
