data_mof_unit_52950.cif
_audit_creation_date              2012-12-11T15:52:35-0500
_audit_creation_method            fapswitch 2.2
_symmetry_space_group_name_H-M    P1
_symmetry_Int_Tables_number       1
_space_group_crystal_system       triclinic
_cell_length_a                    6.926316
_cell_length_b                    14.559748
_cell_length_c                    16.011097
_cell_angle_alpha                 90.267521
_cell_angle_beta                  90.014168
_cell_angle_gamma                 90.002941
_cell_volume                      1614.62807827

loop_
_atom_site_label
_atom_site_type_symbol
_atom_type_description
_atom_site_fract_x
_atom_site_fract_y
_atom_site_fract_z
_atom_type_partial_charge
O1    O     O_R   0.494400 0.415640 0.412830 -0.542509
O2    O     O_R   0.823920 0.405510 0.586560 -0.545022
O3    O     O_R   0.994250 0.584360 0.587170 -0.540380
C1    C     C_R   0.654875 0.383184 0.615378 0.682151
O4    O     O_R   0.824110 0.404610 0.413450 -0.544585
O5    O     O_R   0.994440 0.583460 0.412820 -0.538440
C2    C     C_R   0.655030 0.382175 0.384340 0.684737
O6    O     O_R   0.494210 0.416540 0.587180 -0.542910
O7    O     O_3   0.660810 0.558680 0.500000 -0.363224
V1    V     V_3+5 0.935650 0.489110 0.500000 1.412079
O8    O     O_R   0.324150 0.594490 0.413440 -0.540212
C3    C     C_R   0.155065 0.616748 0.384429 0.716170
O9    O     O_R   0.323970 0.595390 0.586550 -0.539169
C4    C     C_R   0.155147 0.617735 0.615505 0.699102
V2    V     V_3+5 0.435660 0.510890 0.500000 1.419635
O10   O     O_3   0.160630 0.441320 0.500000 -0.372247
C5    C     C_3   0.049294 0.645462 0.764178 -0.373076
H1    H     H_    0.902006 0.619997 0.748666 0.137630
H2    H     H_    0.135064 0.585177 0.785130 0.135478
C6    C     C_3   0.035110 0.716681 0.836551 -0.327853
H3    H     H_    0.112393 0.690053 0.892355 0.129927
H4    H     H_    0.880977 0.725890 0.854349 0.141151
H5    H     H_    0.870352 0.749742 0.646658 0.120956
H6    H     H_    0.858078 0.858374 0.748927 0.129762
C7    C     C_3   0.020156 0.773334 0.659999 0.028092
C8    C     C_3   0.348974 0.722422 0.711772 -0.306799
C9    C     C_3   0.144503 0.688533 0.685581 0.070974
H7    H     H_    0.424839 0.753787 0.657763 0.176200
H8    H     H_    0.438225 0.663105 0.732396 0.128608
C10   C     C_3   0.122942 0.810255 0.810326 0.081890
C11   C     C_3   0.011694 0.845075 0.732420 -0.332518
C12   C     C_3   0.336354 0.793196 0.783678 -0.307199
H9    H     H_    0.421409 0.767690 0.837832 0.138295
H10   H     H_    0.403602 0.858801 0.763215 0.149038
H11   H     H_    0.074189 0.911680 0.712170 0.161835
C13   C     C_R   0.953173 0.774107 0.216193 -0.150247
H12   H     H_    0.812321 0.792385 0.192098 0.115615
C14   C     C_R   0.964196 0.710983 0.281801 -0.131373
H13   H     H_    0.831300 0.682441 0.306042 0.118785
C15   C     C_R   0.143901 0.684922 0.315402 -0.036524
C16   C     C_R   0.312234 0.724002 0.281650 -0.135479
H14   H     H_    0.453072 0.705764 0.305785 0.119515
C17   C     C_R   0.301215 0.787131 0.216044 -0.145514
H15   H     H_    0.434110 0.815719 0.191847 0.119320
C18   C     C_R   0.121538 0.813000 0.182277 -0.050687
C19   C     C_R   0.812274 0.274198 0.716187 -0.152808
H16   H     H_    0.953056 0.292749 0.692209 0.117223
C20   C     C_R   0.801323 0.209485 0.780369 -0.149057
H17   H     H_    0.934189 0.180081 0.803809 0.118833
C21   C     C_R   0.621656 0.183131 0.813691 -0.046415
C22   C     C_R   0.453227 0.223155 0.780988 -0.154009
H18   H     H_    0.312443 0.204596 0.804961 0.116329
C23   C     C_R   0.464176 0.287861 0.716802 -0.150265
H19   H     H_    0.331306 0.317248 0.693349 0.117101
C24   C     C_R   0.643848 0.314248 0.683506 -0.045244
C25   C     C_R   0.812209 0.274159 0.281307 -0.150867
H20   H     H_    0.953085 0.292729 0.305363 0.117109
C26   C     C_R   0.801151 0.210288 0.215765 -0.145251
H21   H     H_    0.934056 0.181483 0.191543 0.119926
C27   C     C_R   0.621424 0.183920 0.182131 -0.048054
C28   C     C_R   0.453063 0.223215 0.215993 -0.151122
H22   H     H_    0.312192 0.204639 0.191937 0.116693
C29   C     C_R   0.464122 0.287090 0.281538 -0.147141
H23   H     H_    0.331223 0.315894 0.305768 0.117555
C30   C     C_R   0.643856 0.313472 0.315158 -0.046330
O11   O     O_R   0.771300 0.080930 0.910090 -0.540701
O12   O     O_R   0.441270 0.092800 0.083770 -0.542667
O13   O     O_R   0.271080 0.913920 0.084380 -0.539874
C31   C     C_R   0.610312 0.115248 0.112922 0.692180
O14   O     O_R   0.441580 0.091910 0.910670 -0.543851
O15   O     O_R   0.271390 0.913020 0.910040 -0.541355
C32   C     C_R   0.610629 0.114235 0.881851 0.686325
O16   O     O_R   0.770990 0.081830 0.084440 -0.539666
O17   O     O_3   0.604750 0.938760 0.997250 -0.370620
V3    V     V_3+5 0.329850 0.008280 0.997210 1.395931
O18   O     O_R   0.941680 0.901940 0.910610 -0.543795
C33   C     C_R   0.110918 0.879832 0.881436 0.663771
O19   O     O_R   0.941370 0.902830 0.083720 -0.543075
C34   C     C_R   0.110428 0.880793 0.112916 0.690012
V4    V     V_3+5 0.829860 0.986420 0.997150 1.394165
O20   O     O_3   0.104830 0.056030 0.997180 -0.368484
I1    I     I_    0.116441 0.836624 0.545569 -0.453479

loop_
_geom_bond_atom_site_label_1
_geom_bond_atom_site_label_2
_ccdc_geom_bond_type
C7    C11   S    
C10   C12   S    
C29   C30   A    
C8    C12   S    
C16   H14   S    
C1    O6    A    
C6    C10   S    
C23   H19   S    
O13   V3    S    
C8    C9    S    
C13   H12   S    
C14   C15   A    
O5    C3    A    
C14   H13   S    
O19   V4    S    
C26   C27   A    
C25   C30   A    
C5    C6    S    
C25   H20   S    
C28   C29   A    
C21   C32   S    
C10   C33   S    
O8    V2    S    
O11   C32   A    
C19   C24   A    
C31   O16   A    
O1    V2    S    
C4    C9    S    
O7    V1    S    
O13   C34   A    
C20   C21   A    
O17   V4    S    
O9    C4    A    
C16   C17   A    
C21   C22   A    
C23   C24   A    
C19   C20   A    
O17   V3    S    
C22   H18   S    
C5    C9    S    
O18   C33   A    
O4    C2    A    
O19   C34   A    
V3    O20   S    
C26   H21   S    
C27   C28   A    
O12   C31   A    
C12   H10   S    
C3    C15   S    
O2    C1    A    
C17   H15   S    
C2    C30   S    
C5    H1    S    
C13   C18   A    
C18   C34   S    
C17   C18   A    
O3    C4    A    
C20   H17   S    
C6    H4    S    
O6    V2    S    
O9    V2    S    
C1    C24   S    
C7    I1    S    
C11   H11   S    
O12   V3    S    
O2    V1    S    
O15   C33   A    
C19   H16   S    
C15   C16   A    
O1    C2    A    
O18   V4    S    
V4    O20   S    
O5    V1    S    
O8    C3    A    
C7    C9    S    
O11   V4    S    
C8    H7    S    
C12   H9    S    
C13   C14   A    
O7    V2    S    
H6    C11   S    
O4    V1    S    
O3    V1    S    
V1    O10   S    
O15   V3    S    
C10   C11   S    
C27   C31   S    
C5    H2    S    
O16   V4    S    
C25   C26   A    
H5    C7    S    
C28   H22   S    
C29   H23   S    
C6    H3    S    
C8    H8    S    
O14   V3    S    
O14   C32   A    
C22   C23   A    
V2    O10   S    
