data_mof_unit_7371.cif
_audit_creation_date              2012-12-10T20:04:45-0500
_audit_creation_method            fapswitch 2.2
_symmetry_space_group_name_H-M    P1
_symmetry_Int_Tables_number       1
_space_group_crystal_system       triclinic
_cell_length_a                    10.783653
_cell_length_b                    19.080745
_cell_length_c                    18.498442
_cell_angle_alpha                 91.681852
_cell_angle_beta                  104.671849
_cell_angle_gamma                 91.129775
_cell_volume                      3679.09179937

loop_
_atom_site_label
_atom_site_type_symbol
_atom_type_description
_atom_site_fract_x
_atom_site_fract_y
_atom_site_fract_z
_atom_type_partial_charge
C1    C     C_R   0.498386 0.365480 0.499035 0.868152
C2    C     C_R   0.406876 0.926010 0.491311 -0.139695
C3    C     C_R   0.575296 0.545113 0.743965 0.535606
C4    C     C_R   0.456992 0.444354 0.259815 0.545549
C5    C     C_R   0.573389 0.539373 0.819241 -0.174916
C6    C     C_R   0.468429 0.447495 0.185969 -0.196291
C7    C     C_R   0.489172 0.492733 0.840176 0.222743
C8    C     C_R   0.506227 0.509330 0.158830 0.207813
C9    C     C_R   0.409145 0.449438 0.784053 -0.102502
C10   C     C_R   0.540707 0.567273 0.208963 -0.094892
C11   C     C_R   0.418393 0.452786 0.709385 -0.087921
C12   C     C_R   0.497666 0.634540 0.500541 0.883251
C13   C     C_R   0.541613 0.560618 0.285000 -0.082868
C14   C     C_R   0.390619 0.531318 0.945831 0.305391
C15   C     C_R   0.605395 0.481215 0.052070 0.290253
C16   C     C_R   0.258574 0.502135 0.468810 0.945369
C17   C     C_R   0.741645 0.502204 0.531338 0.954340
C18   C     C_R   0.391701 0.532433 0.023540 0.283907
C19   C     C_R   0.588467 0.464494 0.974425 0.275672
C20   C     C_R   0.503422 0.511176 0.077149 -0.257141
C21   C     C_R   0.485396 0.493372 0.920974 -0.252018
C22   C     C_2   0.121968 0.510835 0.451230 -0.326732
C23   C     C_R   0.477087 0.709232 0.499258 -0.036938
C24   C     C_2   0.879161 0.510991 0.549552 -0.307040
C25   C     C_2   0.069479 0.526090 0.507508 -0.159935
C26   C     C_2   0.933201 0.526044 0.494368 -0.149692
C27   C     C_R   0.527353 0.750765 0.451804 -0.183926
C28   C     C_R   0.549581 0.246602 0.460978 -0.103645
C29   C     C_R   0.501569 0.821675 0.447927 -0.052918
C30   C     C_R   0.527346 0.174515 0.458457 -0.060984
C31   C     C_R   0.423158 0.850710 0.490142 0.178420
C32   C     C_R   0.434010 0.146717 0.490967 0.161080
C33   C     C_R   0.372049 0.809194 0.537124 -0.120112
C34   C     C_R   0.477430 0.290392 0.495319 -0.041222
C35   C     C_R   0.360425 0.190509 0.524105 -0.059797
C36   C     C_R   0.398527 0.738410 0.541428 -0.158870
C37   C     C_R   0.382743 0.262371 0.526733 -0.192935
C38   C     C_R   0.465933 0.963364 0.557706 -0.301030
C39   C     C_R   0.354186 0.034331 0.428445 -0.288189
C40   C     C_R   0.473174 0.036194 0.559776 0.486924
C41   C     C_R   0.346298 0.961382 0.426569 0.477064
C42   C     C_R   0.418800 0.071411 0.493883 -0.144807
H1    H     H_    0.341753 0.412723 0.798046 0.186542
H2    H     H_    0.440046 0.402745 0.147461 0.205238
H3    H     H_    0.358013 0.418189 0.666942 0.160993
H4    H     H_    0.574253 0.604986 0.323138 0.164833
H5    H     H_    0.256719 0.619618 0.769796 0.388904
H6    H     H_    0.854402 0.507688 0.228382 0.385685
H7    H     H_    0.048988 0.561986 0.006784 0.414938
H8    H     H_    0.681904 0.339306 0.844399 0.395142
H9    H     H_    0.935780 0.504190 0.606440 0.181705
H10   H     H_    0.064638 0.503750 0.393856 0.179606
H11   H     H_    0.544482 0.854197 0.413256 0.179947
H12   H     H_    0.570372 0.616502 0.190006 0.186822
H13   H     H_    0.584855 0.140284 0.433223 0.161568
H14   H     H_    0.312594 0.831775 0.570507 0.168165
H15   H     H_    0.287858 0.168891 0.548927 0.168518
H16   H     H_    0.511467 0.935155 0.606986 0.214147
H17   H     H_    0.312032 0.062579 0.378566 0.219030
H18   H     H_    0.685821 0.171314 0.672169 0.397046
H19   H     H_    0.314362 0.866290 0.249219 0.408826
H20   H     H_    0.606091 0.724039 0.687410 0.388201
H21   H     H_    0.253924 0.336571 0.348156 0.371955
H22   H     H_    0.587476 0.728523 0.418637 0.155130
H23   H     H_    0.624370 0.268018 0.437835 0.173413
H24   H     H_    0.355989 0.706261 0.576596 0.191132
H25   H     H_    0.325930 0.296191 0.552952 0.151787
H26   H     H_    0.876927 0.532721 0.437309 0.195589
H27   H     H_    0.126456 0.533015 0.565045 0.198298
H28   H     H_    0.631751 0.574635 0.861920 0.203091
N1    N     N_R   0.500020 0.499980 0.689440 -0.153708
N2    N     N_R   0.499980 0.500020 0.310560 -0.149477
O1    O     O_R   0.500000 0.398180 0.560840 -0.630740
O2    O     O_2   0.223237 0.638631 0.914718 -0.158558
O3    O     O_3   0.332536 0.608705 0.810416 -0.556318
O4    O     O_2   0.745664 0.394538 0.150250 -0.239860
O5    O     O_2   0.864915 0.469033 0.083736 -0.161630
O6    O     O_3   0.783194 0.526345 0.189421 -0.569962
O7    O     O_2   0.243827 0.525034 0.124148 -0.273080
O8    O     O_2   0.264723 0.637725 0.068916 -0.232579
O9    O     O_3   0.117655 0.539418 0.988377 -0.409852
O10   O     O_2   0.801710 0.447761 0.926661 -0.238159
O11   O     O_2   0.745136 0.352887 0.000244 -0.153226
O12   O     O_R   0.500000 0.601820 0.439160 -0.643035
O13   O     O_3   0.614098 0.361328 0.864048 -0.554942
O14   O     O_2   0.459550 0.117832 0.677107 -0.280495
O15   O     O_2   0.627964 0.030906 0.699138 -0.237451
O16   O     O_3   0.659427 0.141180 0.626055 -0.548980
O17   O     O_2   0.196605 0.851153 0.360536 -0.275685
O18   O     O_2   0.162487 0.963202 0.297861 -0.238917
O19   O     O_3   0.365719 0.894748 0.292522 -0.544729
O20   O     O_2   0.752247 0.648123 0.795639 -0.251951
O21   O     O_2   0.735563 0.605933 0.668512 -0.283048
O22   O     O_3   0.553793 0.682509 0.693785 -0.550203
O23   O     O_R   0.499950 0.398180 0.439200 -0.542253
O24   O     O_2   0.299142 0.333757 0.207761 -0.235591
O25   O     O_2   0.479485 0.316556 0.314688 -0.318476
O26   O     O_3   0.281279 0.383412 0.335180 -0.523994
O27   O     O_R   0.500050 0.601820 0.560800 -0.551798
O28   O     O_R   0.317830 0.500010 0.538110 -0.644946
O29   O     O_R   0.682170 0.499990 0.461890 -0.635599
O30   O     O_R   0.317770 0.500000 0.416470 -0.545019
O31   O     O_R   0.682230 0.500000 0.583530 -0.559172
O32   O     O_2   0.163069 0.526880 0.844496 -0.245322
S1    S     S_3+6 0.272618 0.577171 0.878902 0.109370
S2    S     S_3+6 0.753773 0.465790 0.118892 0.108800
S3    S     S_3+6 0.253984 0.559700 0.053958 0.125060
S4    S     S_3+6 0.692726 0.405847 0.942614 0.114017
S5    S     S_3+6 0.555564 0.081308 0.643953 0.056016
S6    S     S_3+6 0.261652 0.916539 0.342894 0.054750
S7    S     S_3+6 0.660319 0.620244 0.724822 0.082738
S8    S     S_3+6 0.379164 0.367245 0.279489 0.086144
Zn1   Zn    Zn3+2 0.500040 0.500000 0.581220 1.025626
Zn2   Zn    Zn3+2 0.499960 0.500000 0.418780 1.035466

loop_
_geom_bond_atom_site_label_1
_geom_bond_atom_site_label_2
_ccdc_geom_bond_type
C30   C32   A    
O9    S3    S    
C27   C29   A    
C34   C37   A    
C14   C18   A    
H18   O16   S    
C39   C41   A    
C15   C19   A    
O24   S8    D    
C12   C23   S    
C12   O12   A    
C8    C20   S    
C15   S2    S    
O5    S2    D    
C35   C37   A    
C24   C26   D    
H21   O26   S    
C13   H4    S    
C11   N1    A    
O23   Zn2   S    
H7    O9    S    
N2    Zn2   S    
O22   S7    S    
C33   C36   A    
O1    Zn1   S    
O11   S4    D    
N1    Zn1   S    
H6    O6    S    
C17   O29   A    
C18   S3    S    
C12   O27   A    
H8    O13   S    
C38   H16   S    
C14   S1    S    
C3    S7    S    
C22   C25   D    
O4    S2    D    
C31   C33   A    
C23   C27   A    
O13   S4    S    
C18   C20   A    
C19   S4    S    
C33   H14   S    
C40   C42   A    
C4    S8    S    
C28   C34   A    
C6    H2    S    
O29   Zn2   S    
O32   S1    D    
C1    C34   S    
C39   C42   A    
C15   C20   A    
C9    H1    S    
C17   C24   S    
O26   S8    S    
C32   C35   A    
O14   S5    D    
C4    C6    A    
C5    C7    A    
O25   S8    D    
C16   O28   A    
C6    C8    A    
C25   C26   S    
C7    C21   S    
O17   S6    D    
C2    C31   S    
C3    N1    A    
C5    H28   S    
O30   Zn2   S    
C2    C38   A    
O8    S3    D    
C1    O23   A    
C39   H17   S    
O7    S3    D    
C9    C11   A    
O21   S7    D    
O16   S5    S    
C16   O30   A    
O3    S1    S    
O10   S4    D    
C41   S6    S    
H20   O22   S    
C11   H3    S    
C25   H27   S    
O18   S6    D    
C4    N2    A    
C14   C21   A    
C22   H10   S    
C7    C9    A    
C16   C22   S    
O31   Zn1   S    
O19   S6    S    
O28   Zn1   S    
C3    C5    A    
C10   C13   A    
O27   Zn1   S    
O20   S7    D    
C40   S5    S    
O15   S5    D    
C13   N2    A    
C30   H13   S    
C35   H15   S    
O6    S2    S    
C26   H26   S    
O12   Zn2   S    
C28   C30   A    
C28   H23   S    
C17   O31   A    
C1    O1    A    
C29   C31   A    
O2    S1    D    
C38   C40   A    
C29   H11   S    
C24   H9    S    
C37   H25   S    
C36   H24   S    
C10   H12   S    
C27   H22   S    
H5    O3    S    
C8    C10   A    
C23   C36   A    
C32   C42   S    
C2    C41   A    
H19   O19   S    
C19   C21   A    
