data_mof_unit_25284.cif
_audit_creation_date              2012-10-26T19:40:08-0400
_audit_creation_method            fapswitch 2.2
_symmetry_space_group_name_H-M    P1
_symmetry_Int_Tables_number       1
_space_group_crystal_system       triclinic
_cell_length_a                    15.039813
_cell_length_b                    8.656522
_cell_length_c                    7.439507
_cell_angle_alpha                 103.674887
_cell_angle_beta                  92.695762
_cell_angle_gamma                 88.29323
_cell_volume                      939.896328451

loop_
_atom_site_label
_atom_site_type_symbol
_atom_type_description
_atom_site_fract_x
_atom_site_fract_y
_atom_site_fract_z
_atom_type_partial_charge
C1    C     C_R   0.495243 0.199982 0.453582 0.537890
C2    C     C_R   0.189947 0.361334 0.445442 -0.017429
C3    C     C_R   0.767373 0.507264 0.478104 0.009957
C4    C     C_R   0.233753 0.504718 0.516462 0.007596
C5    C     C_R   0.815439 0.365324 0.416725 -0.154252
C6    C     C_R   0.186721 0.647163 0.581211 -0.157327
C7    C     C_R   0.908463 0.364359 0.406537 0.010289
C8    C     C_R   0.093147 0.652402 0.571521 0.008318
C9    C     C_R   0.953619 0.509182 0.478253 0.023465
C10   C     C_R   0.047648 0.509518 0.491074 0.022403
C11   C     C_R   0.904731 0.653355 0.538653 -0.001202
C12   C     C_R   0.500169 0.800509 0.547435 0.534929
C13   C     C_R   0.096147 0.365690 0.425571 0.003071
C14   C     C_R   0.957665 0.222309 0.332475 -0.015685
C15   C     C_R   0.044135 0.796003 0.638986 -0.006507
C16   C     C_3   0.755846 0.807110 0.512700 -0.262479
C17   C     C_3   0.708303 0.798096 0.321655 -0.297995
C18   C     C_3   0.686491 0.959180 0.278670 -0.454218
C19   C     C_3   0.243052 0.203702 0.410545 -0.250423
C20   C     C_3   0.263381 0.137533 0.205570 -0.300069
C21   C     C_3   0.271922 0.956196 0.157867 -0.458101
C22   C     C_3   0.911975 0.065230 0.247157 -0.269791
C23   C     C_R   0.050364 0.227804 0.341583 -0.127615
C24   C     C_3   0.973233 0.919280 0.174281 -0.310990
C25   C     C_3   0.921362 0.770234 0.084865 -0.437469
C26   C     C_3   0.091170 0.952668 0.725320 -0.266721
C27   C     C_3   0.030880 0.103877 0.764792 -0.308893
C28   C     C_3   0.082856 0.256525 0.837163 -0.437273
C29   C     C_R   0.950807 0.791609 0.624415 -0.122688
C30   C     C_2   0.488712 0.032479 0.428924 -0.175903
C31   C     C_2   0.499761 0.968979 0.574420 -0.165679
C32   C     C_R   0.329438 0.508566 0.506621 0.543296
C33   C     C_R   0.671113 0.499687 0.493762 0.543192
C34   C     C_R   0.810444 0.654608 0.515838 -0.023360
Cu1   Cu    Cu3+1 0.510010 0.517380 0.684380 0.934114
Cu2   Cu    Cu3+1 0.489990 0.482620 0.315620 0.919899
H1    H     H_    0.778944 0.256326 0.376534 0.096417
H2    H     H_    0.739945 0.993903 0.201465 0.137543
H3    H     H_    0.626319 0.949950 0.184834 0.148288
H4    H     H_    0.745991 0.723383 0.207238 0.160763
H5    H     H_    0.644496 0.741672 0.319604 0.205371
H6    H     H_    0.705877 0.826781 0.621646 0.144911
H7    H     H_    0.796514 0.914493 0.543276 0.130567
H8    H     H_    0.320937 0.915598 0.253770 0.168822
H9    H     H_    0.206534 0.903173 0.168234 0.142305
H10   H     H_    0.294046 0.913278 0.013928 0.147690
H11   H     H_    0.210354 0.171676 0.113950 0.156204
H12   H     H_    0.224682 0.753243 0.637208 0.093958
H13   H     H_    0.326211 0.187907 0.174465 0.198340
H14   H     H_    0.306560 0.215262 0.494258 0.144450
H15   H     H_    0.206663 0.116203 0.464328 0.122455
H16   H     H_    0.893587 0.720423 0.193336 0.170738
H17   H     H_    0.867078 0.796456 0.989359 0.154201
H18   H     H_    0.966992 0.678837 0.004912 0.152880
H19   H     H_    0.016322 0.943390 0.068323 0.162390
H20   H     H_    0.016315 0.893596 0.289627 0.170732
H21   H     H_    0.872201 0.036223 0.355694 0.148238
H22   H     H_    0.868011 0.084288 0.129828 0.139109
H23   H     H_    0.087951 0.122340 0.283658 0.124735
H24   H     H_    0.147175 0.251928 0.768994 0.156311
H25   H     H_    0.042628 0.359351 0.811379 0.157222
H26   H     H_    0.095193 0.277456 0.988608 0.152153
H27   H     H_    0.993863 0.112035 0.635266 0.177782
H28   H     H_    0.981471 0.098718 0.869030 0.158153
H29   H     H_    0.127623 0.941943 0.855139 0.138796
H30   H     H_    0.140678 0.970029 0.626898 0.131827
H31   H     H_    0.913526 0.894967 0.690834 0.104029
H32   H     H_    0.477650 0.960564 0.289080 0.129094
H33   H     H_    0.510755 0.040792 0.714466 0.131974
H34   H     H_    0.431771 0.382442 0.948678 0.237150
H35   H     H_    0.568083 0.617718 0.050830 0.232075
H36   H     H_    0.674982 0.052280 0.406796 0.161221
N1    N     N_2   0.474890 0.456420 0.038520 -0.257392
N2    N     N_2   0.525110 0.543580 0.961480 -0.254823
O1    O     O_R   0.506510 0.286130 0.619770 -0.504498
O2    O     O_R   0.493490 0.713870 0.380230 -0.520211
O3    O     O_R   0.489600 0.256770 0.308360 -0.505886
O4    O     O_R   0.510400 0.743230 0.691640 -0.501409
O5    O     O_R   0.378710 0.514640 0.655720 -0.510350
O6    O     O_R   0.621290 0.485360 0.344280 -0.515105
O7    O     O_R   0.361800 0.485290 0.344300 -0.500790
O8    O     O_R   0.638200 0.514710 0.655700 -0.494783

loop_
_geom_bond_atom_site_label_1
_geom_bond_atom_site_label_2
_ccdc_geom_bond_type
Cu1   N2    S    
C5    H1    S    
C1    O3    A    
N1    N2    D    
Cu1   Cu2   S    
C22   H21   S    
C24   H19   S    
C23   H23   S    
C32   O7    A    
Cu1   O1    S    
C26   C27   S    
C6    H12   S    
C25   H17   S    
Cu2   O3    S    
C30   C31   D    
C3    C33   S    
C13   C23   A    
C2    C13   A    
Cu2   O2    S    
C16   C34   S    
C29   H31   S    
C7    C14   A    
C19   C20   S    
C16   C17   S    
C12   O4    A    
C9    C10   A    
C28   H25   S    
Cu1   O8    S    
C15   C29   A    
C21   H9    S    
C28   H24   S    
C18   H36   S    
C26   H30   S    
C25   H18   S    
C4    C6    A    
Cu2   O6    S    
C5    C7    A    
C15   C26   S    
C6    C8    A    
C3    C34   A    
C17   H4    S    
C1    O1    A    
C14   C23   A    
C2    C4    A    
C18   H3    S    
C20   H13   S    
C21   H8    S    
Cu2   O7    S    
H34   N1    S    
C17   C18   S    
C24   C25   S    
C9    C11   A    
C16   H7    S    
C4    C32   S    
C27   H27   S    
C8    C15   A    
C12   O2    A    
C12   C31   S    
C22   C24   S    
C16   H6    S    
C21   H10   S    
C33   O8    A    
C7    C9    A    
C2    C19   S    
C26   H29   S    
C11   C34   A    
C3    C5    A    
C10   C13   A    
C22   H22   S    
H35   N2    S    
C33   O6    A    
C24   H20   S    
Cu1   O4    S    
C14   C22   S    
C18   H2    S    
C25   H16   S    
C32   O5    A    
C19   H14   S    
Cu1   O5    S    
C1    C30   S    
C17   H5    S    
C20   H11   S    
C27   H28   S    
C19   H15   S    
C31   H33   S    
C20   C21   S    
C11   C29   A    
C8    C10   A    
C27   C28   S    
Cu2   N1    S    
C30   H32   S    
C28   H26   S    
