data_mof_unit_14355.cif
_audit_creation_date              2012-10-26T18:48:21-0400
_audit_creation_method            fapswitch 2.2
_symmetry_space_group_name_H-M    P1
_symmetry_Int_Tables_number       1
_space_group_crystal_system       triclinic
_cell_length_a                    10.593585
_cell_length_b                    8.73083
_cell_length_c                    7.454114
_cell_angle_alpha                 102.842657
_cell_angle_beta                  94.234535
_cell_angle_gamma                 92.528522
_cell_volume                      669.054866962

loop_
_atom_site_label
_atom_site_type_symbol
_atom_type_description
_atom_site_fract_x
_atom_site_fract_y
_atom_site_fract_z
_atom_type_partial_charge
C1    C     C_R   0.496249 0.200172 0.453702 0.578577
C2    C     C_3   0.122763 0.500139 0.504815 0.047548
C3    C     C_3   0.967489 0.636116 0.604603 -0.122562
C4    C     C_3   0.032511 0.363884 0.395397 -0.122562
C5    C     C_2   0.494707 0.033123 0.427291 0.319737
C6    C     C_2   0.505293 0.966877 0.572709 0.319737
C7    C     C_R   0.503751 0.799828 0.546298 0.578577
C8    C     C_R   0.259473 0.499728 0.502088 0.535182
C9    C     C_R   0.740526 0.500272 0.497912 0.535183
C10   C     C_3   0.048357 0.515224 0.675681 -0.110979
C11   C     C_3   0.951643 0.484776 0.324319 -0.110979
C12   C     C_3   0.955770 0.378972 0.566268 -0.122460
C13   C     C_3   0.044230 0.621028 0.433732 -0.122461
C14   C     C_3   0.877237 0.499861 0.495184 0.047548
Cu1   Cu    Cu3+1 0.514140 0.517380 0.684380 1.044963
Cu2   Cu    Cu3+1 0.485860 0.482620 0.315620 1.044963
F1    F     F_    0.482425 0.946824 0.249696 -0.617950
F2    F     F_    0.517575 0.053176 0.750303 -0.617950
H1    H     H_    0.916118 0.279687 0.619720 0.125100
H2    H     H_    0.083882 0.720313 0.380280 0.125100
H3    H     H_    0.090626 0.527552 0.819351 0.132514
H4    H     H_    0.909374 0.472447 0.180649 0.132514
H5    H     H_    0.937460 0.747629 0.689520 0.123936
H6    H     H_    0.062540 0.252371 0.310480 0.123935
H7    H     H_    0.399874 0.379543 0.948840 0.259183
H8    H     H_    0.600126 0.620456 0.051160 0.259183
N1    N     N_2   0.464560 0.456420 0.038510 -0.228418
N2    N     N_2   0.535440 0.543580 0.961490 -0.228418
O1    O     O_R   0.509190 0.286130 0.619780 -0.481210
O2    O     O_R   0.490810 0.713870 0.380220 -0.481210
O3    O     O_R   0.485310 0.256770 0.308360 -0.448859
O4    O     O_R   0.514690 0.743230 0.691640 -0.448859
O5    O     O_R   0.328790 0.514640 0.655680 -0.519641
O6    O     O_R   0.671210 0.485360 0.344320 -0.519642
O7    O     O_R   0.304910 0.485280 0.344260 -0.514658
O8    O     O_R   0.695090 0.514720 0.655740 -0.514659

loop_
_geom_bond_atom_site_label_1
_geom_bond_atom_site_label_2
_ccdc_geom_bond_type
C9    O8    A    
C2    C4    S    
C9    C14   S    
C6    C7    S    
C4    C12   S    
C11   H4    S    
C3    H5    S    
C3    C13   S    
Cu2   N1    S    
C1    O1    A    
Cu1   O4    S    
C10   H3    S    
C7    O2    A    
Cu2   O3    S    
C11   C13   S    
Cu1   N2    S    
C9    O6    A    
C3    C14   S    
C10   C12   S    
C6    F2    S    
C12   H1    S    
C12   C14   S    
Cu1   O1    S    
C8    O5    A    
Cu2   O7    S    
C5    C6    D    
C4    H6    S    
C11   C14   S    
C1    C5    S    
H7    N1    S    
Cu2   O2    S    
Cu1   Cu2   S    
C2    C10   S    
Cu1   O8    S    
C1    O3    A    
C5    F1    S    
N1    N2    D    
C3    C10   S    
C2    C13   S    
C7    O4    A    
C13   H2    S    
Cu2   O6    S    
H8    N2    S    
Cu1   O5    S    
C2    C8    S    
C4    C11   S    
C8    O7    A    
