data_mof_unit_35380.cif
_audit_creation_date              2012-12-11T17:25:05-0500
_audit_creation_method            fapswitch 2.2
_symmetry_space_group_name_H-M    P1
_symmetry_Int_Tables_number       1
_space_group_crystal_system       triclinic
_cell_length_a                    6.950492
_cell_length_b                    20.518483
_cell_length_c                    24.49756
_cell_angle_alpha                 90.064169
_cell_angle_beta                  89.925402
_cell_angle_gamma                 88.927017
_cell_volume                      3493.06619083

loop_
_atom_site_label
_atom_site_type_symbol
_atom_type_description
_atom_site_fract_x
_atom_site_fract_y
_atom_site_fract_z
_atom_type_partial_charge
O1    O     O_R   0.507280 0.423750 0.460310 -0.534294
O2    O     O_R   0.171030 0.555650 0.437630 -0.535617
O3    O     O_R   0.004080 0.576250 0.539690 -0.525531
C1    C     C_R   0.339083 0.575681 0.421814 0.735830
O4    O     O_R   0.177330 0.422980 0.453960 -0.553725
O5    O     O_R   0.010420 0.442640 0.556140 -0.538862
C2    C     C_R   0.347882 0.398681 0.443751 0.834228
O6    O     O_R   0.500930 0.557360 0.443860 -0.539588
O7    O     O_3   0.340310 0.506600 0.533500 -0.371834
V1    V     V_3+5 0.064140 0.498780 0.493780 1.430018
O8    O     O_R   0.680890 0.444350 0.562370 -0.535801
C3    C     C_R   0.850534 0.424554 0.578272 0.733193
O9    O     O_R   0.674590 0.577020 0.546040 -0.551030
C4    C     C_R   0.840945 0.601295 0.556470 0.755502
V2    V     V_3+5 0.564550 0.501220 0.506220 1.419571
O10   O     O_3   0.838250 0.493400 0.466500 -0.373823
C5    C     C_R   0.979722 0.838253 0.910907 -0.122331
C6    C     C_R   0.835390 0.661714 0.589460 -0.161169
C7    C     C_R   0.043938 0.722248 0.906505 -0.134941
C8    C     C_R   0.030717 0.779738 0.936439 -0.245911
C9    C     C_R   0.942859 0.839217 0.854203 0.343068
C10   C     C_R   0.935455 0.779183 0.823994 -0.022575
C11   C     C_R   0.997648 0.721484 0.850800 0.034754
C12   C     C_R   0.872068 0.774364 0.768373 0.000589
C13   C     C_R   0.904284 0.715301 0.737598 -0.051312
C14   C     C_R   0.957721 0.658230 0.767474 0.443375
C15   C     C_R   0.008663 0.662640 0.822529 -0.299191
C16   C     C_R   0.759888 0.824528 0.744503 -0.132560
C17   C     C_R   0.696173 0.820464 0.691231 -0.210649
C18   C     C_R   0.746177 0.767224 0.658634 0.095318
C19   C     C_R   0.860476 0.714830 0.679789 -0.026104
C20   C     C_R   0.676147 0.765655 0.605131 -0.186213
C21   C     C_R   0.713645 0.712292 0.571889 -0.253046
C22   C     C_R   0.922480 0.665284 0.641462 0.386238
H1    H     H_    0.646053 0.710185 0.532094 0.135890
H2    H     H_    0.605562 0.859654 0.675381 0.120487
H3    H     H_    0.088336 0.677839 0.927263 0.123416
H4    H     H_    0.064955 0.778879 0.979579 0.125188
H5    H     H_    0.705343 0.865596 0.767585 0.179787
H6    H     H_    0.620205 0.201341 0.789942 0.115443
C23   C     C_R   0.730442 0.267516 0.729842 -0.147381
H7    H     H_    0.588772 0.279633 0.714026 0.112391
C24   C     C_R   0.894230 0.296081 0.707176 0.133832
C25   C     C_R   0.076205 0.279372 0.728398 -0.158926
C26   C     C_R   0.094148 0.234793 0.771712 -0.151304
H8    H     H_    0.235825 0.222644 0.787517 0.111979
C27   C     C_R   0.930342 0.206172 0.794340 0.137599
C28   C     C_R   0.748394 0.222867 0.773089 -0.163687
C29   C     C_1   0.876128 0.341868 0.662006 -0.063898
C30   C     C_1   0.948390 0.159981 0.839237 -0.065437
C31   C     C_1   0.961415 0.121516 0.876838 -0.184378
C32   C     C_1   0.862947 0.379753 0.624009 -0.174850
H9    H     H_    0.698898 0.696815 0.292333 0.113257
C33   C     C_R   0.596690 0.764026 0.230867 -0.157228
H10   H     H_    0.740528 0.774860 0.216906 0.111050
C34   C     C_R   0.436079 0.794311 0.206193 0.135963
C35   C     C_R   0.251316 0.779096 0.225191 -0.156802
C36   C     C_R   0.227513 0.734543 0.268210 -0.156168
C37   C     C_R   0.388131 0.704383 0.292966 0.136939
C38   C     C_R   0.572879 0.719455 0.273878 -0.157098
C39   C     C_1   0.459776 0.840533 0.161426 -0.061349
C40   C     C_1   0.364430 0.658684 0.338086 -0.059607
C41   C     C_1   0.349033 0.620763 0.376035 -0.195652
C42   C     C_1   0.475108 0.878933 0.123797 -0.190683
C43   C     C_R   0.459378 0.162622 0.087727 -0.137002
C44   C     C_R   0.362468 0.337762 0.411463 -0.307901
C45   C     C_R   0.356444 0.275841 0.090421 -0.197109
C46   C     C_R   0.401308 0.219659 0.060512 0.375301
C47   C     C_R   0.479713 0.163149 0.144793 -0.260127
C48   C     C_R   0.433934 0.219915 0.176258 0.028521
C49   C     C_R   0.368917 0.276538 0.147802 -0.001426
C50   C     C_R   0.442538 0.221537 0.234873 0.074397
C51   C     C_R   0.387072 0.279580 0.263878 0.041964
C52   C     C_R   0.310530 0.332302 0.233773 -0.270945
C53   C     C_R   0.309818 0.332664 0.176659 0.384750
C54   C     C_R   0.498668 0.166417 0.265669 -0.176996
C55   C     C_R   0.487534 0.166469 0.322226 -0.142220
C56   C     C_R   0.430977 0.222500 0.351169 -0.086911
C57   C     C_R   0.396908 0.281635 0.322567 -0.046940
C58   C     C_R   0.413944 0.220240 0.408658 0.356506
C59   C     C_R   0.375213 0.277373 0.438494 0.271309
C60   C     C_R   0.382601 0.340490 0.354096 0.280138
H11   H     H_    0.526240 0.121806 0.343397 0.155556
H12   H     H_    0.523300 0.117648 0.163279 0.113211
H13   H     H_    0.546931 0.121311 0.247341 0.114903
O11   O     O_R   0.323320 0.942780 0.056240 -0.538152
O12   O     O_R   0.647300 0.077050 0.046060 -0.548099
O13   O     O_R   0.813840 0.057330 0.943840 -0.534566
C61   C     C_R   0.476664 0.101026 0.056733 0.749881
O14   O     O_R   0.653250 0.944380 0.062400 -0.540439
O15   O     O_R   0.819830 0.923720 0.960300 -0.532903
C62   C     C_R   0.485140 0.924381 0.078250 0.713637
O16   O     O_R   0.317330 0.076390 0.039790 -0.524004
O17   O     O_3   0.483830 0.993470 0.966560 -0.367374
V3    V     V_3+5 0.760140 0.001210 0.006210 1.435365
O18   O     O_R   0.149290 0.922840 0.953850 -0.549365
C63   C     C_R   0.982314 0.898913 0.943275 0.750617
O19   O     O_R   0.143340 0.055500 0.937510 -0.532513
C64   C     C_R   0.973754 0.075837 0.921985 0.759158
V4    V     V_3+5 0.259690 0.998600 0.993650 1.449055
O20   O     O_3   0.986130 0.006520 0.033440 -0.372523
H14   H     H_    0.053261 0.618556 0.843777 0.134703
H15   H     H_    0.584558 0.804769 0.589647 0.127555
H16   H     H_    0.204394 0.300762 0.711419 0.112312
H17   H     H_    0.125278 0.801744 0.206758 0.112424
H18   H     H_    0.083683 0.723750 0.282204 0.111382
O21   O     O_3   0.230641 0.385295 0.148423 -0.555793
C65   C     C_3   0.333391 0.442462 0.160076 0.089928
H19   H     H_    0.492175 0.433221 0.160520 0.120560
H20   H     H_    0.286816 0.463128 0.200023 0.134798
C66   C     C_3   0.289766 0.493035 0.116269 -0.709601
H21   H     H_    0.132962 0.504457 0.115302 0.226092
H22   H     H_    0.368478 0.538427 0.125188 0.178214
H23   H     H_    0.335811 0.474144 0.075704 0.218853
O22   O     O_3   0.065570 0.619997 0.653140 -0.526844
C67   C     C_3   0.245529 0.650309 0.649998 0.146878
H24   H     H_    0.254896 0.691744 0.679244 0.104311
H25   H     H_    0.273270 0.668081 0.607796 0.107560
C68   C     C_3   0.400642 0.600469 0.664806 -0.652429
H26   H     H_    0.542541 0.624039 0.665626 0.168466
H27   H     H_    0.370298 0.579810 0.705722 0.224905
H28   H     H_    0.404420 0.560342 0.634401 0.228040
O23   O     O_3   0.407225 0.401152 0.330633 -0.566127
C69   C     C_3   0.606051 0.410114 0.321571 0.094348
H29   H     H_    0.661896 0.375799 0.289823 0.129887
H30   H     H_    0.690466 0.402880 0.359837 0.131863
C70   C     C_3   0.638189 0.479233 0.301709 -0.703579
H31   H     H_    0.793657 0.486215 0.293558 0.181559
H32   H     H_    0.590040 0.514708 0.333298 0.223482
H33   H     H_    0.556390 0.488401 0.263529 0.205833
O24   O     O_3   0.377421 0.274108 0.494961 -0.535257
C71   C     C_3   0.187308 0.278452 0.515486 0.110756
H34   H     H_    0.076817 0.259594 0.486770 0.087837
H35   H     H_    0.150558 0.329957 0.524969 0.134715
C72   C     C_3   0.175758 0.239686 0.568258 -0.675941
H36   H     H_    0.273638 0.260459 0.599296 0.216482
H37   H     H_    0.026256 0.241621 0.584260 0.183511
H38   H     H_    0.217829 0.187990 0.560685 0.225998
H39   H     H_    0.306455 0.318534 0.068227 0.174323
O25   O     O_3   0.370341 0.218964 0.004785 -0.557265
C73   C     C_3   0.540088 0.238692 0.978371 0.088388
H40   H     H_    0.666019 0.207488 0.990478 0.118742
H41   H     H_    0.570276 0.290564 0.988060 0.121871
C74   C     C_3   0.514157 0.232337 0.916950 -0.696768
H42   H     H_    0.389095 0.262590 0.903298 0.221652
H43   H     H_    0.645394 0.249135 0.895711 0.181733
H44   H     H_    0.489625 0.180622 0.905910 0.221380
H45   H     H_    0.239437 0.372741 0.253948 0.188892
O26   O     O_3   0.449475 0.162812 0.436838 -0.533556
C75   C     C_3   0.278721 0.126548 0.438552 0.115206
H46   H     H_    0.228701 0.113833 0.396784 0.106204
H47   H     H_    0.161606 0.153950 0.459934 0.125587
C76   C     C_3   0.317130 0.063537 0.469604 -0.701515
H48   H     H_    0.364099 0.074591 0.511881 0.226460
H49   H     H_    0.183792 0.034626 0.471379 0.174914
H50   H     H_    0.431440 0.034294 0.448709 0.217214
O27   O     O_3   0.927884 0.899279 0.828845 -0.575047
C77   C     C_3   0.108240 0.914133 0.805764 0.067346
H51   H     H_    0.159604 0.875187 0.777211 0.128108
H52   H     H_    0.217643 0.920890 0.838365 0.129673
C78   C     C_3   0.089156 0.977199 0.773565 -0.700452
H53   H     H_    0.039789 0.017392 0.800787 0.221827
H54   H     H_    0.230632 0.989826 0.755751 0.177274
H55   H     H_    0.983387 0.971402 0.740037 0.222393
O28   O     O_3   0.949071 0.596765 0.744608 -0.522557
C79   C     C_3   0.785416 0.564491 0.764333 0.108906
H56   H     H_    0.653404 0.595836 0.760961 0.103142
H57   H     H_    0.805756 0.549980 0.807713 0.111619
C80   C     C_3   0.756958 0.502958 0.730796 -0.669339
H58   H     H_    0.882737 0.469332 0.735875 0.225078
H59   H     H_    0.625217 0.477960 0.744595 0.168734
H60   H     H_    0.741844 0.515453 0.686890 0.221051

loop_
_geom_bond_atom_site_label_1
_geom_bond_atom_site_label_2
_ccdc_geom_bond_type
C13   C19   A    
C72   H38   S    
C35   H17   S    
C14   O28   S    
C53   O21   S    
O28   C79   S    
C23   C24   A    
C80   H58   S    
C4    C6    S    
O2    C1    A    
C7    C8    A    
C1    O6    A    
C78   H53   S    
C25   H16   S    
O26   C75   S    
C72   H36   S    
C33   C38   A    
C55   C56   A    
C65   H19   S    
C43   C61   S    
C17   H2    S    
C14   C15   A    
O27   C77   S    
C52   H45   S    
C16   C17   A    
C73   H41   S    
O5    C3    A    
C18   C19   A    
C56   C58   A    
C59   O24   S    
C55   H11   S    
V2    O10   S    
C5    C8    A    
C67   H24   S    
C72   H37   S    
C51   C52   A    
C7    H3    S    
C77   C78   S    
C3    C32   S    
O8    V2    S    
C77   H52   S    
C66   H21   S    
C67   H25   S    
C71   H34   S    
C75   C76   S    
O12   V3    S    
O21   C65   S    
C48   C49   A    
O1    V2    S    
C11   C15   A    
C76   H49   S    
O11   V4    S    
O7    V1    S    
C45   C49   A    
C50   C54   A    
C50   C51   A    
C43   C46   A    
C26   C27   A    
C23   H7    S    
O13   V3    S    
C37   C38   A    
O9    C4    A    
C79   H57   S    
C80   H59   S    
C47   C48   A    
C74   H44   S    
C78   H54   S    
H9    C38   S    
C27   C30   S    
C68   H27   S    
C31   C64   S    
C58   O26   S    
C33   C34   A    
C19   C22   A    
C52   C53   A    
C45   C46   A    
C18   C20   A    
O23   C69   S    
C54   C55   A    
C74   H43   S    
C73   C74   S    
O4    C2    A    
C56   C57   A    
C24   C29   S    
C16   H5    S    
C43   C47   A    
C22   O22   S    
C26   H8    S    
C61   O16   A    
O15   C63   A    
C36   H18   S    
C39   C42   T    
C7    C11   A    
C24   C25   A    
C70   H32   S    
C17   C18   A    
C44   C60   A    
C8    H4    S    
O14   C62   A    
C27   C28   A    
C1    C41   S    
O17   V4    S    
O8    C3    A    
C29   C32   T    
O18   C63   A    
C40   C41   T    
C30   C31   T    
C51   C57   A    
C20   H15   S    
C66   H22   S    
C12   C13   A    
C76   H50   S    
C6    C22   A    
O16   V4    S    
O3    C4    A    
C69   C70   S    
O6    V2    S    
O19   V4    S    
O12   C61   A    
C79   H56   S    
C80   H60   S    
C10   C12   A    
C46   O25   S    
C34   C35   A    
C42   C62   S    
C70   H31   S    
O2    V1    S    
C60   O23   S    
C78   H55   S    
C45   H39   S    
C25   C26   A    
C69   H30   S    
C68   H28   S    
H6    C28   S    
C33   H10   S    
C37   C40   S    
O1    C2    A    
C36   C37   A    
C9    O27   S    
C10   C11   A    
C12   C16   A    
C58   C59   A    
O14   V3    S    
O5    V1    S    
C57   C60   A    
C48   C50   A    
C68   H26   S    
C65   C66   S    
C15   H14   S    
C75   H46   S    
C67   C68   S    
C74   H42   S    
C20   C21   A    
O9    V2    S    
C13   C14   A    
C70   H33   S    
O4    V1    S    
O3    V1    S    
V1    O10   S    
C73   H40   S    
C2    C44   S    
C49   C53   A    
C35   C36   A    
C77   H51   S    
C71   C72   S    
O25   C73   S    
O18   V4    S    
V4    O20   S    
C21   H1    S    
C23   C28   A    
C65   H20   S    
C66   H23   S    
C75   H47   S    
O7    V2    S    
O17   V3    S    
C6    C21   A    
C5    C9    A    
O13   C64   A    
O15   V3    S    
V3    O20   S    
C79   C80   S    
C71   H35   S    
O19   C64   A    
C47   H12   S    
C34   C39   S    
O11   C62   A    
O22   C67   S    
C76   H48   S    
C9    C10   A    
C5    C63   S    
C54   H13   S    
O24   C71   S    
C69   H29   S    
C44   C59   A    
