data_mof_unit_7511.cif
_audit_creation_date              2012-12-10T19:07:35-0500
_audit_creation_method            fapswitch 2.2
_symmetry_space_group_name_H-M    P1
_symmetry_Int_Tables_number       1
_space_group_crystal_system       triclinic
_cell_length_a                    10.766531
_cell_length_b                    10.80803
_cell_length_c                    9.587387
_cell_angle_alpha                 90.158477
_cell_angle_beta                  90.200825
_cell_angle_gamma                 90.451488
_cell_volume                      1115.59034983

loop_
_atom_site_label
_atom_site_type_symbol
_atom_type_description
_atom_site_fract_x
_atom_site_fract_y
_atom_site_fract_z
_atom_type_partial_charge
C1    C     C_R   0.502019 0.262472 0.499857 0.878147
C2    C     C_R   0.938644 0.595687 0.538937 0.053356
C3    C     C_3   0.930702 0.729001 0.576918 -0.377002
C4    C     C_3   0.073924 0.728911 0.576206 -0.405435
C5    C     C_R   0.515258 0.064106 0.624998 0.130480
C6    C     C_R   0.514154 0.129410 0.499605 -0.074348
C7    C     C_R   0.530907 0.064421 0.373954 -0.092717
C8    C     C_R   0.531005 0.935500 0.374082 -0.152161
C9    C     C_R   0.514689 0.870823 0.499903 -0.106882
C10   C     C_R   0.515629 0.936820 0.625160 0.117531
C11   C     C_3   0.429163 0.929658 0.746452 -0.433570
C12   C     C_R   0.263033 0.498387 0.499959 0.884875
C13   C     C_3   0.428690 0.070182 0.746251 -0.425798
C14   C     C_R   0.569281 0.584742 0.073497 0.098095
C15   C     C_R   0.424601 0.422201 0.072052 0.454655
C16   C     C_R   0.425670 0.421955 0.924041 -0.079339
C17   C     C_R   0.565200 0.588172 0.926605 0.116828
C18   C     C_3   0.700294 0.615991 0.914415 -0.494463
C19   C     C_3   0.708007 0.601719 0.071656 0.629160
C20   C     C_R   0.502376 0.737556 0.500056 0.788585
C21   C     C_R   0.736879 0.499401 0.500231 0.894301
C22   C     C_R   0.063261 0.595604 0.538072 0.048101
C23   C     C_R   0.130375 0.492501 0.500420 -0.209485
C24   C     C_R   0.064326 0.382498 0.466958 0.344735
C25   C     C_R   0.932627 0.383161 0.465746 0.349680
C26   C     C_R   0.869243 0.493039 0.501031 -0.187367
Cu1   Cu    Cu3+1 0.499990 0.499980 0.640670 0.976620
Cu2   Cu    Cu3+1 0.500010 0.500020 0.359330 1.081509
H1    H     H_    0.474655 0.889942 0.840322 0.212526
H2    H     H_    0.336973 0.109978 0.718251 0.225186
H3    H     H_    0.473783 0.111531 0.840097 0.218706
H4    H     H_    0.752226 0.544260 0.856291 0.237532
H5    H     H_    0.889341 0.785241 0.491956 0.241430
H6    H     H_    0.115019 0.785288 0.490986 0.218314
H7    H     H_    0.337697 0.887639 0.718617 0.202958
N1    N     N_R   0.500790 0.500930 0.147930 -0.220652
N2    N     N_R   0.500790 0.500890 0.852020 -0.195224
O1    O     O_R   0.500000 0.319640 0.618810 -0.593724
O2    O     O_R   0.500010 0.319680 0.381230 -0.526187
O3    O     O_R   0.319650 0.499970 0.618810 -0.591049
O4    O     O_R   0.319660 0.500010 0.381230 -0.523162
O5    O     O_R   0.499990 0.680320 0.618770 -0.586033
O6    O     O_R   0.500000 0.680360 0.381190 -0.577708
O7    O     O_R   0.680340 0.499990 0.618770 -0.600663
O8    O     O_R   0.680350 0.500030 0.381190 -0.504097
Cl1   Cl    Cl    0.144811 0.243880 0.433937 -0.493378
Cl2   Cl    Cl    0.325163 0.315509 0.152786 -0.518258
H8    H     H_    0.367520 0.357061 0.867033 0.169657
H9    H     H_    0.716904 0.711982 0.877088 0.193071
Cl3   Cl    Cl    0.795218 0.467024 0.116529 -0.501590
Cl4   Cl    Cl    0.758853 0.738117 0.160853 -0.596450
Cl5   Cl    Cl    0.848359 0.247174 0.423541 -0.501637
H10   H     H_    0.890059 0.743124 0.682094 0.197751
H11   H     H_    0.116308 0.742865 0.681009 0.203022
H12   H     H_    0.537874 0.112384 0.275202 0.200987
H13   H     H_    0.537592 0.887209 0.275307 0.200583

loop_
_geom_bond_atom_site_label_1
_geom_bond_atom_site_label_2
_ccdc_geom_bond_type
C2    C22   A    
C20   O5    A    
C23   C24   A    
C12   O3    A    
C12   O4    A    
C15   Cl2   S    
C21   O7    A    
C4    C22   S    
C9    C10   A    
C16   N2    A    
C9    C20   S    
C5    C13   S    
Cu1   O5    S    
C7    H12   S    
Cu1   O3    S    
C21   C26   S    
Cu2   N1    S    
C24   Cl1   S    
C8    H13   S    
C11   H7    S    
C17   C18   S    
C25   C26   A    
C25   Cl5   S    
C5    C10   A    
C2    C26   A    
C17   N2    A    
C3    H10   S    
C19   Cl3   S    
C16   H8    S    
C6    C7    A    
C1    O1    A    
Cu1   N2    S    
C14   C19   S    
C2    C3    S    
C21   O8    A    
C14   N1    A    
C5    C6    A    
C4    H6    S    
Cu2   O8    S    
C18   H4    S    
C10   C11   S    
C1    O2    A    
Cu1   O1    S    
C15   C16   A    
C19   Cl4   S    
Cu2   O4    S    
C11   C13   S    
C20   O6    A    
C24   C25   A    
C11   H1    S    
C7    C8    A    
Cu1   Cu2   S    
C3    H5    S    
C22   C23   A    
C18   C19   S    
C12   C23   S    
Cu2   O6    S    
Cu2   O2    S    
C4    H11   S    
C15   N1    A    
C13   H2    S    
Cu1   O7    S    
C13   H3    S    
C3    C4    S    
C18   H9    S    
C8    C9    A    
C14   C17   A    
C1    C6    S    
