data_mof_unit_10225.cif
_audit_creation_date              2012-12-10T17:04:32-0500
_audit_creation_method            fapswitch 2.2
_symmetry_space_group_name_H-M    P1
_symmetry_Int_Tables_number       1
_space_group_crystal_system       triclinic
_cell_length_a                    14.904248
_cell_length_b                    10.632677
_cell_length_c                    10.085617
_cell_angle_alpha                 91.613949
_cell_angle_beta                  87.843004
_cell_angle_gamma                 91.247464
_cell_volume                      1596.17917712

loop_
_atom_site_label
_atom_site_type_symbol
_atom_type_description
_atom_site_fract_x
_atom_site_fract_y
_atom_site_fract_z
_atom_type_partial_charge
C1    C     C_R   0.500067 0.262614 0.497683 0.840012
C2    C     C_R   0.182226 0.392111 0.539059 -0.199406
C3    C     C_R   0.232147 0.499973 0.508301 -0.053003
C4    C     C_R   0.327265 0.496621 0.502299 0.857589
C5    C     C_R   0.191876 0.612674 0.483471 -0.183880
C6    C     C_2   0.447672 0.929407 0.408790 -0.474162
C7    C     C_2   0.469332 0.866100 0.514618 0.507429
C8    C     C_2   0.438439 0.066007 0.420768 0.382560
C9    C     C_2   0.501812 0.129702 0.488608 0.467884
C10   C     C_2   0.508669 0.599608 0.928842 -0.032240
C11   C     C_2   0.486974 0.597530 0.075200 0.715229
C12   C     C_R   0.912075 0.622631 0.459381 -0.124359
C13   C     C_R   0.493019 0.736887 0.502905 0.821240
C14   C     C_R   0.672869 0.508172 0.497511 0.929523
C15   C     C_R   0.817679 0.619378 0.448697 0.467301
C16   C     C_R   0.768885 0.511628 0.490793 -0.207436
C17   C     C_R   0.810707 0.404176 0.528872 -0.268968
C18   C     C_R   0.903023 0.401409 0.530206 0.034812
C19   C     C_R   0.954018 0.511044 0.498321 -0.149233
C20   C     C_3   0.766985 0.720463 0.270163 0.151826
C21   C     C_3   0.741786 0.850013 0.221422 -0.370723
C22   C     C_3   0.645544 0.882722 0.260134 -0.730272
C23   C     C_R   0.944991 0.291260 0.565944 0.611150
C24   C     C_3   0.311378 0.059692 0.285602 0.080056
C25   C     C_3   0.350642 0.053343 0.142730 -0.300442
C26   C     C_3   0.294183 0.966918 0.054158 -0.890871
C27   C     C_3   0.622096 0.379668 0.123989 0.163419
C28   C     C_3   0.671149 0.295822 0.020608 -0.338981
C29   C     C_3   0.765618 0.266793 0.063131 -0.957772
C30   C     C_3   0.091371 0.899412 0.600480 0.121342
C31   C     C_3   0.167072 0.993636 0.632086 -0.428127
C32   C     C_3   0.253952 0.928712 0.661197 -0.703982
C33   C     C_3   0.968638 0.897946 0.288400 0.102085
C34   C     C_R   0.037717 0.288490 0.568546 -0.335385
C35   C     C_3   0.972887 0.041242 0.306493 -0.272712
C36   C     C_3   0.008612 0.104760 0.180891 -0.993687
C37   C     C_R   0.089217 0.395456 0.537831 0.083356
C38   C     C_R   0.047290 0.508171 0.505601 0.011854
C39   C     C_R   0.098998 0.618298 0.483911 -0.015849
C40   C     C_R   0.057613 0.732368 0.464257 0.301536
C41   C     C_R   0.965578 0.733346 0.436383 0.376906
F1    F     F_    0.464975 0.920250 0.638958 -0.632146
F2    F     F_    0.575749 0.074447 0.534776 -0.649104
F3    F     F_    0.440988 0.414588 0.895100 -0.522147
F4    F     F_    0.458412 0.706013 0.134732 -0.729063
F5    F     F_    0.896400 0.186079 0.597896 -0.675294
H1    H     H_    0.529699 0.688296 0.885773 0.114820
H2    H     H_    0.750611 0.851010 0.111523 0.170320
H3    H     H_    0.598837 0.813268 0.214436 0.274460
H4    H     H_    0.630616 0.977625 0.224396 0.233730
H5    H     H_    0.636131 0.883421 0.369695 0.307714
H6    H     H_    0.246153 0.108257 0.284451 0.168556
H7    H     H_    0.294461 0.965012 0.324920 0.162941
H8    H     H_    0.353131 0.149491 0.101982 0.261503
H9    H     H_    0.420375 0.018526 0.140718 0.236996
H10   H     H_    0.291657 0.869884 0.092433 0.286212
H11   H     H_    0.324757 0.963954 0.952059 0.288875
H12   H     H_    0.770376 0.322306 0.557274 0.224059
H13   H     H_    0.224855 0.002389 0.050075 0.244263
H14   H     H_    0.619938 0.330261 0.219128 0.192033
H15   H     H_    0.660486 0.470256 0.132626 0.090476
H16   H     H_    0.632631 0.205925 0.007055 0.253051
H17   H     H_    0.675753 0.343853 0.923990 0.243382
H18   H     H_    0.805722 0.355247 0.076477 0.261154
H19   H     H_    0.799757 0.206817 0.985604 0.292071
H20   H     H_    0.762408 0.215526 0.157766 0.265026
H21   H     H_    0.086267 0.829171 0.680965 0.130256
H22   H     H_    0.027253 0.951074 0.601434 0.178337
H23   H     H_    0.068943 0.203101 0.595888 0.151208
H24   H     H_    0.179730 0.056651 0.547020 0.227980
H25   H     H_    0.146400 0.051750 0.720911 0.188846
H26   H     H_    0.242994 0.862029 0.743351 0.241260
H27   H     H_    0.304777 0.000915 0.690906 0.280228
H28   H     H_    0.279915 0.877299 0.571275 0.256758
H29   H     H_    0.928693 0.872567 0.200810 0.112858
H30   H     H_    0.037363 0.864027 0.262452 0.154076
H31   H     H_    0.904778 0.076807 0.332928 0.251753
H32   H     H_    0.017699 0.066940 0.388845 0.240732
H33   H     H_    0.077496 0.072694 0.154057 0.264203
H34   H     H_    0.215845 0.305998 0.561023 0.145542
H35   H     H_    0.011025 0.208357 0.198377 0.277334
H36   H     H_    0.963922 0.082556 0.097309 0.272280
H37   H     H_    0.233536 0.694576 0.460705 0.165338
H38   H     H_    0.442269 0.882754 0.312459 0.207405
H39   H     H_    0.715658 0.650142 0.238480 0.127468
H40   H     H_    0.832125 0.694506 0.219800 0.070119
H41   H     H_    0.785969 0.924382 0.264316 0.259304
N1    N     N_2   0.500970 0.501330 0.852150 0.146514
N2    N     N_2   0.500990 0.501360 0.147810 0.042502
O1    O     O_R   0.499990 0.319060 0.613040 -0.550112
O2    O     O_3   0.368268 0.132621 0.368240 -0.670326
O3    O     O_3   0.534279 0.398379 0.083210 -0.536437
O4    O     O_3   0.107718 0.843385 0.473198 -0.645138
O5    O     O_3   0.926351 0.845177 0.403679 -0.579310
O6    O     O_R   0.500010 0.319100 0.386900 -0.626873
O7    O     O_R   0.367830 0.499950 0.613080 -0.587275
O8    O     O_R   0.367860 0.499990 0.386940 -0.583759
O9    O     O_R   0.499990 0.680900 0.613100 -0.590770
O10   O     O_R   0.500010 0.680940 0.386960 -0.618718
O11   O     O_R   0.632140 0.500010 0.613060 -0.614522
O12   O     O_R   0.632170 0.500050 0.386920 -0.680335
O13   O     O_3   0.772142 0.723970 0.410229 -0.570491
Zn1   Zn    Zn3+2 0.499980 0.499970 0.650990 1.086040
Zn2   Zn    Zn3+2 0.500020 0.500030 0.349010 1.016219

loop_
_geom_bond_atom_site_label_1
_geom_bond_atom_site_label_2
_ccdc_geom_bond_type
C24   H6    S    
C21   H41   S    
C1    O1    A    
C34   C37   A    
C35   C36   S    
C40   O4    S    
C33   O5    S    
C32   H26   S    
C10   N1    D    
C12   C41   A    
C21   C22   S    
C28   C29   S    
C30   O4    S    
C27   H14   S    
C32   H28   S    
C30   C31   S    
C5    H37   S    
C20   O13   S    
O9    Zn1   S    
C18   C19   A    
C7    F1    S    
C13   O9    A    
C27   H15   S    
C4    O7    A    
C33   H29   S    
C31   H24   S    
C31   C32   S    
C36   H36   S    
C8    C9    D    
C20   H40   S    
C26   H13   S    
C30   H21   S    
C17   H12   S    
C22   H4    S    
C21   H2    S    
C31   H25   S    
O10   Zn2   S    
C29   H18   S    
C23   F5    S    
C4    O8    A    
C9    F2    S    
C6    H38   S    
C18   C23   A    
C1    C9    S    
C25   H8    S    
C39   C40   A    
C16   C17   A    
C14   O12   A    
C6    C8    S    
C24   H7    S    
C35   H31   S    
O11   Zn1   S    
C13   O10   A    
C37   C38   A    
C19   C38   A    
C11   N2    D    
C33   H30   S    
C41   O5    S    
C12   C15   A    
C36   H35   S    
C1    O6    A    
C23   C34   A    
C20   H39   S    
C17   C18   A    
C27   O3    S    
C8    O2    S    
C24   C25   S    
N2    O3    S    
C34   H23   S    
C22   H3    S    
C29   H19   S    
C40   C41   A    
O12   Zn2   S    
C5    C39   A    
N2    Zn2   S    
C14   C16   S    
C11   F4    S    
C3    C4    S    
C24   O2    S    
C32   H27   S    
N1    Zn1   S    
O6    Zn2   S    
C25   H9    S    
C3    C5    A    
C36   H33   S    
C26   H10   S    
C14   O11   A    
C6    C7    D    
C35   H32   S    
C2    C3    A    
C25   C26   S    
C2    C37   A    
C38   C39   A    
C12   C19   A    
C33   C35   S    
C15   O13   S    
C26   H11   S    
O1    Zn1   S    
O8    Zn2   S    
C2    H34   S    
C10   C11   S    
C29   H20   S    
C28   H17   S    
C7    C13   S    
C20   C21   S    
O7    Zn1   S    
C27   C28   S    
F3    N1    S    
C10   H1    S    
C30   H22   S    
C15   C16   A    
C22   H5    S    
C28   H16   S    
