data_mof_unit_63251.cif
_audit_creation_date              2012-12-10T19:59:56-0500
_audit_creation_method            fapswitch 2.2
_symmetry_space_group_name_H-M    P1
_symmetry_Int_Tables_number       1
_space_group_crystal_system       triclinic
_cell_length_a                    18.377758
_cell_length_b                    18.382785
_cell_length_c                    36.192004
_cell_angle_alpha                 89.991914
_cell_angle_beta                  90.017229
_cell_angle_gamma                 90.087225
_cell_volume                      12226.8881764

loop_
_atom_site_label
_atom_site_type_symbol
_atom_type_description
_atom_site_fract_x
_atom_site_fract_y
_atom_site_fract_z
_atom_type_partial_charge
C1    C     C_R   0.499968 0.999918 0.901098 0.501534
C2    C     C_R   0.461816 0.944651 0.730589 0.230533
C3    C     C_R   0.271742 0.782443 0.536975 0.113666
C4    C     C_3   0.208074 0.733833 0.933673 -0.268593
C5    C     C_3   0.263917 0.205976 0.933747 -0.267203
C6    C     C_3   0.787462 0.271003 0.933592 -0.264919
C7    C     C_3   0.812998 0.871379 0.988053 -0.265026
C8    C     C_3   0.205650 0.264553 0.933884 -0.262658
C9    C     C_3   0.266695 0.792225 0.933816 -0.263385
C10   C     C_3   0.871418 0.812960 0.988052 -0.264478
C11   C     C_3   0.728976 0.212467 0.933596 -0.265452
C12   C     C_3   0.627995 0.313046 0.491993 -0.265042
C13   C     C_R   0.969114 0.442005 0.730716 0.231650
C14   C     C_3   0.686865 0.628399 0.488676 -0.269211
C15   C     C_3   0.287819 0.770661 0.433616 -0.264670
C16   C     C_3   0.297018 0.355311 0.458110 -0.261095
C17   C     C_3   0.628427 0.686809 0.488702 -0.265578
C18   C     C_3   0.686311 0.371755 0.491895 -0.270876
C19   C     C_3   0.355420 0.296953 0.458145 -0.262156
C20   C     C_3   0.229319 0.712139 0.433618 -0.264643
C21   C     C_R   0.970521 0.441844 0.769402 -0.108782
C22   C     C_R   0.536090 0.054146 0.769414 -0.108959
C23   C     C_R   0.032297 0.558538 0.769288 -0.106365
C24   C     C_R   0.537426 0.053875 0.730723 0.231194
C25   C     C_R   0.462788 0.944327 0.769299 -0.106413
C26   C     C_R   0.469941 0.941202 0.269292 -0.106185
C27   C     C_R   0.036387 0.554972 0.269325 -0.107263
C28   C     C_R   0.529939 0.058850 0.269292 -0.105834
C29   C     C_R   0.963716 0.444705 0.269298 -0.105731
C30   C     C_R   0.001485 0.500189 0.788638 -0.054783
C31   C     C_R   0.499374 0.999241 0.788647 -0.053721
C32   C     C_R   0.499925 0.000034 0.288591 -0.054899
C33   C     C_R   0.000006 0.499857 0.288609 -0.053711
C34   C     C_3   0.367093 0.893306 0.204462 0.006754
C35   C     C_R   0.499963 0.000012 0.211229 0.038122
C36   C     C_3   0.340194 0.834414 0.177918 -0.248220
C37   C     C_3   0.260428 0.845659 0.167687 -0.488058
C38   C     C_3   0.145001 0.591636 0.205930 0.009740
C39   C     C_3   0.179921 0.647936 0.180371 -0.252146
C40   C     C_3   0.259221 0.629368 0.172213 -0.488124
C41   C     C_3   0.633048 0.106446 0.204581 0.006685
C42   C     C_3   0.660227 0.165178 0.178018 -0.248346
C43   C     C_3   0.740006 0.153651 0.167914 -0.486314
C44   C     C_3   0.855699 0.407829 0.205383 0.006460
C45   C     C_3   0.821518 0.351627 0.179506 -0.248554
C46   C     C_R   0.000124 0.499843 0.211244 0.039670
C47   C     C_3   0.742424 0.370146 0.170795 -0.479927
C48   C     C_3   0.864780 0.395410 0.706927 0.008724
C49   C     C_3   0.834071 0.335945 0.681864 -0.250958
C50   C     C_3   0.753172 0.347422 0.674386 -0.491538
C51   C     C_3   0.646224 0.090434 0.707634 0.008830
C52   C     C_3   0.683488 0.147752 0.683597 -0.252226
C53   C     C_3   0.763501 0.129536 0.677246 -0.486982
C54   C     C_3   0.135250 0.605246 0.704256 0.006067
C55   C     C_3   0.162781 0.664319 0.677980 -0.248341
C56   C     C_3   0.242348 0.652273 0.667613 -0.486841
C57   C     C_R   0.001032 0.500134 0.711271 0.038827
C58   C     C_3   0.355068 0.907939 0.704972 0.006076
C59   C     C_3   0.320646 0.850992 0.679597 -0.248783
C60   C     C_3   0.241924 0.870013 0.670323 -0.480069
C61   C     C_R   0.499687 0.999342 0.711278 0.040126
C62   C     C_1   0.001155 0.500260 0.828311 -0.053932
C63   C     C_1   0.499533 0.999261 0.828316 -0.053778
C64   C     C_1   0.499940 0.000026 0.328279 -0.051959
C65   C     C_R   0.000096 0.500021 0.901099 0.501223
C66   C     C_1   0.999970 0.499884 0.328290 -0.051644
C67   C     C_1   0.499982 0.000001 0.171506 0.008986
C68   C     C_1   0.000123 0.499883 0.171522 0.010693
C69   C     C_1   0.000506 0.500117 0.671540 0.010533
C70   C     C_1   0.499953 0.999471 0.671548 0.010817
C71   C     C_1   0.499988 0.999995 0.138304 0.011329
C72   C     C_1   0.000069 0.499925 0.138317 0.012890
C73   C     C_1   0.000207 0.500046 0.638329 0.012328
C74   C     C_1   0.500027 0.999683 0.638336 0.012418
C75   C     C_1   0.000664 0.500130 0.861563 0.002632
C76   C     C_R   0.999990 0.499993 0.401092 0.504936
C77   C     C_1   0.499802 0.999535 0.861566 0.002586
C78   C     C_1   0.499962 0.000016 0.361540 0.005445
C79   C     C_1   0.999970 0.499934 0.361547 0.005693
C80   C     C_R   0.499993 0.999997 0.098853 0.494221
C81   C     C_R   0.000016 0.499975 0.098859 0.498944
C82   C     C_R   0.999999 0.500005 0.598862 0.490800
C83   C     C_R   0.500011 0.999940 0.598866 0.497858
C84   C     C_R   0.639526 0.859145 0.999587 0.530249
C85   C     C_R   0.139508 0.640785 0.000503 0.526494
C86   C     C_R   0.359252 0.139575 0.000452 0.526760
C87   C     C_R   0.499990 0.000005 0.401092 0.503760
C88   C     C_R   0.860583 0.359113 0.000648 0.502069
C89   C     C_R   0.640909 0.139392 0.000657 0.498054
C90   C     C_R   0.139559 0.359154 0.000629 0.503268
C91   C     C_R   0.359077 0.860557 0.000685 0.506636
C92   C     C_R   0.859145 0.639528 0.999586 0.531966
C93   C     C_R   0.139322 0.359113 0.499607 0.533119
C94   C     C_R   0.641031 0.139338 0.499532 0.505132
C95   C     C_R   0.860462 0.640843 0.499585 0.529583
C96   C     C_R   0.360589 0.859108 0.500653 0.500444
C97   C     C_R   0.140905 0.639399 0.500656 0.501700
C98   C     C_R   0.531124 0.058694 0.230600 0.231993
C99   C     C_R   0.640842 0.860459 0.499598 0.529737
C100  C     C_R   0.860449 0.359267 0.499591 0.524493
C101  C     C_R   0.359116 0.139333 0.499618 0.533392
C102  C     C_R   0.251440 0.801571 0.974064 0.000032
C103  C     C_R   0.197638 0.250672 0.974337 0.000935
C104  C     C_R   0.746730 0.200378 0.973388 -0.001374
C105  C     C_R   0.812063 0.759214 0.980882 -0.010714
C106  C     C_R   0.250351 0.197667 0.974200 -0.010339
C107  C     C_R   0.198436 0.748779 0.973923 -0.012397
C108  C     C_R   0.759216 0.812061 0.980883 -0.010504
C109  C     C_R   0.962658 0.444966 0.230598 0.230926
C110  C     C_R   0.799606 0.253294 0.973384 -0.000038
C111  C     C_R   0.739473 0.313285 0.482454 -0.007842
C112  C     C_R   0.687652 0.740514 0.481170 -0.008871
C113  C     C_R   0.246875 0.700236 0.473447 -0.003013
C114  C     C_R   0.318899 0.265972 0.491489 -0.023368
C115  C     C_R   0.740510 0.687677 0.481153 -0.008082
C116  C     C_R   0.686762 0.260181 0.482546 0.002682
C117  C     C_R   0.265986 0.318876 0.491471 -0.023113
C118  C     C_R   0.299760 0.753141 0.473446 -0.003016
C119  C     C_R   0.299196 0.808915 0.003740 0.017698
C120  C     C_R   0.468805 0.941330 0.230600 0.231829
C121  C     C_R   0.191378 0.299444 0.003643 0.016001
C122  C     C_R   0.700879 0.190839 0.003640 0.004086
C123  C     C_R   0.799349 0.691187 0.996596 0.046475
C124  C     C_R   0.299316 0.190946 0.003380 0.037099
C125  C     C_R   0.190758 0.700845 0.003463 0.037582
C126  C     C_R   0.691181 0.799354 0.996597 0.046731
C127  C     C_R   0.809109 0.299172 0.003629 0.005043
C128  C     C_R   0.808692 0.299711 0.496497 0.037132
C129  C     C_R   0.700573 0.808734 0.496632 0.046877
C130  C     C_R   0.200877 0.690842 0.503653 0.004687
C131  C     C_R   0.037578 0.554686 0.230627 0.231283
C132  C     C_R   0.302195 0.194071 0.500267 0.047346
C133  C     C_R   0.808752 0.700585 0.496606 0.046709
C134  C     C_R   0.700830 0.191085 0.496668 0.015415
C135  C     C_R   0.194050 0.302191 0.500233 0.046734
C136  C     C_R   0.309128 0.799157 0.503648 0.004377
C137  C     C_R   0.284437 0.769072 0.036625 0.071315
C138  C     C_R   0.232579 0.285930 0.036227 0.068795
C139  C     C_R   0.717749 0.228077 0.036989 0.113422
C140  C     C_R   0.727418 0.672924 0.007214 0.073300
C141  C     C_R   0.286556 0.231380 0.035979 0.108835
C142  C     C_R   0.033224 0.558354 0.730582 0.231156
C143  C     C_R   0.229869 0.714933 0.036364 0.112322
C144  C     C_R   0.672902 0.727439 0.007214 0.073665
C145  C     C_R   0.771874 0.282312 0.036979 0.114155
C146  C     C_R   0.827970 0.227267 0.505212 0.108387
C147  C     C_R   0.772630 0.827134 0.506969 0.073275
C148  C     C_R   0.217602 0.728226 0.536980 0.113576
C149  C     C_R   0.230870 0.176623 0.512196 0.074439
C150  C     C_R   0.827153 0.772617 0.506967 0.073950
C151  C     C_R   0.774009 0.172585 0.505388 0.064830
C152  C     C_R   0.176563 0.230896 0.512158 0.074296
H1    H     H_    0.229461 0.678317 0.928165 0.131220
H2    H     H_    0.682001 0.589938 0.465102 0.147873
H3    H     H_    0.738852 0.424432 0.157436 0.156347
H4    H     H_    0.854559 0.449175 0.693578 0.130896
H5    H     H_    0.836095 0.393352 0.734031 0.129660
H6    H     H_    0.863878 0.336260 0.655133 0.183157
H7    H     H_    0.842000 0.282035 0.695167 0.171504
H8    H     H_    0.721898 0.344771 0.700613 0.148295
H9    H     H_    0.732959 0.304274 0.655522 0.146155
H10   H     H_    0.744029 0.401071 0.661054 0.150017
H11   H     H_    0.651795 0.036477 0.693798 0.135981
H12   H     H_    0.673848 0.088699 0.735039 0.129406
H13   H     H_    0.266039 0.826450 0.429344 0.133967
H14   H     H_    0.655382 0.150931 0.656437 0.179036
H15   H     H_    0.679474 0.201693 0.697300 0.170774
H16   H     H_    0.793301 0.128720 0.703950 0.148444
H17   H     H_    0.788496 0.171342 0.659089 0.147124
H18   H     H_    0.768776 0.075687 0.663590 0.155116
H19   H     H_    0.143802 0.551294 0.690812 0.129432
H20   H     H_    0.167252 0.607575 0.730379 0.130863
H21   H     H_    0.129302 0.663955 0.652383 0.189307
H22   H     H_    0.157090 0.718443 0.691356 0.171820
H23   H     H_    0.277215 0.654350 0.692666 0.144066
H24   H     H_    0.260225 0.352332 0.433749 0.150585
H25   H     H_    0.260315 0.695464 0.648193 0.175453
H26   H     H_    0.249117 0.598713 0.653840 0.150301
H27   H     H_    0.351362 0.962026 0.691094 0.134591
H28   H     H_    0.324167 0.909635 0.731441 0.130493
H29   H     H_    0.352439 0.847578 0.653523 0.184344
H30   H     H_    0.322172 0.796945 0.693345 0.169915
H31   H     H_    0.208555 0.871705 0.695891 0.143381
H32   H     H_    0.218916 0.828167 0.651523 0.175094
H33   H     H_    0.239228 0.923645 0.656246 0.156417
H34   H     H_    0.589908 0.681981 0.465140 0.152038
H35   H     H_    0.679776 0.411682 0.469065 0.146781
H36   H     H_    0.352504 0.260144 0.433801 0.151003
H37   H     H_    0.173499 0.733874 0.429349 0.134754
H38   H     H_    0.159242 0.749230 0.917332 0.150831
H39   H     H_    0.247846 0.156614 0.917976 0.152264
H40   H     H_    0.835291 0.256899 0.916232 0.149995
H41   H     H_    0.319296 0.227199 0.927562 0.131802
H42   H     H_    0.805243 0.897584 0.015466 0.133016
H43   H     H_    0.156034 0.248916 0.918189 0.152185
H44   H     H_    0.251622 0.841243 0.917553 0.150502
H45   H     H_    0.897654 0.805174 0.015463 0.134933
H46   H     H_    0.743130 0.164654 0.916242 0.149520
H47   H     H_    0.604063 0.303079 0.519762 0.131216
H48   H     H_    0.695018 0.602477 0.516135 0.128482
H49   H     H_    0.335732 0.756461 0.416337 0.149185
H50   H     H_    0.318512 0.410455 0.464486 0.145997
H51   H     H_    0.602582 0.694882 0.516179 0.132302
H52   H     H_    0.765647 0.326807 0.929417 0.133472
H53   H     H_    0.696322 0.395940 0.519605 0.126727
H54   H     H_    0.410570 0.318451 0.464560 0.140747
H55   H     H_    0.243547 0.664239 0.416341 0.148460
H56   H     H_    0.947007 0.396429 0.784336 0.131167
H57   H     H_    0.564060 0.096964 0.784352 0.129420
H58   H     H_    0.055686 0.604112 0.784143 0.132758
H59   H     H_    0.434886 0.901361 0.784154 0.131265
H60   H     H_    0.447216 0.895338 0.284182 0.132961
H61   H     H_    0.064070 0.598019 0.284227 0.130926
H62   H     H_    0.552691 0.104701 0.284182 0.134539
H63   H     H_    0.817537 0.909567 0.964346 0.153370
H64   H     H_    0.936035 0.401635 0.284180 0.133304
H65   H     H_    0.322565 0.837160 0.076476 0.239844
H66   H     H_    0.377480 0.764503 0.066952 0.265086
H67   H     H_    0.166436 0.325739 0.076430 0.246278
H68   H     H_    0.238946 0.380143 0.065474 0.262422
H69   H     H_    0.682103 0.156859 0.075990 0.228130
H70   H     H_    0.626705 0.230109 0.068865 0.258700
H71   H     H_    0.669716 0.579461 0.001028 0.221143
H72   H     H_    0.690790 0.600850 0.045478 0.230667
H73   H     H_    0.355794 0.266382 0.075739 0.251157
H74   H     H_    0.227128 0.319855 0.927769 0.132612
H75   H     H_    0.293873 0.204016 0.090031 0.245836
H76   H     H_    0.263061 0.647479 0.077262 0.246845
H77   H     H_    0.200173 0.709796 0.090154 0.233371
H78   H     H_    0.579394 0.669784 0.001023 0.220873
H79   H     H_    0.600829 0.690801 0.045474 0.231459
H80   H     H_    0.842986 0.318275 0.075970 0.228313
H81   H     H_    0.769552 0.373412 0.068803 0.258700
H82   H     H_    0.920207 0.169963 0.495999 0.240883
H83   H     H_    0.902403 0.187209 0.541100 0.248132
H84   H     H_    0.830192 0.920558 0.500265 0.223022
H85   H     H_    0.322194 0.770687 0.928386 0.133830
H86   H     H_    0.809765 0.899749 0.544856 0.232668
H87   H     H_    0.181741 0.657218 0.576031 0.227978
H88   H     H_    0.126408 0.730466 0.568742 0.259827
H89   H     H_    0.172632 0.083743 0.504240 0.219329
H90   H     H_    0.192634 0.102653 0.549158 0.230313
H91   H     H_    0.920565 0.830210 0.500321 0.221629
H92   H     H_    0.899710 0.809681 0.544894 0.231915
H93   H     H_    0.772555 0.085879 0.540279 0.265158
H94   H     H_    0.776217 0.064171 0.494349 0.252763
H95   H     H_    0.083623 0.172748 0.504051 0.220776
H96   H     H_    0.909595 0.817510 0.964344 0.153319
H97   H     H_    0.102361 0.192589 0.549007 0.232284
H98   H     H_    0.342682 0.818563 0.576011 0.227722
H99   H     H_    0.269267 0.873667 0.568706 0.258960
H100  H     H_    0.357695 0.947401 0.191300 0.130258
H101  H     H_    0.335298 0.890028 0.230612 0.131316
H102  H     H_    0.373536 0.835719 0.152292 0.188295
H103  H     H_    0.346649 0.780112 0.191021 0.172358
H104  H     H_    0.225717 0.842615 0.192761 0.146397
H105  H     H_    0.242917 0.802664 0.148054 0.157017
H106  H     H_    0.252906 0.899412 0.154203 0.151817
H107  H     H_    0.673130 0.234209 0.929423 0.132241
H108  H     H_    0.149647 0.537104 0.192584 0.135982
H109  H     H_    0.174930 0.591122 0.232707 0.130240
H110  H     H_    0.149226 0.649958 0.153915 0.183844
H111  H     H_    0.177249 0.702493 0.193528 0.170139
H112  H     H_    0.291471 0.629080 0.198174 0.148609
H113  H     H_    0.282644 0.670659 0.153236 0.152226
H114  H     H_    0.263077 0.575206 0.158755 0.158336
H115  H     H_    0.642393 0.052286 0.191489 0.129391
H116  H     H_    0.664724 0.109740 0.230778 0.132731
H117  H     H_    0.626993 0.163883 0.152346 0.189503
H118  H     H_    0.587859 0.319153 0.469220 0.145844
H119  H     H_    0.653887 0.219549 0.191054 0.172521
H120  H     H_    0.774614 0.156654 0.193036 0.145211
H121  H     H_    0.757753 0.196528 0.148268 0.176304
H122  H     H_    0.747414 0.099836 0.154487 0.150243
H123  H     H_    0.851299 0.462426 0.192077 0.134365
H124  H     H_    0.825105 0.408168 0.231956 0.132506
H125  H     H_    0.852909 0.349767 0.153265 0.184208
H126  H     H_    0.823901 0.297004 0.192616 0.171075
H127  H     H_    0.709452 0.370135 0.196512 0.144475
H128  H     H_    0.719610 0.328999 0.151544 0.174997
N1    N     N_3   0.323717 0.781607 0.070316 -0.653347
N2    N     N_3   0.789834 0.900277 0.517815 -0.604809
N3    N     N_3   0.180349 0.713206 0.570991 -0.599451
N4    N     N_3   0.212795 0.103144 0.522164 -0.597137
N5    N     N_3   0.900299 0.789804 0.517847 -0.596221
N6    N     N_3   0.795148 0.099748 0.514746 -0.642056
N7    N     N_3   0.103006 0.212819 0.522025 -0.585386
N8    N     N_3   0.286676 0.819786 0.570972 -0.599218
N9    N     N_3   0.221711 0.326584 0.069614 -0.637410
N10   N     N_3   0.680667 0.212873 0.071026 -0.599249
N11   N     N_3   0.710336 0.599936 0.018371 -0.597448
N12   N     N_3   0.329140 0.218140 0.068523 -0.579562
N13   N     N_3   0.215156 0.673670 0.069192 -0.589214
N14   N     N_3   0.599899 0.710370 0.018369 -0.597032
N15   N     N_3   0.786957 0.319520 0.070998 -0.598995
N16   N     N_3   0.901744 0.209483 0.514518 -0.574321
O1    O     O_3   0.500000 0.000000 0.000000 -0.441050
O2    O     O_R   0.500000 0.939300 0.418540 -0.537944
O3    O     O_R   0.060700 0.500000 0.418540 -0.540895
O4    O     O_R   0.500000 0.060700 0.418540 -0.538435
O5    O     O_R   0.500000 0.939270 0.081460 -0.541896
O6    O     O_R   0.060730 0.500000 0.081460 -0.536202
O7    O     O_R   0.500000 0.060730 0.081460 -0.534122
O8    O     O_R   0.939270 0.500000 0.081460 -0.544618
O9    O     O_R   1.000000 0.439270 0.581460 -0.537691
O10   O     O_R   0.560730 1.000000 0.581460 -0.540019
O11   O     O_R   1.000000 0.560730 0.581460 -0.543082
O12   O     O_3   0.000000 0.500000 0.000000 -0.440440
O13   O     O_R   0.439270 1.000000 0.581460 -0.543949
O14   O     O_R   0.646180 0.914510 0.978640 -0.549463
O15   O     O_R   0.085490 0.646180 0.978640 -0.550162
O16   O     O_R   0.353820 0.085490 0.978640 -0.548158
O17   O     O_R   0.914510 0.353820 0.978640 -0.536806
O18   O     O_R   0.646180 0.085490 0.978640 -0.539323
O19   O     O_R   0.085490 0.353820 0.978640 -0.537910
O20   O     O_R   0.353820 0.914510 0.978640 -0.538242
O21   O     O_R   0.914510 0.646180 0.978640 -0.548635
O22   O     O_R   0.146180 0.414510 0.478640 -0.556402
O23   O     O_3   0.000000 0.500000 0.500000 -0.445615
O24   O     O_R   0.585490 0.146180 0.478640 -0.538529
O25   O     O_R   0.853820 0.585490 0.478640 -0.551254
O26   O     O_R   0.414510 0.853820 0.478640 -0.539782
O27   O     O_R   0.146180 0.585490 0.478640 -0.539446
O28   O     O_R   0.585490 0.853820 0.478640 -0.549087
O29   O     O_R   0.853820 0.414510 0.478640 -0.550470
O30   O     O_R   0.414510 0.146180 0.478640 -0.556250
O31   O     O_R   0.414550 0.146120 0.021350 -0.507601
O32   O     O_R   0.853880 0.414550 0.021350 -0.550771
O33   O     O_R   0.585450 0.853880 0.021350 -0.504163
O34   O     O_3   0.500000 0.000000 0.500000 -0.440355
O35   O     O_R   0.146120 0.585450 0.021350 -0.509379
O36   O     O_R   0.414550 0.853880 0.021350 -0.548012
O37   O     O_R   0.853880 0.585450 0.021350 -0.503751
O38   O     O_R   0.585450 0.146120 0.021350 -0.557101
O39   O     O_R   0.146120 0.414550 0.021350 -0.556722
O40   O     O_R   0.914550 0.646120 0.521350 -0.503950
O41   O     O_R   0.353880 0.914550 0.521350 -0.550990
O42   O     O_R   0.085450 0.353880 0.521350 -0.496798
O43   O     O_R   0.646120 0.085450 0.521350 -0.551190
O44   O     O_R   0.914550 0.353880 0.521350 -0.505521
O45   O     O_R   0.439300 0.000000 0.918540 -0.541665
O46   O     O_R   0.353880 0.085450 0.521350 -0.501492
O47   O     O_R   0.085450 0.646120 0.521350 -0.549647
O48   O     O_R   0.646120 0.914550 0.521350 -0.508271
O49   O     O_3   0.441654 0.881702 0.211806 -0.565273
O50   O     O_3   0.071507 0.610690 0.211802 -0.567608
O51   O     O_3   0.558473 0.118227 0.211799 -0.564498
O52   O     O_3   0.929044 0.388788 0.211757 -0.568424
O53   O     O_3   0.939986 0.383325 0.711942 -0.565146
O54   O     O_3   0.572285 0.109336 0.711939 -0.568538
O55   O     O_3   0.060894 0.617682 0.711739 -0.565344
O56   O     O_R   1.000000 0.439300 0.918540 -0.541084
O57   O     O_3   0.428171 0.888512 0.711730 -0.568924
O58   O     O_R   0.560700 0.000000 0.918540 -0.537557
O59   O     O_R   0.000000 0.560700 0.918540 -0.538447
O60   O     O_R   0.939300 0.500000 0.418540 -0.534493
Zn1   Zn    Zn3+2 0.500000 0.913220 0.030510 0.940588
Zn2   Zn    Zn3+2 0.000000 0.586770 0.969480 0.934509
Zn3   Zn    Zn3+2 0.413230 0.000000 0.969480 0.933558
Zn4   Zn    Zn3+2 0.000000 0.413230 0.969480 0.932293
Zn5   Zn    Zn3+2 0.086770 0.500000 0.469480 0.929717
Zn6   Zn    Zn3+2 0.500000 0.086770 0.469480 0.931944
Zn7   Zn    Zn3+2 0.913230 0.500000 0.469480 0.934727
Zn8   Zn    Zn3+2 0.500000 0.913230 0.469480 0.933096
Zn9   Zn    Zn3+2 0.086780 0.500000 0.030510 0.936011
Zn10  Zn    Zn3+2 0.500000 0.086780 0.030510 0.937147
Zn11  Zn    Zn3+2 0.913220 0.500000 0.030510 0.940230
Zn12  Zn    Zn3+2 0.000000 0.413220 0.530510 0.961975
Zn13  Zn    Zn3+2 0.586780 1.000000 0.530510 0.936831
Zn14  Zn    Zn3+2 0.000000 0.586780 0.530510 0.937208
Zn15  Zn    Zn3+2 0.413220 1.000000 0.530510 0.938631
Zn16  Zn    Zn3+2 0.586770 0.000000 0.969480 0.931437

loop_
_geom_bond_atom_site_label_1
_geom_bond_atom_site_label_2
_ccdc_geom_bond_type
C82   O11   A    
C60   H32   S    
C24   C61   A    
C1    C77   S    
C76   C79   S    
C74   C83   S    
C97   O27   A    
C94   O43   A    
C95   O25   A    
O22   Zn5   S    
C98   O51   S    
C44   C45   S    
H66   N1    S    
C66   C79   T    
O12   Zn2   S    
C54   O55   S    
C34   H101  S    
C29   C109  A    
C41   O51   S    
C37   H105  S    
C122  C139  A    
C29   C33   A    
C95   C133  S    
C105  C123  A    
C93   O42   A    
O37   Zn11  S    
C55   H21   S    
O47   Zn14  S    
O23   Zn14  S    
C99   O28   A    
C144  N14   S    
H88   N3    S    
C84   O33   A    
C70   C74   T    
C150  N5    S    
C112  C129  A    
C40   H113  S    
C4    H1    S    
C59   C60   S    
C131  O50   S    
C16   H50   S    
H90   N4    S    
C47   H127  S    
C80   O5    A    
C45   C47   S    
C84   C126  S    
C15   C20   S    
C4    C107  S    
C36   H103  S    
C99   C129  S    
C51   C52   S    
C28   C32   A    
C147  C150  A    
C18   C111  S    
O30   Zn6   S    
C92   C123  S    
C6    C11   S    
C8    H74   S    
C50   H8    S    
O1    Zn3   S    
C11   H107  S    
C59   H30   S    
H86   N2    S    
C54   H20   S    
C19   H36   S    
O34   Zn6   S    
O58   Zn16  S    
C17   H34   S    
C68   C72   T    
H73   N12   S    
O41   Zn15  S    
C13   C21   A    
C51   H12   S    
C107  C125  A    
O5    Zn1   S    
C53   H18   S    
C127  C145  A    
C82   O9    A    
C44   H124  S    
O40   Zn14  S    
C45   H125  S    
O1    Zn10  S    
C94   O24   A    
C62   C75   T    
C41   H115  S    
O19   Zn4   S    
O1    Zn16  S    
O23   Zn7   S    
C103  C121  A    
C95   O40   A    
C118  C136  A    
C48   H5    S    
O12   Zn4   S    
C138  C141  A    
C38   H108  S    
C5    C8    S    
O4    Zn6   S    
O7    Zn10  S    
C15   C118  S    
C101  O46   A    
O10   Zn13  S    
C140  N11   S    
C104  C110  A    
C58   O57   S    
O12   Zn9   S    
C134  C151  A    
C88   O17   A    
C1    O45   A    
C129  C147  A    
C48   O53   S    
C101  C132  S    
C142  O55   S    
O8    Zn11  S    
C106  C124  A    
H68   N9    S    
C26   H60   S    
C108  C126  A    
C102  C119  A    
C80   O7    A    
C13   O53   S    
C120  O49   S    
C78   C87   S    
C25   C31   A    
C26   C32   A    
C24   O54   S    
C50   H10   S    
C43   H122  S    
C56   H26   S    
C27   C33   A    
C57   C142  A    
C36   C37   S    
C26   C120  A    
C138  N9    S    
C20   C113  S    
C104  C122  A    
C89   C122  S    
C135  C152  A    
C18   H35   S    
O23   Zn12  S    
C8    H43   S    
C25   H59   S    
C3    C136  A    
O3    Zn5   S    
C17   H51   S    
O14   Zn16  S    
O23   Zn5   S    
O33   Zn1   S    
C14   H2    S    
C14   C17   S    
C35   C120  A    
C15   H49   S    
C33   C66   S    
O35   Zn9   S    
C113  C130  A    
O39   Zn9   S    
C51   O54   S    
C31   C63   S    
H84   N2    S    
C5    H39   S    
C39   C40   S    
C147  N2    S    
C143  N13   S    
O12   Zn11  S    
C36   H102  S    
C46   C68   S    
C53   H16   S    
C35   C67   S    
C37   H104  S    
C100  O29   A    
C96   O26   A    
C102  C107  A    
O38   Zn10  S    
C7    H42   S    
C69   C73   T    
C83   O13   A    
C11   C104  S    
O56   Zn4   S    
C86   C124  S    
C90   C121  S    
C91   C119  S    
C124  C141  A    
H94   N6    S    
C90   O39   A    
O20   Zn3   S    
C10   H45   S    
C52   C53   S    
O42   Zn12  S    
O36   Zn1   S    
O17   Zn4   S    
C101  O30   A    
O60   Zn7   S    
C100  C128  S    
C64   C78   T    
C100  O44   A    
C133  C150  A    
O16   Zn3   S    
C93   C135  S    
C76   O3    A    
C58   H28   S    
C91   O20   A    
O24   Zn6   S    
C23   H58   S    
H70   N10   S    
C89   O38   A    
C44   O52   S    
O21   Zn2   S    
C11   H46   S    
H80   N15   S    
C9    H85   S    
C128  C146  A    
C125  C143  A    
C126  C144  A    
C34   C36   S    
C114  C117  A    
C146  C151  A    
C49   C50   S    
C111  C128  A    
C15   H13   S    
O28   Zn8   S    
C20   H55   S    
C4    C9    S    
O2    Zn8   S    
C12   C116  S    
C40   H114  S    
C61   C70   S    
C7    C10   S    
C55   C56   S    
C151  N6    S    
C60   H33   S    
C148  N3    S    
C41   C42   S    
C88   O32   A    
C96   C136  S    
O44   Zn12  S    
C18   H53   S    
C87   O4    A    
C21   H56   S    
C12   H118  S    
C97   C130  S    
C88   C127  S    
C52   H15   S    
C116  C134  A    
C14   C115  S    
C97   O47   A    
O48   Zn13  S    
C59   H29   S    
H83   N16   S    
C54   C55   S    
C9    C102  S    
C19   H54   S    
C51   H11   S    
C111  C116  A    
C76   O60   A    
C35   C98   A    
C72   C81   S    
O45   Zn3   S    
C2    C61   A    
C53   H17   S    
C16   H24   S    
C60   H31   S    
C48   H4    S    
C137  N1    S    
C93   O22   A    
C132  C149  A    
C3    N8    S    
C5    C106  S    
C152  N7    S    
C81   O8    A    
C37   H106  S    
H79   N14   S    
C38   H109  S    
O27   Zn5   S    
C115  C133  A    
C19   C114  S    
C58   C59   S    
C14   H48   S    
H76   N13   S    
C32   C64   S    
C55   H22   S    
C6    H52   S    
C4    H38   S    
C43   H120  S    
H91   N5    S    
C48   C49   S    
C30   C62   S    
C145  N15   S    
C22   C24   A    
C42   C43   S    
H89   N4    S    
C73   C82   S    
C20   H37   S    
C47   H128  S    
C141  N12   S    
C5    H41   S    
C28   C98   A    
C146  N16   S    
H93   N6    S    
C87   O2    A    
C65   O56   A    
H67   N9    S    
C140  C144  A    
C39   H110  S    
C43   H121  S    
C21   C30   A    
C83   O10   A    
C16   C117  S    
C38   C39   S    
C16   C19   S    
O34   Zn15  S    
C2    C25   A    
C67   C71   T    
C8    C103  S    
C44   H123  S    
C13   C57   A    
C92   O21   A    
C65   O59   A    
C45   H126  S    
C46   C109  A    
C6    H40   S    
C27   H61   S    
C41   H116  S    
C96   O41   A    
O25   Zn7   S    
C139  N10   S    
C7    H63   S    
O13   Zn15  S    
O31   Zn10  S    
H71   N11   S    
C27   C131  A    
O43   Zn13  S    
C85   C125  S    
C91   O36   A    
C86   O31   A    
C81   O6    A    
C84   O14   A    
O29   Zn7   S    
C9    H44   S    
C85   O15   A    
C109  O52   S    
C86   O16   A    
O15   Zn2   S    
C22   H57   S    
C42   H119  S    
C52   H14   S    
C12   H47   S    
C1    O58   A    
C23   C142  A    
C58   H27   S    
C89   O18   A    
C38   O50   S    
C110  C127  A    
C137  C143  A    
O32   Zn11  S    
C3    C148  A    
C50   H9    S    
O18   Zn16  S    
C6    C110  S    
C71   C80   S    
C56   H25   S    
C28   H62   S    
C105  C108  A    
O11   Zn14  S    
C22   C31   A    
C56   H23   S    
C130  C148  A    
H75   N12   S    
C119  C137  A    
C23   C30   A    
H95   N7    S    
C99   O48   A    
C149  C152  A    
C46   C131  A    
C29   H64   S    
C92   O37   A    
O34   Zn13  S    
H87   N3    S    
C123  C140  A    
H81   N15   S    
O46   Zn15  S    
H82   N16   S    
C121  C138  A    
H65   N1    S    
H77   N13   S    
O9    Zn12  S    
H97   N7    S    
C49   H6    S    
C10   H96   S    
C85   O35   A    
C17   C112  S    
C63   C77   T    
C139  C145  A    
C114  C132  A    
C54   H19   S    
C49   H7    S    
C2    O57   S    
O26   Zn8   S    
C65   C75   S    
H72   N11   S    
C42   H117  S    
H78   N14   S    
C39   H111  S    
C40   H112  S    
C47   H3    S    
H69   N10   S    
C94   C134  S    
C149  N4    S    
O1    Zn1   S    
C103  C106  A    
C34   O49   S    
C90   O19   A    
O34   Zn8   S    
C113  C118  A    
H92   N5    S    
O59   Zn2   S    
H99   N8    S    
O6    Zn9   S    
C12   C18   S    
H98   N8    S    
C7    C108  S    
C10   C105  S    
C34   H100  S    
C57   C69   S    
C112  C115  A    
C117  C135  A    
