data_mof_unit_61744.cif
_audit_creation_date              2012-12-10T19:45:07-0500
_audit_creation_method            fapswitch 2.2
_symmetry_space_group_name_H-M    P1
_symmetry_Int_Tables_number       1
_space_group_crystal_system       triclinic
_cell_length_a                    18.640367
_cell_length_b                    18.68633
_cell_length_c                    18.666806
_cell_angle_alpha                 109.250234
_cell_angle_beta                  109.196249
_cell_angle_gamma                 109.112282
_cell_volume                      5057.37285228

loop_
_atom_site_label
_atom_site_type_symbol
_atom_type_description
_atom_site_fract_x
_atom_site_fract_y
_atom_site_fract_z
_atom_type_partial_charge
C1    C     C_R   0.120610 0.000094 0.619686 0.877002
C2    C     C_R   0.965671 0.978380 0.165983 -0.121513
C3    C     C_R   0.246023 0.244228 0.421769 -0.247438
C4    C     C_R   0.314252 0.315061 0.501910 -0.072658
C5    C     C_R   0.318328 0.322058 0.580673 -0.001553
C6    C     C_R   0.253292 0.256200 0.577486 -0.242474
C7    C     C_R   0.184641 0.185517 0.497330 -0.074461
C8    C     C_R   0.179983 0.179028 0.418369 0.001753
C9    C     C_R   0.445610 0.393467 0.729282 -0.139844
C10   C     C_R   0.507247 0.466705 0.810851 -0.141530
C11   C     C_R   0.508206 0.546072 0.830184 -0.104806
C12   C     C_R   0.119113 0.119835 0.498572 0.865932
C13   C     C_R   0.447567 0.552314 0.767962 -0.126711
C14   C     C_R   0.386688 0.479575 0.685973 -0.145495
C15   C     C_R   0.385373 0.399731 0.666150 0.132931
C16   C     C_R   0.188072 0.923999 0.673857 0.076241
C17   C     C_R   0.189880 0.001766 0.683560 -0.047095
C18   C     C_R   0.261277 0.081070 0.753570 -0.212017
C19   C     C_R   0.325342 0.080975 0.818226 -0.201961
C20   C     C_R   0.315347 0.001734 0.814196 -0.038671
C21   C     C_R   0.248203 0.923801 0.740089 0.013388
C22   C     C_3   0.181417 0.842516 0.727681 0.143466
C23   C     C_R   0.879991 0.000579 0.380196 0.877779
C24   C     C_3   0.115658 0.841929 0.652720 -0.531858
C25   C     C_R   0.812128 0.738201 0.488652 0.138281
C26   C     C_R   0.813236 0.815670 0.500312 -0.105474
C27   C     C_R   0.746930 0.828966 0.512366 -0.209005
C28   C     C_R   0.681470 0.763669 0.511150 -0.215770
C29   C     C_R   0.684255 0.686687 0.500523 -0.088991
C30   C     C_R   0.751217 0.677117 0.490423 0.131882
C31   C     C_3   0.787125 0.616650 0.475182 -0.501749
C32   C     C_3   0.857710 0.687143 0.473865 -0.477339
C33   C     C_R   0.741072 0.922097 0.245748 0.121398
C34   C     C_R   0.879840 0.880308 0.500245 0.884330
C35   C     C_R   0.811954 0.000412 0.316176 -0.105759
C36   C     C_R   0.813219 0.079072 0.327964 -0.228602
C37   C     C_R   0.749632 0.079142 0.262945 -0.222382
C38   C     C_R   0.683949 0.000307 0.188017 -0.089144
C39   C     C_R   0.676919 0.922046 0.182747 0.149417
C40   C     C_3   0.667339 0.846891 0.111146 -0.535003
C41   C     C_3   0.738230 0.846948 0.180787 -0.469436
C42   C     C_R   0.500504 0.621250 0.620126 0.880541
C43   C     C_R   0.380065 0.380752 0.501156 0.874069
C44   C     C_R   0.500177 0.379951 0.380468 0.880896
C45   C     C_R   0.049242 0.988916 0.188947 -0.126925
C46   C     C_R   0.619626 0.620014 0.499881 0.880754
C47   C     C_R   0.500056 0.119808 0.120341 0.877990
C48   C     C_R   0.380064 0.001209 0.880842 0.877720
C49   C     C_R   0.500759 0.880509 0.880473 0.872799
C50   C     C_R   0.619765 0.999310 0.119714 0.869621
C51   C     C_R   0.440237 0.716032 0.664414 0.150702
C52   C     C_R   0.505290 0.693027 0.685365 -0.120758
C53   C     C_R   0.576710 0.742313 0.770231 -0.213108
C54   C     C_R   0.575645 0.805154 0.835027 -0.237681
C55   C     C_R   0.502762 0.817175 0.814741 -0.071875
C56   C     C_R   0.119109 0.054002 0.271438 -0.147482
C57   C     C_R   0.439069 0.777594 0.728619 0.109330
C58   C     C_3   0.342321 0.729225 0.687845 -0.520265
C59   C     C_3   0.343345 0.661078 0.616557 -0.468553
C60   C     C_R   0.425704 0.240370 0.249548 0.125978
C61   C     C_R   0.501851 0.315094 0.316194 -0.086374
C62   C     C_R   0.581250 0.324983 0.319694 -0.221957
C63   C     C_R   0.581147 0.260382 0.254650 -0.213634
C64   C     C_R   0.501871 0.185115 0.188002 -0.098427
C65   C     C_R   0.425870 0.177211 0.189015 0.123428
C66   C     C_3   0.329423 0.121568 0.141421 -0.448079
C67   C     C_R   0.105487 0.108340 0.331974 0.131397
C68   C     C_3   0.329394 0.193828 0.211675 -0.507297
C69   C     C_R   0.021348 0.097574 0.308319 -0.121783
C70   C     C_R   0.951852 0.032972 0.225423 -0.132803
H1    H     H_    0.911704 0.928246 0.101978 0.126179
H2    H     H_    0.555544 0.602567 0.893515 0.125666
H3    H     H_    0.447399 0.613359 0.783404 0.146735
H4    H     H_    0.339723 0.484870 0.638310 0.105677
H5    H     H_    0.266242 0.142281 0.759093 0.150410
H6    H     H_    0.379842 0.142250 0.873204 0.152701
H7    H     H_    0.194213 0.787210 0.706534 0.119263
H8    H     H_    0.092555 0.787660 0.588068 0.177651
H9    H     H_    0.063276 0.851551 0.662950 0.224395
H10   H     H_    0.745017 0.888469 0.521216 0.164705
H11   H     H_    0.059975 0.946929 0.142669 0.138001
H12   H     H_    0.630017 0.773540 0.519536 0.156275
H13   H     H_    0.812461 0.606780 0.531911 0.219687
H14   H     H_    0.742338 0.556378 0.411083 0.194662
H15   H     H_    0.923691 0.718114 0.530042 0.204239
H16   H     H_    0.854094 0.667350 0.409170 0.209104
H17   H     H_    0.865686 0.140316 0.384658 0.162035
H18   H     H_    0.752744 0.140180 0.270004 0.155927
H19   H     H_    0.602681 0.788216 0.078208 0.211637
H20   H     H_    0.687235 0.864640 0.066741 0.191151
H21   H     H_    0.714441 0.788342 0.188121 0.204022
H22   H     H_    0.183689 0.061943 0.288260 0.124805
H23   H     H_    0.799206 0.864466 0.176636 0.214398
H24   H     H_    0.630955 0.729707 0.787309 0.175158
H25   H     H_    0.629095 0.841006 0.901169 0.140639
H26   H     H_    0.320268 0.705323 0.728092 0.218478
H27   H     H_    0.311615 0.764932 0.664776 0.197177
H28   H     H_    0.321428 0.597475 0.615067 0.192182
H29   H     H_    0.313175 0.657502 0.552380 0.208451
H30   H     H_    0.642289 0.382666 0.371120 0.151791
H31   H     H_    0.642254 0.268809 0.256681 0.159118
H32   H     H_    0.298937 0.114689 0.075654 0.213763
H33   H     H_    0.009870 0.139805 0.353623 0.105322
H34   H     H_    0.309008 0.059861 0.143875 0.215153
H35   H     H_    0.298368 0.228228 0.186341 0.217076
H36   H     H_    0.309611 0.174117 0.255177 0.194361
H37   H     H_    0.887315 0.025430 0.207002 0.145321
H38   H     H_    0.243720 0.240493 0.361713 0.150582
H39   H     H_    0.255466 0.260604 0.637686 0.153836
H40   H     H_    0.444920 0.332111 0.715193 0.126371
H41   H     H_    0.553921 0.461810 0.859252 0.129087
O1    O     O_R   0.091630 0.948280 0.539910 -0.621703
O2    O     O_R   0.551690 0.591610 0.643360 -0.616961
O3    O     O_R   0.356650 0.408410 0.448330 -0.627385
O4    O     O_R   0.460080 0.408380 0.551740 -0.610513
O5    O     O_R   0.448280 0.408420 0.356720 -0.621731
O6    O     O_R   0.551710 0.408390 0.460130 -0.623366
O7    O     O_R   0.539890 0.591650 0.448340 -0.623021
O8    O     O_R   0.643320 0.591620 0.551750 -0.621226
O9    O     O_R   0.551740 0.143400 0.091610 -0.629955
O10   O     O_R   0.448290 0.040010 0.091660 -0.613108
O11   O     O_R   0.460120 0.051750 0.908410 -0.633321
O12   O     O_R   0.091590 0.051710 0.643320 -0.618556
O13   O     O_R   0.356670 0.948360 0.908460 -0.576591
O14   O     O_R   0.551710 0.960090 0.908440 -0.618007
O15   O     O_R   0.448260 0.856700 0.908490 -0.624953
O16   O     O_R   0.643330 0.051740 0.091640 -0.627356
O17   O     O_R   0.539880 0.948350 0.091690 -0.619010
O18   O     O_R   0.091640 0.039900 0.448300 -0.610711
O19   O     O_R   0.091600 0.143340 0.551710 -0.628881
O20   O     O_R   0.908410 0.948290 0.356680 -0.617930
O21   O     O_R   0.908370 0.051720 0.460090 -0.625389
O22   O     O_R   0.908400 0.856660 0.448290 -0.625797
O23   O     O_R   0.908360 0.960100 0.551700 -0.619288
O24   O     O_R   0.448260 0.591640 0.539950 -0.625209
Zn1   Zn    Zn3+2 0.000030 0.930940 0.430950 0.957122
Zn2   Zn    Zn3+2 0.999970 0.069060 0.569050 0.958944
Zn3   Zn    Zn3+2 0.430920 0.500040 0.430990 0.950472
Zn4   Zn    Zn3+2 0.569050 0.499990 0.569090 0.967462
Zn5   Zn    Zn3+2 0.569070 0.069080 0.000020 0.951608
Zn6   Zn    Zn3+2 0.430930 0.931020 0.000080 0.994945
Br1   Br    Br    0.154283 0.859866 0.822271 -0.507061

loop_
_geom_bond_atom_site_label_1
_geom_bond_atom_site_label_2
_ccdc_geom_bond_type
O24   Zn3   S    
C66   C68   S    
C18   H5    S    
C59   H29   S    
C66   H32   S    
C37   H18   S    
C35   C36   A    
C63   H31   S    
O23   Zn2   S    
C7    C8    A    
C53   C54   A    
C49   O15   A    
C28   C29   A    
C26   C27   A    
C29   C30   A    
C12   O19   A    
C14   H4    S    
C36   C37   A    
C70   H37   S    
C1    O1    A    
C48   O11   A    
C30   C31   S    
C47   O10   A    
C34   O23   A    
C9    H40   S    
C31   H13   S    
C46   O7    A    
C18   C19   A    
C58   H26   S    
C42   O2    A    
C43   O4    A    
C26   C34   S    
C41   H23   S    
C19   C20   A    
C45   C56   A    
C16   C17   A    
C46   O8    A    
O22   Zn1   S    
O2    Zn4   S    
O9    Zn5   S    
C40   H19   S    
C9    C10   A    
C61   C62   A    
C25   C32   S    
C16   C24   S    
C21   C22   S    
O6    Zn4   S    
C58   H27   S    
C68   H36   S    
O1    Zn1   S    
O14   Zn5   S    
O5    Zn3   S    
C69   H33   S    
C36   H17   S    
C7    C12   S    
C12   O18   A    
C28   H12   S    
C51   C52   A    
O10   Zn6   S    
C38   C39   A    
O20   Zn1   S    
C10   C11   A    
C47   C64   S    
C11   H2    S    
C34   O22   A    
O21   Zn2   S    
C49   C55   S    
C31   H14   S    
C42   O24   A    
C67   C69   A    
C1    O12   A    
C37   C38   A    
C66   H34   S    
O18   Zn1   S    
C24   H9    S    
C31   C32   S    
C32   H16   S    
C22   Br1   S    
C62   C63   A    
C17   C18   A    
C23   O20   A    
C10   H41   S    
C33   C39   A    
C60   C68   S    
C54   H25   S    
C20   C48   S    
C51   C57   A    
C24   H8    S    
C40   C41   S    
C41   H21   S    
C13   H3    S    
C60   C65   A    
C3    C8    A    
C23   C35   S    
C55   C57   A    
C3    H38   S    
C6    H39   S    
C62   H30   S    
O13   Zn6   S    
C58   C59   S    
C27   H10   S    
C51   C59   S    
C68   H35   S    
C3    C4    A    
C39   C40   S    
C52   C53   A    
O17   Zn6   S    
C25   C30   A    
C54   C55   A    
C19   H6    S    
C53   H24   S    
C45   H11   S    
C22   H7    S    
O4    Zn4   S    
C4    C5    A    
C48   O13   A    
C16   C21   A    
C6    C7    A    
C38   C50   S    
C4    C43   S    
C44   C61   S    
C56   C67   A    
C49   O14   A    
O12   Zn2   S    
O15   Zn6   S    
C1    C17   S    
C29   C46   S    
C33   C41   S    
C64   C65   A    
C25   C26   A    
O8    Zn4   S    
C43   O3    A    
O7    Zn3   S    
C11   C13   A    
C57   C58   S    
C5    C6    A    
C2    C70   A    
C44   O6    A    
C32   H15   S    
C33   C35   A    
C23   O21   A    
C22   C24   S    
O3    Zn3   S    
C9    C15   A    
C69   C70   A    
C5    C15   S    
C2    C45   A    
O11   Zn5   S    
C63   C64   A    
C56   H22   S    
C50   O17   A    
C20   C21   A    
C44   O5    A    
C8    C67   S    
C65   C66   S    
O16   Zn5   S    
C27   C28   A    
C59   H28   S    
C47   O9    A    
C14   C15   A    
C60   C61   A    
C50   O16   A    
C40   H20   S    
C13   C14   A    
O19   Zn2   S    
C2    H1    S    
C42   C52   S    
