data_mof_unit_11136.cif
_audit_creation_date              2012-12-10T17:43:39-0500
_audit_creation_method            fapswitch 2.2
_symmetry_space_group_name_H-M    P1
_symmetry_Int_Tables_number       1
_space_group_crystal_system       triclinic
_cell_length_a                    14.937157
_cell_length_b                    10.743033
_cell_length_c                    9.93473
_cell_angle_alpha                 87.158815
_cell_angle_beta                  89.101704
_cell_angle_gamma                 91.482618
_cell_volume                      1591.50740145

loop_
_atom_site_label
_atom_site_type_symbol
_atom_type_description
_atom_site_fract_x
_atom_site_fract_y
_atom_site_fract_z
_atom_type_partial_charge
C1    C     C_R   0.501534 0.259054 0.503556 0.860974
C2    C     C_R   0.185057 0.436738 0.605640 -0.258577
C3    C     C_R   0.231672 0.508242 0.505575 -0.058771
C4    C     C_R   0.327095 0.502444 0.501041 0.860722
C5    C     C_R   0.187744 0.588010 0.414805 -0.266508
C6    C     C_R   0.439244 0.094323 0.745977 -0.206494
C7    C     C_R   0.387398 0.022325 0.840232 -0.172691
C8    C     C_R   0.353535 0.906567 0.807800 -0.134470
C9    C     C_R   0.379124 0.857878 0.686655 -0.141530
C10   C     C_R   0.438827 0.925819 0.596431 0.093131
C11   C     C_R   0.460183 0.050808 0.617177 0.087063
C12   C     C_R   0.908093 0.589090 0.424281 0.121333
C13   C     C_R   0.503326 0.123731 0.509260 -0.160709
C14   C     C_R   0.536625 0.065586 0.393745 -0.007995
C15   C     C_R   0.527282 0.938610 0.387623 -0.270149
C16   C     C_R   0.493515 0.738532 0.496800 0.883798
C17   C     C_R   0.481654 0.869584 0.489795 -0.141180
C18   C     C_R   0.373313 0.350522 0.149953 -0.137794
C19   C     C_R   0.306888 0.284626 0.084921 -0.214119
C20   C     C_R   0.305049 0.288756 0.945651 -0.211765
C21   C     C_R   0.371048 0.356097 0.871032 -0.185898
C22   C     C_R   0.436123 0.429549 0.933059 0.145429
C23   C     C_R   0.952963 0.353658 0.702567 -0.214548
C24   C     C_R   0.436662 0.428300 0.077408 0.188505
C25   C     C_R   0.560663 0.568537 0.066275 -0.117227
C26   C     C_R   0.560871 0.568097 0.923315 -0.126711
C27   C     C_R   0.672808 0.491480 0.499867 0.898316
C28   C     C_R   0.815487 0.580769 0.421069 -0.293563
C29   C     C_R   0.769056 0.488653 0.500377 -0.116042
C30   C     C_R   0.814793 0.402543 0.585245 -0.056166
C31   C     C_R   0.906464 0.424262 0.604476 0.072711
C32   C     C_R   0.953658 0.512067 0.517848 0.035710
C33   C     C_R   0.777994 0.273674 0.618165 0.069790
C34   C     C_R   0.045554 0.361583 0.706535 -0.225667
C35   C     C_R   0.821549 0.172851 0.561623 -0.178088
C36   C     C_R   0.791566 0.050142 0.590626 -0.152880
C37   C     C_R   0.718684 0.025973 0.677976 -0.099608
C38   C     C_R   0.676769 0.124282 0.737781 -0.138595
C39   C     C_R   0.706140 0.247896 0.708905 -0.155016
C40   C     C_R   0.586226 0.133457 0.280666 0.151305
C41   C     C_R   0.665660 0.199812 0.305186 -0.125420
C42   C     C_R   0.708800 0.273535 0.202971 -0.114987
C43   C     C_R   0.671525 0.283372 0.075244 -0.100819
C44   C     C_R   0.591808 0.218370 0.049974 -0.146089
C45   C     C_R   0.092743 0.438925 0.611737 0.123807
C46   C     C_R   0.549881 0.141757 0.151305 -0.140898
C47   C     C_R   0.047079 0.516553 0.518556 0.064268
C48   C     C_R   0.094966 0.593974 0.421818 0.121258
C49   C     C_R   0.049150 0.673062 0.332014 -0.218432
C50   C     C_R   0.955882 0.671832 0.334488 -0.220432
H1    H     H_    0.779288 0.644376 0.354788 0.150737
H2    H     H_    0.255250 0.233806 0.895094 0.148465
H3    H     H_    0.372561 0.342483 0.765746 0.204163
H4    H     H_    0.610683 0.623823 0.865631 0.151295
H5    H     H_    0.917908 0.289889 0.774374 0.166076
H6    H     H_    0.080332 0.303576 0.780069 0.146401
H7    H     H_    0.220602 0.375855 0.675430 0.143853
H8    H     H_    0.225790 0.645245 0.339962 0.151310
H9    H     H_    0.085335 0.734146 0.258759 0.145613
H10   H     H_    0.921180 0.732237 0.263217 0.144622
H11   H     H_    0.877873 0.189770 0.492517 0.143138
H12   H     H_    0.467988 0.178079 0.781586 0.167371
H13   H     H_    0.824632 0.973947 0.544849 0.138094
H14   H     H_    0.695035 0.930970 0.700270 0.133317
H15   H     H_    0.621679 0.103236 0.806991 0.137644
H16   H     H_    0.674060 0.321876 0.759368 0.160816
H17   H     H_    0.691227 0.198033 0.405059 0.138379
H18   H     H_    0.769557 0.325671 0.223932 0.132211
H19   H     H_    0.703346 0.343500 0.997036 0.119596
H20   H     H_    0.560911 0.230867 0.953245 0.115687
H21   H     H_    0.487147 0.094076 0.130997 0.126487
H22   H     H_    0.373832 0.055979 0.939056 0.149168
H23   H     H_    0.310845 0.852214 0.878868 0.136876
H24   H     H_    0.353616 0.765826 0.665241 0.150123
H25   H     H_    0.559385 0.892872 0.305366 0.166939
H26   H     H_    0.610311 0.624538 0.115652 0.138983
H27   H     H_    0.374128 0.335025 0.256439 0.203122
H28   H     H_    0.258272 0.226937 0.142981 0.149691
N1    N     N_R   0.499150 0.498800 0.142780 -0.116737
N2    N     N_R   0.499120 0.498720 0.857170 -0.129306
O1    O     O_R   0.500000 0.316780 0.614690 -0.658197
O2    O     O_R   0.499990 0.316750 0.385360 -0.621104
O3    O     O_R   0.367850 0.499980 0.614680 -0.643965
O4    O     O_R   0.367840 0.499960 0.385350 -0.640112
O5    O     O_R   0.500010 0.683250 0.614640 -0.613301
O6    O     O_R   0.500000 0.683220 0.385310 -0.621451
O7    O     O_R   0.632160 0.500040 0.614650 -0.629550
O8    O     O_R   0.632150 0.500020 0.385320 -0.612876
Zn1   Zn    Zn3+2 0.500010 0.500020 0.653130 0.915580
Zn2   Zn    Zn3+2 0.499990 0.499980 0.346870 0.942563

loop_
_geom_bond_atom_site_label_1
_geom_bond_atom_site_label_2
_ccdc_geom_bond_type
C15   H25   S    
C34   H6    S    
C27   C29   S    
C41   C42   A    
C19   C20   A    
C2    H7    S    
C7    C8    A    
C41   H17   S    
C40   C46   A    
C33   C39   A    
C5    H8    S    
C12   C28   A    
C18   C24   A    
C28   C29   A    
C30   C31   A    
C28   H1    S    
C10   C17   A    
C1    O1    A    
C18   C19   A    
N2    Zn1   S    
N1    Zn2   S    
C31   C32   A    
C8    C9    A    
C44   H20   S    
C36   H13   S    
C9    C10   A    
O1    Zn1   S    
C43   H19   S    
C21   C22   A    
C12   C32   A    
C16   O6    A    
O4    Zn2   S    
C26   H4    S    
C44   C46   A    
C45   C47   A    
C2    C45   A    
O3    Zn1   S    
C5    C48   A    
C32   C47   A    
O6    Zn2   S    
C7    H22   S    
O5    Zn1   S    
C16   C17   S    
C25   C26   A    
C14   C40   S    
C26   N2    A    
C35   C36   A    
C23   C31   A    
C19   H28   S    
C43   C44   A    
C37   C38   A    
C24   N1    A    
C47   C48   A    
C4    O4    A    
C38   H15   S    
C23   C34   A    
C35   H11   S    
C34   C45   A    
C27   O7    A    
C46   H21   S    
C48   C49   A    
O8    Zn2   S    
O7    Zn1   S    
C16   O5    A    
C39   H16   S    
C22   C24   A    
C1    C13   S    
C42   C43   A    
C3    C4    S    
C6    C11   A    
C37   H14   S    
C15   C17   A    
C36   C37   A    
C30   C33   S    
C25   N1    A    
C3    C5    A    
C49   H9    S    
C12   C50   A    
C23   H5    S    
C6    C7    A    
O2    Zn2   S    
C25   H26   S    
C50   H10   S    
C6    H12   S    
C2    C3    A    
C1    O2    A    
C22   N2    A    
C20   H2    S    
C21   H3    S    
C11   C13   A    
C38   C39   A    
C4    O3    A    
C18   H27   S    
C8    H23   S    
C33   C35   A    
C42   H18   S    
C27   O8    A    
C10   C11   A    
C29   C30   A    
C20   C21   A    
C49   C50   A    
C9    H24   S    
C14   C15   A    
C40   C41   A    
C13   C14   A    
