data_mof_unit_65358.cif
_audit_creation_date              2012-12-10T20:52:42-0500
_audit_creation_method            fapswitch 2.2
_symmetry_space_group_name_H-M    P1
_symmetry_Int_Tables_number       1
_space_group_crystal_system       triclinic
_cell_length_a                    8.604021
_cell_length_b                    15.855104
_cell_length_c                    15.097612
_cell_angle_alpha                 90.008131
_cell_angle_beta                  98.74375
_cell_angle_gamma                 89.976358
_cell_volume                      2035.64429235

loop_
_atom_site_label
_atom_site_type_symbol
_atom_type_description
_atom_site_fract_x
_atom_site_fract_y
_atom_site_fract_z
_atom_type_partial_charge
C1    C     C_R   0.500049 0.338934 0.499987 0.896371
C2    C     C_R   0.499951 0.661066 0.500013 0.896370
C3    C     C_R   0.500169 0.499991 0.905061 -0.208137
C4    C     C_R   0.499831 0.500009 0.094939 -0.208137
C5    C     C_R   0.632944 0.528118 0.964538 0.247178
C6    C     C_R   0.367056 0.471882 0.035461 0.247178
C7    C     C_1   0.500184 0.499997 0.807047 0.291308
C8    C     C_1   0.499816 0.500003 0.192953 0.291308
C9    C     C_R   0.200480 0.500009 0.476683 0.966007
C10   C     C_R   0.799520 0.499991 0.523316 0.966008
C11   C     C_2   0.035713 0.500056 0.463928 -0.352153
C12   C     C_2   0.964287 0.499944 0.536072 -0.352153
C13   C     C_R   0.488557 0.955442 0.578742 -0.238688
C14   C     C_R   0.511443 0.044558 0.421258 -0.238688
C15   C     C_R   0.500186 0.913046 0.498979 0.011811
C16   C     C_R   0.499814 0.086954 0.501021 0.011811
C17   C     C_R   0.511699 0.957080 0.419799 0.305995
C18   C     C_R   0.488300 0.042920 0.580201 0.305996
C19   C     C_1   0.500094 0.824200 0.499553 0.048841
C20   C     C_1   0.499906 0.175799 0.500447 0.048841
C21   C     C_1   0.499990 0.250601 0.500059 -0.110854
C22   C     C_1   0.500010 0.749399 0.499941 -0.110854
C23   C     C_R   0.367243 0.471863 0.941340 0.240306
C24   C     C_R   0.632756 0.528137 0.058660 0.240306
H1    H     H_    0.973633 0.500200 0.395522 0.210640
H2    H     H_    0.026367 0.499800 0.604478 0.210640
H3    H     H_    0.479721 0.920601 0.639560 0.197486
H4    H     H_    0.520279 0.079399 0.360440 0.197486
N1    N     N_1   0.499960 0.500020 0.270540 -0.074868
N2    N     N_1   0.500040 0.499980 0.729460 -0.074867
O1    O     O_R   0.500000 0.378020 0.573650 -0.590643
O2    O     O_R   0.500000 0.621980 0.426350 -0.590642
O3    O     O_R   0.500070 0.378020 0.426320 -0.614609
O4    O     O_R   0.499930 0.621980 0.573680 -0.614609
O5    O     O_R   0.271720 0.500000 0.556430 -0.613102
O6    O     O_R   0.728280 0.500000 0.443570 -0.613102
O7    O     O_R   0.271790 0.500000 0.409110 -0.600743
O8    O     O_R   0.728210 0.500000 0.590890 -0.600743
Zn1   Zn    Zn3+2 0.499950 0.500000 0.598370 1.045651
Zn2   Zn    Zn3+2 0.500050 0.500000 0.401630 1.045651
Br1   Br    Br    0.472151 0.099646 0.690797 -0.392489
Br2   Br    Br    0.527849 0.900354 0.309203 -0.392489
Br3   Br    Br    0.184344 0.433171 0.083293 -0.319594
Br4   Br    Br    0.815656 0.566828 0.916707 -0.319594
Br5   Br    Br    0.184892 0.433060 0.861526 -0.345715
Br6   Br    Br    0.815108 0.566940 0.138474 -0.345715

loop_
_geom_bond_atom_site_label_1
_geom_bond_atom_site_label_2
_ccdc_geom_bond_type
C2    C22   S    
O5    Zn1   S    
C11   C12   D    
C1    C21   S    
C23   Br5   S    
C3    C23   A    
C10   O8    A    
C4    C8    S    
C24   Br6   S    
C2    O4    A    
C13   C15   A    
C1    O3    A    
C7    N2    T    
C15   C19   S    
C9    C11   S    
C14   C17   A    
C5    C24   A    
C10   C12   S    
C13   C18   A    
C8    N1    T    
N1    Zn2   S    
C4    C6    A    
C16   C20   S    
C5    Br4   S    
O1    Zn1   S    
N2    Zn1   S    
O7    Zn2   S    
C3    C7    S    
C6    Br3   S    
O2    Zn2   S    
O8    Zn1   S    
C4    C24   A    
C14   C16   A    
O3    Zn2   S    
C6    C23   A    
C9    O5    A    
O4    Zn1   S    
C1    O1    A    
C19   C22   T    
C20   C21   T    
C16   C18   A    
C9    O7    A    
C18   Br1   S    
C15   C17   A    
C11   H1    S    
C17   Br2   S    
C13   H3    S    
O6    Zn2   S    
C10   O6    A    
C14   H4    S    
C12   H2    S    
C2    O2    A    
C3    C5    A    
