data_mof_unit_30564.cif
_audit_creation_date              2012-12-10T17:24:15-0500
_audit_creation_method            fapswitch 2.2
_symmetry_space_group_name_H-M    P1
_symmetry_Int_Tables_number       1
_space_group_crystal_system       triclinic
_cell_length_a                    19.385652
_cell_length_b                    10.858125
_cell_length_c                    9.565038
_cell_angle_alpha                 91.32844
_cell_angle_beta                  89.334938
_cell_angle_gamma                 93.82509
_cell_volume                      2008.23522604

loop_
_atom_site_label
_atom_site_type_symbol
_atom_type_description
_atom_site_fract_x
_atom_site_fract_y
_atom_site_fract_z
_atom_type_partial_charge
C1    C     C_R   0.493923 0.262155 0.498453 0.835597
C2    C     C_R   0.291754 0.525000 0.504276 -0.268286
C3    C     C_R   0.929312 0.504187 0.493191 0.392491
C4    C     C_R   0.069449 0.515585 0.497380 0.471331
C5    C     C_R   0.816022 0.485194 0.619494 -0.159224
C6    C     C_R   0.744203 0.485237 0.621278 -0.186984
C7    C     C_R   0.708275 0.501151 0.497205 -0.029687
C8    C     C_R   0.745431 0.517734 0.371352 -0.194248
C9    C     C_R   0.817374 0.518702 0.369770 -0.155417
C10   C     C_R   0.853306 0.502149 0.493812 0.065277
C11   C     C_R   0.409659 0.111646 0.706078 0.132097
C12   C     C_R   0.367695 0.509122 0.501375 0.889727
C13   C     C_R   0.399645 0.060643 0.837698 -0.159623
C14   C     C_R   0.431973 0.954915 0.869958 -0.193920
C15   C     C_R   0.466870 0.891675 0.765547 -0.153485
C16   C     C_R   0.475600 0.939878 0.629098 0.076608
C17   C     C_R   0.456868 0.061588 0.609934 0.064231
C18   C     C_R   0.485110 0.127284 0.494614 -0.101335
C19   C     C_R   0.514423 0.063607 0.382669 -0.204581
C20   C     C_R   0.518928 0.937277 0.387690 -0.217538
C21   C     C_R   0.500653 0.873624 0.509955 -0.100321
C22   C     C_R   0.593577 0.664583 0.146420 -0.164856
C23   C     C_R   0.501226 0.738492 0.502784 0.755131
C24   C     C_R   0.639007 0.745504 0.074867 -0.222299
C25   C     C_R   0.638568 0.746144 0.930769 -0.199740
C26   C     C_R   0.592836 0.665603 0.857393 -0.178483
C27   C     C_R   0.545630 0.581565 0.926070 0.195339
C28   C     C_R   0.545814 0.581257 0.075868 0.207910
C29   C     C_R   0.456968 0.421625 0.073059 -0.040379
C30   C     C_R   0.457344 0.421145 0.925010 -0.014592
C31   C     C_R   0.632453 0.500503 0.499187 0.768446
C32   C     C_R   0.253567 0.533979 0.632171 0.088208
C33   C     C_R   0.181156 0.536690 0.629967 0.429181
C34   C     C_R   0.145745 0.525506 0.501881 -0.158090
C35   C     C_R   0.183594 0.526241 0.376840 -0.292516
C36   C     C_R   0.255642 0.532059 0.376685 0.437243
Cu1   Cu    Cu3+1 0.500000 0.499990 0.640660 0.956274
Cu2   Cu    Cu3+1 0.500000 0.500010 0.359340 0.945055
H1    H     H_    0.364644 0.099884 0.912882 0.162990
H2    H     H_    0.426348 0.917210 0.973549 0.150964
H3    H     H_    0.488349 0.808985 0.798392 0.184027
H4    H     H_    0.539250 0.889925 0.296817 0.163432
H5    H     H_    0.421621 0.357659 0.127714 0.161327
H6    H     H_    0.598357 0.671566 0.256785 0.193785
H7    H     H_    0.674792 0.808289 0.131982 0.152926
H8    H     H_    0.673872 0.809651 0.875125 0.155345
H9    H     H_    0.596162 0.674410 0.747170 0.196571
H10   H     H_    0.422372 0.356671 0.868949 0.172574
H11   H     H_    0.157267 0.522843 0.277364 0.196212
H12   H     H_    0.842300 0.473001 0.717004 0.153148
H13   H     H_    0.716877 0.472380 0.719833 0.159605
H14   H     H_    0.719022 0.530628 0.274129 0.156729
H15   H     H_    0.844744 0.531899 0.271356 0.152639
H16   H     H_    0.534815 0.111722 0.291571 0.165742
N1    N     N_R   0.035648 0.549884 0.382503 -0.253153
N2    N     N_R   0.966874 0.544286 0.380451 -0.244766
N3    N     N_R   0.963124 0.468089 0.606974 -0.250790
N4    N     N_R   0.031761 0.473280 0.608760 -0.170460
N5    N     N_R   0.500660 0.501210 0.147910 -0.210527
N6    N     N_R   0.500680 0.501290 0.852040 -0.200349
O1    O     O_R   0.499990 0.319640 0.618810 -0.567563
O2    O     O_R   0.500000 0.319660 0.381240 -0.581079
O3    O     O_R   0.400140 0.499970 0.618820 -0.536188
O4    O     O_R   0.400150 0.500000 0.381250 -0.546032
O5    O     O_R   0.500000 0.680340 0.618760 -0.613593
O6    O     O_R   0.500010 0.680360 0.381190 -0.607326
O7    O     O_R   0.599850 0.500000 0.618750 -0.597750
O8    O     O_R   0.599860 0.500030 0.381180 -0.599120
I1    I     I_    0.298347 0.550164 0.836272 -0.343368
I2    I     I_    0.330680 0.220355 0.638485 -0.369321
O9    O     O_3   0.144820 0.542241 0.755163 -0.562228
C37   C     C_3   0.130317 0.666072 0.784937 0.066253
H17   H     H_    0.103414 0.706737 0.696333 0.131314
H18   H     H_    0.179053 0.723149 0.806704 0.160645
C38   C     C_3   0.083183 0.669362 0.913997 -0.290485
H19   H     H_    0.033411 0.616313 0.891024 0.238754
H20   H     H_    0.107848 0.625055 0.002442 0.229389
C39   C     C_3   0.068681 0.801397 0.956941 -0.905633
H21   H     H_    0.117672 0.855672 0.982519 0.261184
H22   H     H_    0.034488 0.800313 0.050935 0.266731
H23   H     H_    0.042487 0.846503 0.871042 0.262556
O10   O     O_3   0.289488 0.538795 0.248627 -0.572390
C40   C     C_3   0.312220 0.663209 0.223103 0.131280
H24   H     H_    0.352910 0.661744 0.140408 0.192928
H25   H     H_    0.337133 0.710510 0.316166 0.109824
C41   C     C_3   0.252928 0.737240 0.171873 -0.390226
H26   H     H_    0.222331 0.681683 0.092661 0.254673
H27   H     H_    0.218223 0.758455 0.261219 0.211588
C42   C     C_3   0.280020 0.858232 0.106995 -0.886952
H28   H     H_    0.314862 0.912278 0.180542 0.258927
H29   H     H_    0.236030 0.914116 0.082270 0.262997
H30   H     H_    0.308369 0.838856 0.008349 0.267700

loop_
_geom_bond_atom_site_label_1
_geom_bond_atom_site_label_2
_ccdc_geom_bond_type
N1    N2    A    
C16   C21   A    
C35   C36   A    
C2    C12   S    
C1    O2    A    
C11   I2    S    
C7    C8    A    
C31   O7    A    
C1    C18   S    
C29   C30   A    
C24   H7    S    
C23   O6    A    
C30   H10   S    
C34   C35   A    
C27   N6    A    
C5    C6    A    
C12   O4    A    
C41   H27   S    
C15   C16   A    
C2    C32   A    
C18   C19   A    
C22   H6    S    
Cu2   O6    S    
C36   O10   S    
C8    C9    A    
C30   N6    A    
C35   H11   S    
C6    H13   S    
C42   H29   S    
C9    C10   A    
C8    H14   S    
C22   C28   A    
C13   C14   A    
C29   H5    S    
C37   C38   S    
Cu1   O3    S    
C33   C34   A    
Cu2   O4    S    
C31   O8    A    
C4    C34   S    
C7    C31   S    
C29   N5    A    
C24   C25   A    
C15   H3    S    
C37   H18   S    
C12   O3    A    
C39   H21   S    
C16   C17   A    
C25   C26   A    
Cu1   O5    S    
C38   H19   S    
Cu1   Cu2   S    
C3    N2    A    
Cu1   O1    S    
C40   H24   S    
C17   C18   A    
C26   C27   A    
C42   H30   S    
C38   H20   S    
C32   I1    S    
C26   H9    S    
C3    N3    A    
C19   H16   S    
C40   H25   S    
Cu2   O8    S    
C21   C23   S    
C4    N1    A    
C22   C24   A    
C5    H12   S    
C9    H15   S    
C28   N5    A    
C2    C36   A    
C11   C17   A    
C41   H26   S    
C37   H17   S    
C41   C42   S    
C1    O1    A    
C20   H4    S    
C6    C7    A    
C32   C33   A    
C23   O5    A    
C19   C20   A    
C5    C10   A    
C3    C10   S    
C11   C13   A    
C39   H23   S    
N3    N4    A    
Cu1   O7    S    
C39   H22   S    
C38   C39   S    
C13   H1    S    
Cu1   N6    S    
C33   O9    S    
C14   H2    S    
Cu2   N5    S    
O9    C37   S    
C40   C41   S    
C20   C21   A    
O10   C40   S    
C4    N4    A    
C27   C28   A    
C14   C15   A    
C42   H28   S    
C25   H8    S    
Cu2   O2    S    
