data_mof_unit_45412.cif
_audit_creation_date              2012-12-10T17:46:31-0500
_audit_creation_method            fapswitch 2.2
_symmetry_space_group_name_H-M    P1
_symmetry_Int_Tables_number       1
_space_group_crystal_system       triclinic
_cell_length_a                    20.721023
_cell_length_b                    21.123746
_cell_length_c                    14.755534
_cell_angle_alpha                 90.35637
_cell_angle_beta                  128.236432
_cell_angle_gamma                 89.526293
_cell_volume                      5072.80076203

loop_
_atom_site_label
_atom_site_type_symbol
_atom_type_description
_atom_site_fract_x
_atom_site_fract_y
_atom_site_fract_z
_atom_type_partial_charge
C1    C     C_R   0.603194 0.913307 0.631142 0.897491
C2    C     C_R   0.396806 0.086693 0.368859 0.897518
C3    C     C_R   0.393944 0.916758 0.364311 0.898354
C4    C     C_R   0.606058 0.083239 0.635692 0.898327
C5    C     C_R   0.103195 0.413308 0.631143 0.897429
C6    C     C_R   0.896807 0.586695 0.368860 0.897435
C7    C     C_R   0.893940 0.416763 0.364303 0.898304
C8    C     C_R   0.106063 0.583236 0.635699 0.898307
C9    C     C_R   0.375655 0.715860 0.019030 0.276670
C10   C     C_R   0.624366 0.284060 0.981075 0.276693
C11   C     C_R   0.691394 0.794660 0.095865 0.295372
C12   C     C_R   0.308548 0.205319 0.904081 0.295416
C13   C     C_R   0.875666 0.215911 0.018909 0.276689
C14   C     C_R   0.124286 0.784217 0.980892 0.276667
C15   C     C_R   0.191417 0.294652 0.095871 0.295417
C16   C     C_R   0.808655 0.705386 0.904199 0.295364
C17   C     C_R   0.321550 0.994763 0.664595 -0.229740
C18   C     C_R   0.678453 0.005219 0.335410 -0.229771
C19   C     C_R   0.821537 0.494830 0.664585 -0.229727
C20   C     C_R   0.178454 0.505181 0.335400 -0.229694
C21   C     C_R   0.351269 0.999421 0.602353 0.145469
C22   C     C_R   0.648732 0.000575 0.397650 0.145462
C23   C     C_R   0.851264 0.499464 0.602351 0.145526
C24   C     C_R   0.148734 0.500532 0.397643 0.145544
C25   C     C_R   0.488151 0.000366 0.775720 0.099597
C26   C     C_R   0.511849 0.999621 0.224278 0.099587
C27   C     C_R   0.988150 0.500362 0.775723 0.099566
C28   C     C_R   0.011846 0.499652 0.224278 0.099558
C29   C     C_R   0.461607 0.002091 0.844651 0.014029
C30   C     C_R   0.538396 0.997882 0.155351 0.014044
C31   C     C_R   0.961601 0.502117 0.844647 0.014029
C32   C     C_R   0.038386 0.497908 0.155343 0.014006
C33   C     C_R   0.376620 0.993839 0.785514 0.098723
C34   C     C_R   0.623384 0.006131 0.214490 0.098705
C35   C     C_R   0.876606 0.493895 0.785504 0.098664
C36   C     C_R   0.123379 0.506131 0.214481 0.098687
C37   C     C_R   0.515615 0.007119 0.968858 0.005203
C38   C     C_R   0.484390 0.992846 0.031145 0.005216
C39   C     C_R   0.015607 0.507146 0.968853 0.005206
C40   C     C_R   0.984374 0.492888 0.031135 0.005195
C41   C     C_R   0.401024 0.973225 0.966008 0.261073
C42   C     C_R   0.598984 0.026735 0.033997 0.261068
C43   C     C_R   0.900994 0.473295 0.965990 0.261074
C44   C     C_R   0.098980 0.526749 0.033991 0.261051
C45   C     C_R   0.347663 0.979542 0.846498 -0.134398
C46   C     C_R   0.652345 0.020416 0.153506 -0.134419
C47   C     C_R   0.847636 0.479622 0.846481 -0.134405
C48   C     C_R   0.152343 0.520419 0.153500 -0.134399
C49   C     C_R   0.676303 0.121433 0.725311 -0.144563
C50   C     C_R   0.323689 0.878578 0.274675 -0.144553
C51   C     C_R   0.338781 0.138587 0.298179 -0.160660
C52   C     C_R   0.661220 0.861415 0.701827 -0.160671
C53   C     C_R   0.176306 0.621432 0.725333 -0.144568
C54   C     C_R   0.823715 0.378546 0.274694 -0.144611
C55   C     C_R   0.838790 0.638597 0.298191 -0.160727
C56   C     C_R   0.161217 0.361409 0.701814 -0.160706
C57   C     C_R   0.822932 0.133886 0.872018 -0.115946
C58   C     C_R   0.177053 0.866205 0.127856 -0.115910
C59   C     C_R   0.260967 0.232642 0.272980 -0.111978
C60   C     C_R   0.739055 0.767369 0.727045 -0.111950
C61   C     C_R   0.322935 0.633892 0.872054 -0.115925
C62   C     C_R   0.677073 0.366017 0.128072 -0.115955
C63   C     C_R   0.760950 0.732644 0.272980 -0.111986
C64   C     C_R   0.239024 0.267353 0.726999 -0.111995
C65   C     C_R   0.757128 0.100621 0.778446 0.218227
C66   C     C_R   0.242870 0.899432 0.221489 0.218244
C67   C     C_R   0.312145 0.182480 0.341934 0.254834
C68   C     C_R   0.687853 0.817518 0.658070 0.254823
C69   C     C_R   0.257146 0.600635 0.778459 0.218281
C70   C     C_R   0.742864 0.399295 0.221638 0.218230
C71   C     C_R   0.812139 0.682480 0.341941 0.254852
C72   C     C_R   0.187859 0.317524 0.658058 0.254854
C73   C     C_R   0.662536 0.173752 0.770172 0.177842
C74   C     C_R   0.337447 0.826243 0.229833 0.177818
C75   C     C_R   0.311466 0.145866 0.184945 0.170163
C76   C     C_R   0.688536 0.854135 0.815061 0.170165
C77   C     C_R   0.162519 0.673744 0.770200 0.177924
C78   C     C_R   0.837511 0.326267 0.229779 0.177964
C79   C     C_R   0.811498 0.645894 0.184972 0.170098
C80   C     C_R   0.188521 0.354116 0.815040 0.170099
C81   C     C_R   0.728017 0.197721 0.880285 0.041190
C82   C     C_R   0.271973 0.802299 0.119683 0.041228
C83   C     C_R   0.276709 0.204036 0.127466 0.013116
C84   C     C_R   0.723306 0.795971 0.872548 0.013117
C85   C     C_R   0.227990 0.697704 0.880334 0.041219
C86   C     C_R   0.772025 0.302294 0.119666 0.041193
C87   C     C_R   0.776742 0.704068 0.127507 0.013141
C88   C     C_R   0.223269 0.295941 0.872502 0.013135
C89   C     C_R   0.809546 0.182301 0.924206 -0.021480
C90   C     C_R   0.190431 0.817780 0.075674 -0.021493
C91   C     C_R   0.243292 0.244447 0.166255 -0.007436
C92   C     C_R   0.756748 0.755573 0.833784 -0.007425
C93   C     C_R   0.309529 0.682280 0.924275 -0.021469
C94   C     C_R   0.690482 0.317666 0.075796 -0.021455
C95   C     C_R   0.743289 0.744462 0.166267 -0.007450
C96   C     C_R   0.256685 0.255534 0.833711 -0.007451
C97   C     C_R   0.715835 0.235301 0.949098 0.039918
C98   C     C_R   0.284173 0.764695 0.050907 0.039941
C99   C     C_R   0.273511 0.223022 0.032542 0.040745
C100  C     C_R   0.726493 0.776980 0.967459 0.040774
C101  C     C_R   0.215791 0.735301 0.949121 0.039944
C102  C     C_R   0.784208 0.264728 0.050833 0.039914
C103  C     C_R   0.773566 0.723065 0.032607 0.040769
C104  C     C_R   0.226461 0.276949 0.967417 0.040744
C105  C     C_R   0.361588 0.759152 0.076268 -0.101199
C106  C     C_R   0.638447 0.240785 0.923824 -0.101218
C107  C     C_R   0.679895 0.807929 0.994609 -0.155601
C108  C     C_R   0.320067 0.192052 0.005348 -0.155577
C109  C     C_R   0.861594 0.259228 0.076109 -0.101242
C110  C     C_R   0.138373 0.740865 0.923746 -0.101268
C111  C     C_R   0.179900 0.307915 0.994602 -0.155579
C112  C     C_R   0.820164 0.692120 0.005460 -0.155602
Cu1   Cu    Cu3+1 0.526640 0.000000 0.436960 1.043751
Cu2   Cu    Cu3+1 0.473360 0.000000 0.563040 1.043767
Cu3   Cu    Cu3+1 0.026640 0.500000 0.436960 1.043780
Cu4   Cu    Cu3+1 0.973360 0.500000 0.563040 1.043754
H1    H     H_    0.384457 0.618685 0.907776 0.221184
H2    H     H_    0.615543 0.381176 0.092419 0.221172
H3    H     H_    0.738301 0.763784 0.306242 0.229742
H4    H     H_    0.261658 0.236208 0.693723 0.229762
H5    H     H_    0.884444 0.118665 0.907759 0.221181
H6    H     H_    0.115542 0.881461 0.092072 0.221175
H7    H     H_    0.238338 0.263793 0.306256 0.229749
H8    H     H_    0.761685 0.736218 0.693771 0.229738
H9    H     H_    0.412306 0.788742 0.140145 0.233819
H10   H     H_    0.587757 0.211166 0.859993 0.233823
H11   H     H_    0.633908 0.842919 0.937597 0.194722
H12   H     H_    0.366037 0.157049 0.062335 0.194734
H13   H     H_    0.912290 0.288847 0.139924 0.233842
H14   H     H_    0.087657 0.711270 0.859890 0.233821
H15   H     H_    0.133930 0.342913 0.937608 0.194734
H16   H     H_    0.866149 0.657131 0.062476 0.194717
H17   H     H_    0.283560 0.967256 0.799608 0.187058
H18   H     H_    0.716449 0.032700 0.200397 0.187052
H19   H     H_    0.783524 0.467357 0.799585 0.187067
H20   H     H_    0.216452 0.532690 0.200392 0.187065
H21   H     H_    0.448114 0.004548 0.185897 0.195309
H22   H     H_    0.551883 0.995435 0.814095 0.195329
H23   H     H_    0.948115 0.504605 0.185906 0.195342
H24   H     H_    0.051886 0.495417 0.814106 0.195309
H25   H     H_    0.691123 0.999969 0.490588 0.180081
H26   H     H_    0.308877 0.000029 0.509415 0.180065
H27   H     H_    0.191131 0.499885 0.490578 0.180138
H28   H     H_    0.808870 0.500098 0.509415 0.180139
H29   H     H_    0.255979 0.990250 0.618372 0.169013
H30   H     H_    0.744025 0.009730 0.381635 0.169015
H31   H     H_    0.755958 0.490347 0.618356 0.169044
H32   H     H_    0.244031 0.509660 0.381624 0.169047
N1    N     N_R   0.433280 0.000000 0.657760 -0.201067
N2    N     N_R   0.566720 0.000000 0.342240 -0.201073
N3    N     N_R   0.933280 0.500000 0.657760 -0.201074
N4    N     N_R   0.066720 0.500000 0.342240 -0.201071
O1    O     O_R   0.600040 0.935040 0.546740 -0.538835
O2    O     O_R   0.399960 0.064960 0.453260 -0.538810
O3    O     O_R   0.399960 0.935040 0.453260 -0.580453
O4    O     O_R   0.600040 0.064960 0.546740 -0.580461
O5    O     O_R   0.100040 0.435040 0.546740 -0.538850
O6    O     O_R   0.899960 0.564960 0.453260 -0.538872
O7    O     O_R   0.899960 0.435040 0.453260 -0.580409
O8    O     O_R   0.100040 0.564960 0.546740 -0.580381
O9    O     O_R   0.555010 0.935070 0.653220 -0.580831
O10   O     O_R   0.444990 0.064930 0.346780 -0.580832
O11   O     O_R   0.444990 0.935070 0.346780 -0.538928
O12   O     O_R   0.555010 0.064930 0.653220 -0.538911
O13   O     O_R   0.055010 0.435070 0.653220 -0.580827
O14   O     O_R   0.944990 0.564930 0.346780 -0.580820
O15   O     O_R   0.944990 0.435070 0.346780 -0.538898
O16   O     O_R   0.055010 0.564930 0.653220 -0.538928
Br1   Br    Br    0.486686 0.706914 0.072322 -0.374408
Br2   Br    Br    0.513349 0.292932 0.927877 -0.374481
Br3   Br    Br    0.631079 0.845214 0.129765 -0.450386
Br4   Br    Br    0.368775 0.154726 0.870103 -0.450393
Br5   Br    Br    0.986662 0.206981 0.072151 -0.374499
Br6   Br    Br    0.013217 0.793275 0.927431 -0.374299
Br7   Br    Br    0.131163 0.345228 0.129823 -0.450413
Br8   Br    Br    0.868960 0.654841 0.870292 -0.450445
Br9   Br    Br    0.356870 0.922959 0.024419 -0.492589
Br10  Br    Br    0.643144 0.077004 0.975596 -0.492612
Br11  Br    Br    0.856806 0.423054 0.024378 -0.492582
Br12  Br    Br    0.143140 0.577016 0.975584 -0.492580
Br13  Br    Br    0.438212 0.778971 0.336766 -0.433636
Br14  Br    Br    0.561738 0.220989 0.663296 -0.433582
Br15  Br    Br    0.708217 0.930310 0.902614 -0.448259
Br16  Br    Br    0.291754 0.069683 0.097392 -0.448216
Br17  Br    Br    0.938352 0.279069 0.336627 -0.433551
Br18  Br    Br    0.061737 0.720998 0.663267 -0.433616
Br19  Br    Br    0.208236 0.430287 0.902613 -0.448306
Br20  Br    Br    0.791807 0.569732 0.097393 -0.448284
Br21  Br    Br    0.217930 0.974733 0.267964 -0.444746
Br22  Br    Br    0.782106 0.025330 0.731989 -0.444734
Br23  Br    Br    0.660093 0.822855 0.507413 -0.335624
Br24  Br    Br    0.339867 0.177120 0.492571 -0.335583
Br25  Br    Br    0.717825 0.474522 0.268178 -0.444810
Br26  Br    Br    0.282140 0.525425 0.731843 -0.444825
Br27  Br    Br    0.160195 0.322916 0.507462 -0.335634
Br28  Br    Br    0.839854 0.677106 0.492578 -0.335661

loop_
_geom_bond_atom_site_label_1
_geom_bond_atom_site_label_2
_ccdc_geom_bond_type
C22   N2    A    
C11   Br3   S    
C29   C33   A    
C15   C91   A    
C33   C45   A    
C5    C56   S    
C9    Br1   S    
C103  C112  A    
C6    C55   S    
C26   H21   S    
C53   C69   A    
C44   Br12  S    
C72   Br27  S    
C79   C87   A    
C12   Br4   S    
C74   Br13  S    
C13   Br5   S    
C99   C108  A    
C62   C70   A    
C98   C105  A    
C57   C89   A    
Cu3   O5    S    
C32   C36   A    
C41   Br9   S    
C51   C75   A    
C21   H26   S    
C50   C74   A    
C61   C93   A    
C7    O7    A    
C10   C94   A    
C24   H27   S    
C9    C105  A    
Cu3   Cu4   S    
C66   Br21  S    
C63   C95   A    
C63   H3    S    
C30   C38   A    
C25   N1    A    
C42   C46   A    
C7    O15   A    
C37   C42   A    
C60   H8    S    
C14   C90   A    
C13   C109  A    
C86   C94   A    
C59   C67   A    
Cu1   O10   S    
C85   C93   A    
C58   C66   A    
C40   C43   A    
C20   C24   A    
C43   Br11  S    
C6    O14   A    
C56   C72   A    
C87   C95   A    
Cu3   N4    S    
C20   H32   S    
C110  H14   S    
C34   C46   A    
C5    O13   A    
C76   Br15  S    
C24   N4    A    
C97   C102  A    
C52   C68   A    
C3    O11   A    
C81   C89   A    
C16   Br8   S    
C32   C40   A    
C99   C104  A    
C77   C85   A    
C2    O2    A    
C83   C99   A    
C25   C29   A    
C77   Br18  S    
C82   C98   A    
C76   C84   A    
C28   H23   S    
C17   C33   A    
C74   C82   A    
C75   Br16  S    
C73   C81   A    
C88   C104  A    
C3    C50   S    
C60   C92   A    
C59   H7    S    
C58   H6    S    
C8    O16   A    
C79   Br20  S    
C30   C34   A    
C27   C31   A    
C84   C100  A    
C15   C111  A    
C26   N2    A    
C64   C96   A    
Cu4   O7    S    
C57   C65   A    
C39   C40   A    
C12   C108  A    
C67   Br24  S    
Cu2   O9    S    
C59   C91   A    
C68   Br23  S    
C52   C76   A    
C101  C110  A    
C61   H1    S    
C100  C103  A    
C112  H16   S    
C88   C96   A    
C8    C53   S    
C19   C23   A    
C17   C21   A    
Cu4   O6    S    
C37   C38   A    
C46   H18   S    
C55   C79   A    
Cu2   O12   S    
C54   C70   A    
C28   C32   A    
Cu1   O11   S    
C4    O12   A    
C47   H19   S    
C78   Br17  S    
C51   C67   A    
C82   C90   A    
C108  H12   S    
Cu3   O14   S    
C1    O1    A    
C18   C34   A    
C49   C65   A    
C38   C41   A    
C87   C103  A    
C97   C106  A    
C111  H15   S    
C4    O4    A    
C63   C71   A    
C28   N4    A    
C21   N1    A    
C62   C94   A    
C11   C107  A    
C53   C77   A    
C49   C73   A    
Cu4   O13   S    
C10   C106  A    
C3    O3    A    
Cu1   O4    S    
Cu3   O15   S    
C8    O8    A    
C9    C93   A    
Cu2   O3    S    
C85   C101  A    
C16   C112  A    
Cu1   Cu2   S    
C11   C95   A    
C14   C110  A    
C23   N3    A    
C100  C107  A    
C27   N3    A    
C13   C89   A    
C18   C22   A    
C45   H17   S    
Cu1   N2    S    
C48   H20   S    
C12   C96   A    
Cu2   N1    S    
Cu1   O1    S    
C18   H30   S    
C57   H5    S    
C64   H4    S    
C17   H29   S    
C6    O6    A    
C104  C111  A    
C50   C66   A    
C16   C92   A    
C39   C44   A    
C15   Br7   S    
C10   Br2   S    
C98   C101  A    
C83   C91   A    
C106  H10   S    
C5    O5    A    
C27   H24   S    
C56   C80   A    
C105  H9    S    
Cu3   O8    S    
C58   C90   A    
C61   C69   A    
C25   H22   S    
C4    C49   S    
C107  H11   S    
C80   C88   A    
C19   C35   A    
C109  H13   S    
C73   Br14  S    
C75   C83   A    
C71   Br28  S    
C81   C97   A    
C42   Br10  S    
C70   Br25  S    
C22   H25   S    
C69   Br26  S    
C80   Br19  S    
C31   C39   A    
C36   C48   A    
C31   C35   A    
C64   C72   A    
C23   H28   S    
C1    C52   S    
C19   H31   S    
C62   H2    S    
C2    C51   S    
C1    O9    A    
C20   C36   A    
C65   Br22  S    
C60   C68   A    
C14   Br6   S    
C78   C86   A    
C29   C37   A    
C41   C45   A    
Cu4   O16   S    
C102  C109  A    
C84   C92   A    
C7    C54   S    
C35   C47   A    
C43   C47   A    
Cu2   O2    S    
Cu4   N3    S    
C55   C71   A    
C44   C48   A    
C2    O10   A    
C54   C78   A    
C26   C30   A    
C86   C102  A    
