data_mof_unit_7329.cif
_audit_creation_date              2012-12-10T17:16:36-0500
_audit_creation_method            fapswitch 2.2
_symmetry_space_group_name_H-M    P1
_symmetry_Int_Tables_number       1
_space_group_crystal_system       triclinic
_cell_length_a                    10.02833
_cell_length_b                    10.671319
_cell_length_c                    10.895113
_cell_angle_alpha                 90.370654
_cell_angle_beta                  93.890267
_cell_angle_gamma                 83.721593
_cell_volume                      1156.28202398

loop_
_atom_site_label
_atom_site_type_symbol
_atom_type_description
_atom_site_fract_x
_atom_site_fract_y
_atom_site_fract_z
_atom_type_partial_charge
C1    C     C_R   0.444857 0.501961 0.268858 0.981488
C2    C     C_R   0.553189 0.492671 0.732907 0.948678
C3    C     C_2   0.412145 0.502014 0.140247 -0.471056
C4    C     C_2   0.573157 0.482602 0.865271 -0.507850
C5    C     C_2   0.492700 0.439327 0.063028 0.447553
C6    C     C_2   0.466835 0.471974 0.933888 0.386500
C7    C     C_2   0.073525 0.485425 0.493692 -0.103222
C8    C     C_2   0.928219 0.506425 0.513884 -0.110254
C9    C     C_R   0.494180 0.259352 0.493411 0.882948
C10   C     C_R   0.508307 0.738468 0.515093 0.873893
C11   C     C_R   0.668693 0.095251 0.345269 -0.206375
C12   C     C_R   0.354388 0.891395 0.688987 -0.240980
C13   C     C_R   0.788153 0.027671 0.313148 -0.266240
C14   C     C_R   0.242773 0.959464 0.735131 -0.252426
C15   C     C_R   0.834444 0.913849 0.372701 0.532521
C16   C     C_R   0.200087 0.080185 0.691348 0.531740
C17   C     C_R   0.750966 0.862612 0.451745 -0.185910
C18   C     C_R   0.273904 0.134278 0.604885 -0.268549
C19   C     C_R   0.623533 0.925655 0.476321 0.008740
C20   C     C_R   0.394893 0.069953 0.563953 0.019360
C21   C     C_R   0.591160 0.049316 0.435814 0.073932
C22   C     C_R   0.425906 0.943320 0.597978 0.088540
C23   C     C_R   0.526995 0.869471 0.539432 -0.207494
C24   C     C_R   0.484630 0.124662 0.488660 -0.195523
H1    H     H_    0.637927 0.184246 0.299526 0.197607
H2    H     H_    0.385352 0.797653 0.724762 0.145841
H3    H     H_    0.846074 0.065564 0.244754 0.137756
H4    H     H_    0.187325 0.917161 0.802564 0.151545
H5    H     H_    0.791147 0.776246 0.498001 0.169423
H6    H     H_    0.228078 0.222479 0.566744 0.184623
H7    H     H_    0.675068 0.476202 0.907518 0.147013
H8    H     H_    0.321623 0.560414 0.110431 0.126862
H9    H     H_    0.892742 0.571754 0.584335 0.147219
H10   H     H_    0.110387 0.413933 0.429247 0.151298
H11   H     H_    0.879246 0.387115 0.382593 0.173736
H12   H     H_    0.118425 0.620895 0.608881 0.156128
N1    N     N_2   0.157300 0.551390 0.551120 -0.196618
N2    N     N_2   0.842700 0.448610 0.448880 -0.183881
O1    O     O_R   0.568940 0.489660 0.307530 -0.555258
O2    O     O_R   0.431060 0.510340 0.692470 -0.576898
O3    O     O_R   0.348880 0.522640 0.340350 -0.621435
O4    O     O_R   0.651120 0.477360 0.659650 -0.621506
O5    O     O_R   0.610030 0.300280 0.483580 -0.600029
O6    O     O_R   0.389970 0.699720 0.516420 -0.618802
O7    O     O_R   0.389970 0.333270 0.516400 -0.634783
O8    O     O_R   0.610030 0.666730 0.483600 -0.625762
Zn1   Zn    Zn3+2 0.646940 0.477980 0.478080 0.968919
Zn2   Zn    Zn3+2 0.353060 0.522020 0.521920 0.937210
O9    O     O_3   0.078478 0.140392 0.723850 -0.658098
C25   C     C_3   0.100304 0.229620 0.817672 0.085490
H13   H     H_    0.018658 0.308470 0.804560 0.169487
H14   H     H_    0.196916 0.271922 0.813193 0.170382
C26   C     C_3   0.092037 0.170596 0.944519 -0.371072
H15   H     H_    0.998213 0.124032 0.945552 0.232288
H16   H     H_    0.179027 0.097974 0.963240 0.214650
C27   C     C_3   0.092233 0.269529 0.046332 -0.966595
H17   H     H_    0.185603 0.316810 0.048415 0.278167
H18   H     H_    0.086950 0.223536 0.136707 0.264617
H19   H     H_    0.003700 0.341283 0.031544 0.267811
O10   O     O_3   0.953178 0.843188 0.345479 -0.654456
C28   C     C_3   0.065304 0.912954 0.363799 0.093756
H20   H     H_    0.138038 0.861071 0.432111 0.190279
H21   H     H_    0.041967 0.009679 0.401995 0.126330
C29   C     C_3   0.132493 0.920496 0.242520 -0.348487
H22   H     H_    0.157373 0.823754 0.206186 0.239850
H23   H     H_    0.061988 0.974243 0.173841 0.210184
C30   C     C_3   0.261193 0.984465 0.259554 -0.962739
H24   H     H_    0.239930 0.080802 0.297746 0.262292
H25   H     H_    0.304568 0.991763 0.169308 0.265922
H26   H     H_    0.335984 0.927937 0.322313 0.279563
O11   O     O_3   0.334132 0.473433 0.884563 -0.642544
C31   C     C_3   0.265538 0.597682 0.880527 0.103988
H27   H     H_    0.261457 0.635864 0.786206 0.176308
H28   H     H_    0.314304 0.666807 0.940797 0.100052
C32   C     C_3   0.119908 0.592190 0.912775 -0.371503
H29   H     H_    0.071197 0.527648 0.847735 0.218680
H30   H     H_    0.117531 0.554363 0.007122 0.231135
C33   C     C_3   0.038899 0.721820 0.904987 -0.977085
H31   H     H_    0.086666 0.789298 0.967333 0.261135
H32   H     H_    0.935639 0.714483 0.933046 0.276806
H33   H     H_    0.031575 0.757717 0.809047 0.256310
O12   O     O_3   0.601255 0.354615 0.107217 -0.648664
C34   C     C_3   0.614130 0.241489 0.037258 0.056632
H34   H     H_    0.703235 0.181586 0.078236 0.168207
H35   H     H_    0.637387 0.257784 0.941029 0.147831
C35   C     C_3   0.490980 0.167348 0.040072 -0.393152
H36   H     H_    0.464816 0.156161 0.136497 0.227389
H37   H     H_    0.403462 0.219451 0.988011 0.234628
C36   C     C_3   0.518086 0.037562 0.981359 -0.935079
H38   H     H_    0.544592 0.047163 0.884731 0.273598
H39   H     H_    0.426676 0.987545 0.980915 0.254747
H40   H     H_    0.601619 0.980329 0.034260 0.270738

loop_
_geom_bond_atom_site_label_1
_geom_bond_atom_site_label_2
_ccdc_geom_bond_type
C9    O7    A    
C17   H5    S    
C15   O10   S    
C2    C4    S    
C7    C8    S    
C26   H15   S    
H12   N1    S    
C19   C21   A    
C1    C3    S    
C5    C6    S    
C35   H37   S    
O7    Zn2   S    
C11   H1    S    
C12   C22   A    
C27   H17   S    
C15   C17   A    
C28   H21   S    
C20   C24   A    
C10   O8    A    
C25   H14   S    
C18   H6    S    
C36   H39   S    
C18   C20   A    
C8    H9    S    
C28   H20   S    
C8    N2    D    
C31   C32   S    
C26   H16   S    
C6    O11   S    
C9    O5    A    
C25   C26   S    
C10   O6    A    
C30   H24   S    
C29   C30   S    
H11   N2    S    
C16   O9    S    
C31   H28   S    
C35   H36   S    
C11   C21   A    
C12   H2    S    
O10   C28   S    
N1    Zn2   S    
C29   H23   S    
C28   C29   S    
C19   C23   A    
C32   H29   S    
C34   H34   S    
C25   H13   S    
C7    N1    D    
C36   H40   S    
C32   H30   S    
N2    Zn1   S    
C1    O3    A    
C34   H35   S    
C12   C14   A    
O12   C34   S    
C13   C15   A    
C7    H10   S    
C14   C16   A    
C4    C6    D    
O1    Zn1   S    
C26   C27   S    
O2    Zn2   S    
O8    Zn1   S    
C33   H31   S    
C20   C22   A    
C31   H27   S    
C3    C5    D    
C35   C36   S    
C9    C24   S    
C10   C23   S    
C27   H19   S    
C30   H26   S    
C14   H4    S    
C29   H22   S    
O11   C31   S    
C5    O12   S    
C11   C13   A    
C33   H33   S    
C2    O4    A    
C17   C19   A    
O3    Zn2   S    
C27   H18   S    
C33   H32   S    
O4    Zn1   S    
C3    H8    S    
C32   C33   S    
C4    H7    S    
C1    O1    A    
C2    O2    A    
C34   C35   S    
C16   C18   A    
O9    C25   S    
C21   C24   A    
C22   C23   A    
C13   H3    S    
C30   H25   S    
C36   H38   S    
O5    Zn1   S    
O6    Zn2   S    
