data_mof_unit_31746.cif
_audit_creation_date              2012-12-10T17:45:33-0500
_audit_creation_method            fapswitch 2.2
_symmetry_space_group_name_H-M    P1
_symmetry_Int_Tables_number       1
_space_group_crystal_system       triclinic
_cell_length_a                    11.509691
_cell_length_b                    10.671051
_cell_length_c                    10.004877
_cell_angle_alpha                 90.586871
_cell_angle_beta                  88.376197
_cell_angle_gamma                 94.652435
_cell_volume                      1224.22441816

loop_
_atom_site_label
_atom_site_type_symbol
_atom_type_description
_atom_site_fract_x
_atom_site_fract_y
_atom_site_fract_z
_atom_type_partial_charge
C1    C     C_R   0.518670 0.263838 0.499898 0.877329
C2    C     C_R   0.500072 0.875522 0.503208 -0.086249
C3    C     C_R   0.354899 0.328134 0.153567 -0.296704
C4    C     C_R   0.282319 0.500302 0.501374 0.909791
C5    C     C_R   0.277693 0.237601 0.101783 0.354742
C6    C     C_R   0.259983 0.237699 0.966092 0.052801
C7    C     C_R   0.331341 0.319110 0.879308 0.103870
C8    C     C_R   0.421256 0.412157 0.932310 0.100029
C9    C     C_R   0.426081 0.413857 0.076533 0.079957
C10   C     C_R   0.574713 0.577835 0.069164 -0.106495
C11   C     C_R   0.574938 0.577712 0.926936 -0.115399
C12   C     C_R   0.522773 0.072000 0.870285 0.239694
C13   C     C_R   0.495767 0.740223 0.501019 0.862311
C14   C     C_R   0.717804 0.500868 0.498481 0.882555
C15   C     C_1   0.161641 0.499652 0.503514 -0.170832
C16   C     C_1   0.059324 0.499189 0.501668 0.033237
C17   C     C_1   0.940661 0.499306 0.497784 0.022256
C18   C     C_1   0.838399 0.499945 0.496040 -0.173715
C19   C     C_R   0.567080 0.125045 0.749972 -0.213215
C20   C     C_3   0.048672 0.220710 0.933980 -0.673946
C21   C     C_3   0.272313 0.206784 0.670182 -0.594418
C22   C     C_3   0.664644 0.161720 0.027866 -0.791040
C23   C     C_R   0.447078 0.961630 0.864617 0.149123
C24   C     C_3   0.416122 0.817460 0.048102 -0.751356
C25   C     C_R   0.436629 0.894630 0.743421 -0.265298
C26   C     C_R   0.492338 0.943261 0.624988 0.072906
C27   C     C_R   0.538295 0.067945 0.626185 0.033874
C28   C     C_R   0.543715 0.133170 0.503480 -0.086803
C29   C     C_R   0.548037 0.067274 0.383221 -0.183338
C30   C     C_R   0.532343 0.938418 0.383836 -0.225248
H1    H     H_    0.559171 0.115365 0.288981 0.173277
H2    H     H_    0.059983 0.321451 0.964271 0.232129
H3    H     H_    0.994531 0.167747 0.011402 0.279796
H4    H     H_    0.213971 0.369078 0.749465 0.229908
H5    H     H_    0.296462 0.226391 0.564440 0.262807
H6    H     H_    0.178757 0.171922 0.669546 0.224689
H7    H     H_    0.323582 0.132289 0.708467 0.223328
H8    H     H_    0.490763 0.107185 0.072953 0.247227
H9    H     H_    0.716438 0.212190 0.946977 0.244134
H10   H     H_    0.670894 0.222420 0.118542 0.250027
H11   H     H_    0.702534 0.071595 0.048466 0.244371
H12   H     H_    0.635607 0.642745 0.872814 0.152567
H13   H     H_    0.289384 0.907874 0.956225 0.246584
H14   H     H_    0.369035 0.807613 0.146290 0.256832
H15   H     H_    0.511150 0.832621 0.065333 0.232830
H16   H     H_    0.397083 0.729681 0.989500 0.240751
H17   H     H_    0.310175 0.023515 0.313225 0.371831
H18   H     H_    0.619366 0.213865 0.753055 0.181223
H19   H     H_    0.379606 0.808936 0.741731 0.180183
H20   H     H_    0.542011 0.888814 0.290058 0.172522
H21   H     H_    0.635391 0.642985 0.120600 0.142405
H22   H     H_    0.352517 0.331494 0.258221 0.270980
H23   H     H_    0.158802 0.070675 0.916395 0.259037
H24   H     H_    0.002006 0.213799 0.838321 0.214387
N1    N     N_R   0.498930 0.498800 0.142780 -0.097495
N2    N     N_R   0.498900 0.498720 0.857170 -0.100781
N3    N     N_2   0.159839 0.167191 0.915973 -0.292773
N4    N     N_2   0.289261 0.322407 0.748366 -0.228405
N5    N     N_2   0.543490 0.137944 0.993122 -0.313646
N6    N     N_2   0.376532 0.922450 0.977726 -0.316693
O1    O     O_R   0.500000 0.316780 0.614690 -0.601775
O2    O     O_2   0.143451 0.018742 0.150462 -0.331743
O3    O     O_3   0.275358 0.101383 0.342628 -0.583335
O4    O     O_R   0.499990 0.316750 0.385360 -0.633032
O5    O     O_R   0.334450 0.500030 0.614670 -0.612375
O6    O     O_R   0.334440 0.500000 0.385330 -0.617868
O7    O     O_R   0.500010 0.683250 0.614640 -0.620144
O8    O     O_R   0.500000 0.683220 0.385310 -0.621589
O9    O     O_R   0.665560 0.500000 0.614670 -0.619358
O10   O     O_R   0.665550 0.499970 0.385330 -0.608003
O11   O     O_2   0.093757 0.208443 0.270863 -0.270840
S1    S     S_3+6 0.192665 0.138327 0.215421 -0.001421
Zn1   Zn    Zn3+2 0.500010 0.500020 0.653130 0.950295
Zn2   Zn    Zn3+2 0.499990 0.499980 0.346870 0.946741

loop_
_geom_bond_atom_site_label_1
_geom_bond_atom_site_label_2
_ccdc_geom_bond_type
O10   Zn2   S    
C1    C28   S    
C3    H22   S    
O9    Zn1   S    
C29   C30   A    
C21   H5    S    
C19   C27   A    
H4    N4    S    
C14   C18   S    
C7    N4    S    
C12   C23   A    
C2    C30   A    
C24   N6    S    
C24   H16   S    
C8    N2    A    
C4    C15   S    
C17   C18   T    
C30   H20   S    
O2    S1    D    
O11   S1    D    
C2    C26   A    
C21   H6    S    
C12   N5    S    
C4    O6    A    
C3    C9    A    
C14   O10   A    
C6    N3    S    
C26   C27   A    
C6    C7    A    
C11   N2    A    
H13   N6    S    
C9    N1    A    
C20   H3    S    
C4    O5    A    
C28   C29   A    
C25   C26   A    
C10   N1    A    
C5    S1    S    
C23   C25   A    
H17   O3    S    
C23   N6    S    
C24   H14   S    
C14   O9    A    
C25   H19   S    
C22   H11   S    
C10   C11   A    
C24   H15   S    
O7    Zn1   S    
O8    Zn2   S    
C15   C16   T    
O6    Zn2   S    
C1    O4    A    
C3    C5    A    
C10   H21   S    
C7    C8    A    
C21   H7    S    
O3    S1    S    
C12   C19   A    
C11   H12   S    
C20   H24   S    
C20   H2    S    
O5    Zn1   S    
C22   N5    S    
C5    C6    A    
C2    C13   S    
O4    Zn2   S    
C22   H10   S    
C16   C17   S    
H23   N3    S    
N2    Zn1   S    
C19   H18   S    
O1    Zn1   S    
C20   N3    S    
C29   H1    S    
N1    Zn2   S    
C22   H9    S    
C13   O7    A    
C21   N4    S    
H8    N5    S    
C8    C9    A    
C27   C28   A    
C13   O8    A    
C1    O1    A    
