data_mof_unit_10971.cif
_audit_creation_date              2012-12-10T19:34:39-0500
_audit_creation_method            fapswitch 2.2
_symmetry_space_group_name_H-M    P1
_symmetry_Int_Tables_number       1
_space_group_crystal_system       triclinic
_cell_length_a                    10.941865
_cell_length_b                    15.807188
_cell_length_c                    16.94461
_cell_angle_alpha                 94.680123
_cell_angle_beta                  93.570619
_cell_angle_gamma                 92.317689
_cell_volume                      2912.24544266

loop_
_atom_site_label
_atom_site_type_symbol
_atom_type_description
_atom_site_fract_x
_atom_site_fract_y
_atom_site_fract_z
_atom_type_partial_charge
C1    C     C_R   0.520977 0.491063 0.350882 0.890142
C2    C     C_R   0.062109 0.419939 0.532975 0.042322
C3    C     C_R   0.131234 0.498352 0.527974 -0.158735
C4    C     C_R   0.073881 0.575745 0.548314 -0.165224
C5    C     C_R   0.945689 0.575263 0.554112 0.374809
C6    C     C_R   0.874077 0.499544 0.531767 -0.154875
C7    C     C_R   0.556341 0.491197 0.267270 -0.225863
C8    C     C_R   0.584410 0.568899 0.233647 -0.176749
C9    C     C_R   0.564211 0.571832 0.150389 -0.128062
C10   C     C_R   0.528135 0.496084 0.103417 0.258367
C11   C     C_R   0.530414 0.418344 0.136997 -0.182503
C12   C     C_R   0.262863 0.499873 0.508346 0.897372
C13   C     C_R   0.558079 0.415292 0.218120 0.335815
C14   C     C_R   0.501640 0.435376 0.859083 0.319255
C15   C     C_R   0.457767 0.445390 0.780355 0.215158
C16   C     C_R   0.576035 0.501435 0.901688 0.189921
C17   C     C_R   0.509818 0.511226 0.739670 -0.203148
C18   C     C_R   0.586351 0.574543 0.781906 -0.226041
C19   C     C_R   0.619991 0.570720 0.862480 -0.109626
C20   C     C_R   0.442606 0.754995 0.458036 0.055597
C21   C     C_R   0.432475 0.844769 0.470312 -0.225775
C22   C     C_R   0.499076 0.890760 0.535809 0.274405
C23   C     C_R   0.498712 0.509268 0.652014 0.945907
C24   C     C_R   0.563825 0.844094 0.591074 -0.192968
C25   C     C_R   0.571112 0.755551 0.575637 0.086058
C26   C     C_R   0.542814 0.165631 0.561014 -0.215457
C27   C     C_R   0.532014 0.253850 0.556793 -0.001334
C28   C     C_R   0.512093 0.109596 0.492616 0.140996
C29   C     C_R   0.441041 0.232928 0.425567 0.535020
C30   C     C_R   0.470111 0.145124 0.422479 0.242051
C31   C     C_R   0.738590 0.500164 0.510108 0.902410
C32   C     C_R   0.116360 0.340187 0.541500 -0.082199
C33   C     C_R   0.045266 0.264338 0.537285 0.345894
C34   C     C_R   0.918077 0.268669 0.535275 -0.117275
C35   C     C_R   0.869021 0.347136 0.555800 -0.080648
C36   C     C_R   0.933123 0.421803 0.536865 -0.022505
Cu1   Cu    Cu3+1 0.493970 0.415220 0.496180 1.097307
Cu2   Cu    Cu3+1 0.506030 0.584780 0.503820 1.071706
H1    H     H_    0.622403 0.626594 0.751437 0.243117
H2    H     H_    0.561716 0.295628 0.608223 0.199575
H3    H     H_    0.615467 0.720503 0.619980 0.216879
H4    H     H_    0.212116 0.334046 0.555416 0.249033
H5    H     H_    0.522626 0.360151 0.098477 0.230235
N1    N     N_2   0.504497 0.495711 0.020511 -0.135668
N2    N     N_2   0.600465 0.501732 0.984910 -0.130311
N3    N     N_R   0.515100 0.712130 0.509560 -0.217780
N4    N     N_2   0.495181 0.981886 0.548573 -0.143291
N5    N     N_2   0.524700 0.018969 0.489534 -0.112083
N6    N     N_R   0.484890 0.287850 0.490450 -0.252227
O1    O     O_R   0.494360 0.420530 0.382500 -0.500556
O2    O     O_R   0.504550 0.563720 0.388950 -0.594309
O3    O     O_R   0.314550 0.428390 0.496780 -0.553472
O4    O     O_R   0.324740 0.571580 0.503230 -0.578413
O5    O     O_R   0.495450 0.436280 0.611050 -0.571702
O6    O     O_R   0.505640 0.579470 0.617500 -0.590430
O7    O     O_R   0.675260 0.428420 0.496770 -0.591672
O8    O     O_R   0.685450 0.571610 0.503220 -0.505452
C37   C     C_2   0.146954 0.656640 0.569945 1.013175
O9    O     O_2   0.230607 0.659761 0.621653 -0.577437
O10   O     O_R   0.115391 0.730222 0.534395 -0.662402
H6    H     H_    0.170653 0.781382 0.554835 0.347546
S1    S     S_3+6 0.656002 0.334427 0.245604 0.104237
O11   O     O_2   0.628035 0.302605 0.323674 -0.182528
O12   O     O_2   0.646947 0.261076 0.182908 -0.225950
O13   O     O_3   0.800801 0.375547 0.254116 -0.476392
H7    H     H_    0.814990 0.395747 0.201476 0.359342
C38   C     C_2   0.583822 0.651092 0.110699 0.985645
O14   O     O_2   0.681424 0.692081 0.121766 -0.533120
O15   O     O_R   0.492127 0.676733 0.057807 -0.716993
H8    H     H_    0.517036 0.730540 0.033023 0.355956
C39   C     C_2   0.704548 0.638554 0.903783 0.946436
O16   O     O_2   0.710896 0.708935 0.878738 -0.544143
O17   O     O_R   0.779751 0.621705 0.969904 -0.704345
H9    H     H_    0.834418 0.672662 0.991696 0.371568
C40   C     C_2   0.647145 0.641821 0.284178 0.996176
O18   O     O_2   0.722377 0.627853 0.337479 -0.552180
O19   O     O_R   0.622413 0.725804 0.270919 -0.665976
H10   H     H_    0.670718 0.768643 0.309869 0.365904
C41   C     C_2   0.593686 0.136095 0.636229 0.995302
O20   O     O_2   0.674618 0.085070 0.635916 -0.477211
O21   O     O_R   0.551957 0.169214 0.708077 -0.686673
H11   H     H_    0.594621 0.145088 0.755544 0.375587
C42   C     C_2   0.619237 0.884479 0.667729 0.933438
O22   O     O_2   0.573050 0.945826 0.700675 -0.520350
O23   O     O_R   0.721492 0.849760 0.704328 -0.707790
H12   H     H_    0.749862 0.881911 0.756925 0.379137
S2    S     S_3+6 0.328212 0.262263 0.351916 0.109519
O24   O     O_2   0.276034 0.347138 0.369068 -0.285001
O25   O     O_2   0.380123 0.261238 0.271988 -0.215079
O26   O     O_3   0.209958 0.190390 0.346295 -0.447167
H13   H     H_    0.154505 0.205638 0.301719 0.396896
C43   C     C_2   0.341579 0.888497 0.420411 0.967922
O27   O     O_2   0.278966 0.942805 0.451155 -0.501146
O28   O     O_R   0.325643 0.866401 0.338700 -0.672639
H14   H     H_    0.256314 0.896716 0.312334 0.382717
S3    S     S_3+6 0.462972 0.080243 0.330088 0.107005
O29   O     O_2   0.533971 0.001354 0.336286 -0.250897
O30   O     O_2   0.332102 0.054559 0.304257 -0.206249
O31   O     O_3   0.524477 0.134095 0.259847 -0.411575
H15   H     H_    0.506805 0.097486 0.209825 0.398795
C44   C     C_2   0.360552 0.707271 0.395586 0.949779
O32   O     O_2   0.255322 0.687899 0.409183 -0.570758
O33   O     O_R   0.398083 0.693206 0.318714 -0.700795
H16   H     H_    0.332493 0.662354 0.280833 0.348067
S4    S     S_3+6 0.116250 0.166210 0.543731 0.117192
O34   O     O_2   0.067995 0.123187 0.612160 -0.181938
O35   O     O_2   0.086834 0.110149 0.468448 -0.173792
O36   O     O_3   0.268562 0.181093 0.558979 -0.537894
H17   H     H_    0.295133 0.131062 0.586014 0.396535
C45   C     C_2   0.836018 0.196050 0.503208 0.923179
O37   O     O_2   0.842885 0.126790 0.529821 -0.455734
O38   O     O_R   0.755725 0.206189 0.437827 -0.717215
H18   H     H_    0.718190 0.149986 0.412822 0.359299
C46   C     C_2   0.797993 0.351476 0.628490 0.839761
O39   O     O_2   0.762576 0.419095 0.656774 -0.588309
O40   O     O_R   0.782057 0.278917 0.669387 -0.741499
H19   H     H_    0.739127 0.290774 0.720203 0.363294
S5    S     S_3+6 0.879432 0.661778 0.607420 0.061771
O41   O     O_2   0.775190 0.627949 0.650743 -0.312266
O42   O     O_2   0.969818 0.707892 0.668217 -0.241033
O43   O     O_3   0.829459 0.729517 0.542236 -0.482781
H20   H     H_    0.847955 0.787081 0.568988 0.398036
S6    S     S_3+6 0.321820 0.389299 0.738699 0.081817
O44   O     O_2   0.354170 0.312561 0.687451 -0.202607
O45   O     O_2   0.242539 0.361372 0.801952 -0.163968
O46   O     O_3   0.241267 0.453595 0.683377 -0.582872
H21   H     H_    0.220282 0.501262 0.721017 0.366955
S7    S     S_3+6 0.477963 0.337384 0.902207 0.094974
O47   O     O_2   0.370165 0.342740 0.952920 -0.220262
O48   O     O_2   0.454613 0.265016 0.839266 -0.179617
O49   O     O_3   0.603947 0.318176 0.958821 -0.518510
H22   H     H_    0.585863 0.262287 0.979079 0.389136

loop_
_geom_bond_atom_site_label_1
_geom_bond_atom_site_label_2
_ccdc_geom_bond_type
S2    O24   D    
O46   H21   S    
O17   H9    S    
C19   C39   S    
C35   C36   A    
C40   O18   D    
S7    O47   D    
O21   H11   S    
C14   S7    S    
S6    O44   D    
C29   N6    A    
O19   H10   S    
O40   H19   S    
S4    O35   D    
C26   C27   A    
C44   O32   D    
C15   S6    S    
C42   O22   D    
C24   C42   S    
C18   C19   A    
C5    C6    A    
S6    O45   D    
C37   O10   S    
S3    O31   S    
Cu1   N6    S    
O36   H17   S    
C35   C46   S    
C2    C32   A    
C34   C35   A    
S5    O41   D    
S1    O12   D    
C3    C12   S    
C45   O37   D    
Cu1   O7    S    
Cu2   O6    S    
O31   H15   S    
C8    C9    A    
S3    O30   D    
C30   S3    S    
C11   H5    S    
C31   O7    A    
C29   C30   A    
C1    O1    A    
C12   O4    A    
C6    C31   S    
C44   O33   S    
C21   C22   A    
O15   H8    S    
O38   H18   S    
C12   O3    A    
C33   C34   A    
S5    O42   D    
S4    O36   S    
C29   S2    S    
C13   S1    S    
C10   N1    S    
C38   O14   D    
C7    C8    A    
C33   S4    S    
C24   C25   A    
C25   H3    S    
C39   O17   S    
Cu1   O3    S    
S6    O46   S    
Cu2   O2    S    
C37   O9    D    
O23   H12   S    
C8    C40   S    
O10   H6    S    
C38   O15   S    
S5    O43   S    
C18   H1    S    
C9    C38   S    
Cu1   Cu2   S    
Cu2   O8    S    
C1    O2    A    
N4    N5    D    
C27   H2    S    
S3    O29   D    
S1    O11   D    
C43   O28   S    
C17   C18   A    
C17   C23   S    
C23   O6    A    
C40   O19   S    
O43   H20   S    
Cu1   O5    S    
C42   O23   S    
S2    O25   D    
C34   C45   S    
C22   C24   A    
C3    C4    A    
S7    O49   S    
N1    N2    D    
C23   O5    A    
C41   O21   S    
C9    C10   A    
C2    C36   A    
C15   C17   A    
C28   N5    S    
S1    O13   S    
C1    C7    S    
C4    C5    A    
S7    O48   D    
C16   N2    S    
C46   O40   S    
C46   O39   D    
C20   C44   S    
S4    O34   D    
C26   C28   A    
C26   C41   S    
C5    S5    S    
C32   C33   A    
C31   O8    A    
C28   C30   A    
C2    C3    A    
C39   O16   D    
Cu1   O1    S    
C11   C13   A    
O26   H13   S    
Cu2   O4    S    
C16   C19   A    
C43   O27   D    
C6    C36   A    
C22   N4    S    
C14   C16   A    
O28   H14   S    
C45   O38   S    
Cu2   N3    S    
C10   C11   A    
C41   O20   D    
C27   N6    A    
C7    C13   A    
C20   C21   A    
O13   H7    S    
S2    O26   S    
C4    C37   S    
O33   H16   S    
C32   H4    S    
C14   C15   A    
C25   N3    A    
C20   N3    A    
O49   H22   S    
C21   C43   S    
