data_mof_unit_39051.cif
_audit_creation_date              2012-12-11T16:56:12-0500
_audit_creation_method            fapswitch 2.2
_symmetry_space_group_name_H-M    P1
_symmetry_Int_Tables_number       1
_space_group_crystal_system       triclinic
_cell_length_a                    6.975116
_cell_length_b                    14.525765
_cell_length_c                    16.20681
_cell_angle_alpha                 90.493443
_cell_angle_beta                  89.78035
_cell_angle_gamma                 90.037426
_cell_volume                      1641.98281766

loop_
_atom_site_label
_atom_site_type_symbol
_atom_type_description
_atom_site_fract_x
_atom_site_fract_y
_atom_site_fract_z
_atom_type_partial_charge
O1    O     O_R   0.505830 0.583360 0.413880 -0.545771
O2    O     O_R   0.175830 0.595460 0.585520 -0.522636
O3    O     O_R   0.005520 0.416640 0.586120 -0.545067
C1    C     C_R   0.344293 0.617247 0.614475 0.721209
O4    O     O_R   0.176120 0.594390 0.414490 -0.550111
O5    O     O_R   0.005810 0.415570 0.413870 -0.545166
C2    C     C_R   0.345432 0.617032 0.386597 0.676784
O6    O     O_R   0.505540 0.584430 0.586130 -0.534631
O7    O     O_3   0.339200 0.441330 0.500000 -0.368372
V1    V     V_3+5 0.064350 0.510880 0.500000 1.437696
O8    O     O_R   0.676100 0.404540 0.414480 -0.544930
C3    C     C_R   0.845288 0.382493 0.385852 0.673037
O9    O     O_R   0.675810 0.405610 0.585510 -0.512183
C4    C     C_R   0.844510 0.382415 0.612715 0.687366
V2    V     V_3+5 0.564340 0.489120 0.500000 1.456178
O10   O     O_3   0.839360 0.558670 0.500000 -0.368922
C5    C     C_2   0.725259 0.213202 0.789552 -0.188261
C6    C     C_2   0.885889 0.189134 0.829715 -0.317671
H1    H     H_    0.592514 0.176971 0.802634 0.142044
H2    H     H_    0.017529 0.227524 0.820007 0.170549
C7    C     C_2   0.716235 0.293165 0.731343 0.441225
C8    C     C_2   0.856735 0.306560 0.674157 0.094594
C9    C     C_R   0.727455 0.181444 0.242870 0.107311
C10   C     C_R   0.882269 0.180428 0.187522 -0.111852
C11   C     C_R   0.034295 0.241864 0.203399 -0.180896
H3    H     H_    0.157208 0.243433 0.162684 0.133497
C12   C     C_R   0.023149 0.306458 0.268568 -0.179652
H4    H     H_    0.138365 0.355585 0.276242 0.126314
C13   C     C_R   0.859322 0.311780 0.319620 -0.106424
C14   C     C_R   0.715973 0.245640 0.307122 0.109890
C15   C     C_3   0.506050 0.258508 0.295206 -0.411826
C16   C     C_3   0.518442 0.188172 0.225484 -0.399901
H5    H     H_    0.471200 0.329004 0.273793 0.162850
H6    H     H_    0.421067 0.234163 0.348928 0.179904
H7    H     H_    0.490016 0.217655 0.163657 0.168594
H8    H     H_    0.441341 0.122990 0.239039 0.172834
C17   C     C_R   0.511608 0.744355 0.692526 -0.052557
C18   C     C_R   0.352436 0.686707 0.682147 -0.126957
C19   C     C_R   0.202440 0.695336 0.740093 -0.078988
H9    H     H_    0.079427 0.650325 0.736105 0.142939
C20   C     C_R   0.215912 0.757431 0.807250 -0.171614
H10   H     H_    0.102710 0.759729 0.852517 0.147324
C21   C     C_R   0.380443 0.811599 0.819698 -0.064892
C22   C     C_R   0.527518 0.803493 0.760989 -0.012346
C23   C     C_3   0.733256 0.778577 0.774004 0.085352
C24   C     C_3   0.718706 0.717209 0.697687 0.338758
H11   H     H_    0.834372 0.837618 0.768650 0.104956
H12   H     H_    0.735643 0.642721 0.711411 0.106561
C25   C     C_R   0.515829 0.687590 0.265281 0.048870
C26   C     C_R   0.355351 0.683319 0.317310 -0.074040
C27   C     C_R   0.202499 0.743048 0.300173 -0.178724
H13   H     H_    0.080354 0.744847 0.340777 0.165331
C28   C     C_R   0.212358 0.805819 0.234477 -0.166914
H14   H     H_    0.095514 0.853599 0.225982 0.132371
C29   C     C_R   0.376803 0.811378 0.183987 -0.087712
C30   C     C_R   0.525591 0.749202 0.199465 0.032174
C31   C     C_3   0.730953 0.770491 0.215430 -0.366664
C32   C     C_3   0.719131 0.705975 0.288370 0.184550
H15   H     H_    0.753840 0.843968 0.232700 0.185608
H16   H     H_    0.825256 0.744297 0.165026 0.130115
H17   H     H_    0.814007 0.644450 0.283115 0.063267
O11   O     O_R   0.229930 0.912420 0.917160 -0.540735
O12   O     O_R   0.559420 0.902500 0.088780 -0.539303
O13   O     O_R   0.729660 0.081330 0.089380 -0.537532
C33   C     C_R   0.390208 0.880846 0.117452 0.696006
O14   O     O_R   0.559650 0.901420 0.917750 -0.545614
O15   O     O_R   0.729880 0.080250 0.917130 -0.537562
C34   C     C_R   0.391099 0.878575 0.889519 0.698133
O16   O     O_R   0.229700 0.913500 0.089410 -0.541219
O17   O     O_3   0.396250 0.055540 0.003280 -0.371550
V3    V     V_3+5 0.671130 0.986010 0.003260 1.391106
O18   O     O_R   0.059600 0.091310 0.917720 -0.542153
C35   C     C_R   0.891115 0.114534 0.890919 0.748030
O19   O     O_R   0.059370 0.092380 0.088750 -0.544575
C36   C     C_R   0.890447 0.114513 0.117291 0.690739
V4    V     V_3+5 0.171120 0.007820 0.003230 1.390181
O20   O     O_3   0.896130 0.938240 0.003240 -0.376453
O21   O     O_3   0.756069 0.725530 0.845304 -0.661956
H18   H     H_    0.781525 0.769387 0.891123 0.301382
O22   O     O_3   0.843546 0.744068 0.632073 -0.554942
C37   C     C_3   0.777957 0.819999 0.586130 -0.202400
H19   H     H_    0.748190 0.880729 0.626329 0.119096
H20   H     H_    0.649500 0.800923 0.549358 0.151846
H21   H     H_    0.892204 0.839983 0.541972 0.167411
O23   O     O_3   0.731228 0.754557 0.363486 -0.643814
H22   H     H_    0.770190 0.709306 0.405641 0.304650
O24   O     O_3   0.553887 0.349254 0.728573 -0.555941
C38   C     C_3   0.471798 0.362844 0.807446 -0.253546
H23   H     H_    0.581940 0.379722 0.854825 0.127715
H24   H     H_    0.385956 0.301901 0.825877 0.143378
H25   H     H_    0.372160 0.422220 0.804444 0.162193
O25   O     O_3   0.011013 0.246581 0.671190 -0.659368
H26   H     H_    0.092071 0.261139 0.622694 0.302422

loop_
_geom_bond_atom_site_label_1
_geom_bond_atom_site_label_2
_ccdc_geom_bond_type
O14   C34   A    
O24   C38   S    
C7    O24   S    
C3    C13   S    
C12   C13   A    
C20   H10   S    
C1    O6    A    
O12   C33   A    
C37   H19   S    
C19   C20   A    
C28   H14   S    
C17   C18   A    
O19   V4    S    
C16   H8    S    
C7    C8    D    
O5    C3    A    
C14   C15   S    
C31   H15   S    
V2    O10   S    
C30   C31   S    
O16   V4    S    
O13   V3    S    
C29   C33   S    
O8    V2    S    
C15   C16   S    
C21   C34   S    
C9    C10   A    
C15   H5    S    
O17   V3    S    
O15   C35   A    
O7    V1    S    
O15   V3    S    
O18   V4    S    
C32   H17   S    
C23   H11   S    
O9    C4    A    
C20   C21   A    
O11   V4    S    
C37   H20   S    
C5    C6    D    
C28   C29   A    
C24   H12   S    
O19   C36   A    
C27   H13   S    
C16   H7    S    
C10   C11   A    
C19   H9    S    
O4    C2    A    
O21   H18   S    
O22   C37   S    
C31   H16   S    
C11   H3    S    
O23   H22   S    
C5    C7    S    
C25   C32   S    
C27   C28   A    
O2    C1    A    
C21   C22   A    
C9    C14   A    
C13   C14   A    
O14   V3    S    
C38   H25   S    
C29   C30   A    
C26   C27   A    
C15   H6    S    
V4    O20   S    
C23   O21   S    
O3    C4    A    
O1    V2    S    
O12   V3    S    
C6    C35   S    
O9    V2    S    
O17   V4    S    
C11   C12   A    
O2    V1    S    
C32   O23   S    
V3    O20   S    
C37   H21   S    
C22   C23   S    
O1    C2    A    
C2    C26   S    
C38   H24   S    
O18   C35   A    
O5    V1    S    
O8    C3    A    
C10   C36   S    
O6    V2    S    
C25   C30   A    
O11   C34   A    
C9    C16   S    
C4    C8    S    
C17   C22   A    
O7    V2    S    
O4    V1    S    
O3    V1    S    
V1    O10   S    
C24   O22   S    
C31   C32   S    
C18   C19   A    
C33   O16   A    
O25   H26   S    
C5    H1    S    
O13   C36   A    
C6    H2    S    
C23   C24   S    
C38   H23   S    
C25   C26   A    
C12   H4    S    
C8    O25   S    
C17   C24   S    
C1    C18   S    
