data_mof_unit_55838.cif
_audit_creation_date              2012-12-10T18:59:18-0500
_audit_creation_method            fapswitch 2.2
_symmetry_space_group_name_H-M    P1
_symmetry_Int_Tables_number       1
_space_group_crystal_system       triclinic
_cell_length_a                    10.847142
_cell_length_b                    10.790017
_cell_length_c                    9.57484
_cell_angle_alpha                 88.769048
_cell_angle_beta                  90.6518
_cell_angle_gamma                 90.903568
_cell_volume                      1120.18116066

loop_
_atom_site_label
_atom_site_type_symbol
_atom_type_description
_atom_site_fract_x
_atom_site_fract_y
_atom_site_fract_z
_atom_type_partial_charge
C1    C     C_R   0.500673 0.262385 0.501537 0.904605
C2    C     C_R   0.059058 0.476242 0.627510 -0.098169
C3    C     C_R   0.125494 0.491602 0.500067 -0.072588
C4    C     C_R   0.060975 0.523786 0.375466 0.462682
C5    C     C_R   0.933387 0.534199 0.378396 -0.229074
C6    C     C_R   0.871294 0.530580 0.505033 -0.133871
C7    C     C_R   0.431052 0.058405 0.593073 -0.151633
C8    C     C_R   0.509440 0.128892 0.506443 -0.133282
C9    C     C_R   0.603387 0.067866 0.434620 0.394482
C10   C     C_R   0.604797 0.937877 0.435462 -0.169272
C11   C     C_R   0.510160 0.870023 0.501540 -0.014427
C12   C     C_R   0.261526 0.493931 0.499802 0.920407
C13   C     C_R   0.430210 0.931141 0.587223 -0.060120
C14   C     C_3   0.294465 0.916313 0.604178 0.117439
C15   C     C_3   0.293306 0.057650 0.614020 0.739320
C16   C     C_R   0.531327 0.605454 0.070679 0.147675
C17   C     C_R   0.480023 0.393863 0.076253 0.039777
C18   C     C_R   0.481115 0.393696 0.928122 -0.053061
C19   C     C_R   0.529820 0.604924 0.923440 0.234464
C20   C     C_3   0.464518 0.724268 0.908809 -0.520796
C21   C     C_3   0.467624 0.728684 0.066493 0.612181
C22   C     C_R   0.504045 0.737156 0.499258 0.838963
C23   C     C_R   0.737103 0.512957 0.501117 0.827367
C24   C     C_R   0.104975 0.413817 0.749383 0.412815
C25   C     C_R   0.042073 0.423871 0.877260 0.254755
C26   C     C_R   0.941426 0.501675 0.885002 -0.209862
C27   C     C_R   0.891472 0.555630 0.764174 0.409143
C28   C     C_R   0.939358 0.523975 0.632025 -0.114947
Cu1   Cu    Cu3+1 0.499990 0.499980 0.640670 1.006559
Cu2   Cu    Cu3+1 0.500010 0.500020 0.359330 1.085577
H1    H     H_    0.269063 0.863634 0.701195 0.097862
H2    H     H_    0.459650 0.308019 0.131812 0.185271
H3    H     H_    0.462726 0.307719 0.875484 0.165644
H4    H     H_    0.522179 0.796913 0.855984 0.223880
H5    H     H_    0.370544 0.712189 0.862968 0.201350
H6    H     H_    0.899848 0.518392 0.985065 0.189753
H7    H     H_    0.882741 0.545738 0.280872 0.168882
H8    H     H_    0.677130 0.890441 0.382006 0.195502
N1    N     N_R   0.500790 0.500930 0.147930 -0.199382
N2    N     N_R   0.500790 0.500890 0.852020 -0.184210
O1    O     O_R   0.500000 0.319640 0.618810 -0.583273
O2    O     O_R   0.500010 0.319680 0.381230 -0.560835
O3    O     O_R   0.319640 0.499980 0.618820 -0.578502
O4    O     O_R   0.319650 0.500020 0.381230 -0.485632
O5    O     O_R   0.499990 0.680320 0.618770 -0.614529
O6    O     O_R   0.500000 0.680360 0.381190 -0.531043
O7    O     O_R   0.680350 0.499980 0.618770 -0.550498
O8    O     O_R   0.680360 0.500020 0.381180 -0.572276
O9    O     O_3   0.122907 0.541785 0.251326 -0.618482
H9    H     H_    0.065186 0.573501 0.178356 0.348496
Cl1   Cl    Cl    0.209219 0.137663 0.478368 -0.439917
O10   O     O_3   0.259488 0.095429 0.747689 -0.676700
H10   H     H_    0.316877 0.058400 0.818060 0.315120
Cl2   Cl    Cl    0.563757 0.853144 0.123566 -0.563779
Cl3   Cl    Cl    0.317495 0.728800 0.140748 -0.463172
O11   O     O_3   0.201073 0.333090 0.737285 -0.633480
H11   H     H_    0.238068 0.316829 0.830528 0.371871
Cl4   Cl    Cl    0.084583 0.338519 0.028834 -0.497834
O12   O     O_3   0.802589 0.644262 0.779956 -0.692514
H12   H     H_    0.797197 0.694619 0.692288 0.319525
Cl5   Cl    Cl    0.719338 0.150260 0.342613 -0.506478
O13   O     O_3   0.237793 0.871409 0.482543 -0.629136
H13   H     H_    0.149764 0.857476 0.506075 0.351406

loop_
_geom_bond_atom_site_label_1
_geom_bond_atom_site_label_2
_ccdc_geom_bond_type
C8    C9    A    
O12   H12   S    
C24   C25   A    
C16   C21   S    
C23   O8    A    
C15   Cl1   S    
C24   O11   S    
C1    C8    S    
C9    C10   A    
C14   H1    S    
C11   C22   S    
C19   C20   S    
C4    O9    S    
C10   H8    S    
C20   H4    S    
C7    C15   S    
C17   C18   A    
C7    C8    A    
C12   O4    A    
C27   O12   S    
C15   O10   S    
O11   H11   S    
C5    C6    A    
C11   C13   A    
Cu2   O4    S    
C26   C27   A    
O13   H13   S    
Cu1   O7    S    
C16   C19   A    
C9    Cl5   S    
C6    C23   S    
Cu1   N2    S    
C26   H6    S    
C22   O6    A    
Cu2   N1    S    
C2    C3    A    
C12   O3    A    
C5    H7    S    
C19   N2    A    
C2    C24   A    
C21   Cl2   S    
C18   H3    S    
C6    C28   A    
Cu1   O5    S    
C23   O7    A    
C10   C11   A    
C16   N1    A    
Cu1   Cu2   S    
C3    C4    A    
C14   O13   S    
C1    O2    A    
C7    C13   A    
C22   O5    A    
C20   C21   S    
C21   Cl3   S    
C25   Cl4   S    
C17   N1    A    
Cu2   O8    S    
C27   C28   A    
O9    H9    S    
C17   H2    S    
C18   N2    A    
C14   C15   S    
Cu2   O2    S    
C2    C28   A    
C3    C12   S    
Cu1   O1    S    
C25   C26   A    
C13   C14   S    
C20   H5    S    
Cu2   O6    S    
Cu1   O3    S    
C1    O1    A    
O10   H10   S    
C4    C5    A    
