data_mof_unit_59246.cif
_audit_creation_date              2013-03-05T16:10:35-0500
_audit_creation_method            fapswitch 2.2
_symmetry_space_group_name_H-M    P1
_symmetry_Int_Tables_number       1
_space_group_crystal_system       triclinic
_cell_length_a                    16.001874
_cell_length_b                    16.573206
_cell_length_c                    9.642798
_cell_angle_alpha                 89.687647
_cell_angle_beta                  90.00053
_cell_angle_gamma                 90.000174
_cell_volume                      2557.2547294

loop_
_atom_site_label
_atom_site_type_symbol
_atom_site_description
_atom_site_fract_x
_atom_site_fract_y
_atom_site_fract_z
_atom_type_partial_charge
O1    O     O_R   0.091250 0.408820 0.620260 -0.541884
O2    O     O_R   0.091250 0.408820 0.379740 -0.507944
O3    O     O_R   0.091250 0.591180 0.620260 -0.507931
O4    O     O_R   0.091250 0.591180 0.379740 -0.541887
O5    O     O_R   0.591250 0.908820 0.620260 -0.542084
O6    O     O_R   0.591250 0.908820 0.379740 -0.507882
O7    O     O_R   0.591250 0.091180 0.620260 -0.508410
O8    O     O_R   0.591250 0.091180 0.379740 -0.541833
C1    C     C_R   0.118913 0.378933 0.500946 0.945606
C2    C     C_R   0.118917 0.621064 0.499053 0.945512
C3    C     C_R   0.618920 0.878939 0.500946 0.945265
C4    C     C_R   0.618901 0.121078 0.499050 0.945135
O9    O     O_R   0.908940 0.408800 0.620260 -0.600425
O10   O     O_R   0.908940 0.408800 0.379740 -0.574764
O11   O     O_R   0.908940 0.591200 0.620260 -0.574795
O12   O     O_R   0.908940 0.591200 0.379740 -0.600444
O13   O     O_R   0.408940 0.908800 0.620260 -0.600422
O14   O     O_R   0.408940 0.908800 0.379740 -0.574776
O15   O     O_R   0.408940 0.091200 0.620260 -0.574722
O16   O     O_R   0.408940 0.091200 0.379740 -0.600424
C5    C     C_R   0.878604 0.381182 0.500939 0.843389
C6    C     C_R   0.878612 0.618826 0.499062 0.843245
C7    C     C_R   0.378613 0.881174 0.500937 0.843297
C8    C     C_R   0.378612 0.118826 0.499061 0.843331
Cu1   Cu    Cu3+1 0.000100 0.500000 0.642410 1.077946
Cu2   Cu    Cu3+1 0.000100 0.500000 0.357590 1.077936
Cu3   Cu    Cu3+1 0.500100 0.000000 0.642410 1.077751
Cu4   Cu    Cu3+1 0.500100 0.000000 0.357590 1.077919
C9    C     C_3   0.825927 0.243974 0.627587 -0.287438
C10   C     C_3   0.814796 0.261042 0.356275 -0.231807
C11   C     C_3   0.814802 0.738981 0.643732 -0.231709
C12   C     C_3   0.825988 0.756044 0.372431 -0.287650
C13   C     C_3   0.325998 0.743947 0.627553 -0.287586
C14   C     C_3   0.314789 0.761036 0.356249 -0.231818
C15   C     C_3   0.314786 0.238961 0.643744 -0.231830
C16   C     C_3   0.325998 0.256060 0.372447 -0.287547
C17   C     C_3   0.247580 0.682776 0.634960 0.185692
C18   C     C_3   0.245852 0.689266 0.357801 0.136517
C19   C     C_3   0.245838 0.310720 0.642206 0.136483
C20   C     C_3   0.247581 0.317232 0.365046 0.185692
C21   C     C_3   0.747470 0.182859 0.635009 0.185860
C22   C     C_3   0.745855 0.189276 0.357806 0.136371
C23   C     C_3   0.745863 0.810752 0.642181 0.136301
C24   C     C_3   0.747568 0.817209 0.365022 0.185773
H1    H     H_    0.104583 0.776755 0.586826 0.286472
H2    H     H_    0.110589 0.783122 0.410027 0.238837
H3    H     H_    0.110568 0.216868 0.589913 0.238820
H4    H     H_    0.104591 0.223246 0.413115 0.286464
H5    H     H_    0.604503 0.276830 0.586620 0.286445
H6    H     H_    0.610599 0.283162 0.409845 0.238866
H7    H     H_    0.610608 0.716887 0.590037 0.238836
H8    H     H_    0.604563 0.723243 0.413240 0.286450
C25   C     C_3   0.715948 0.342947 0.518757 0.606517
C26   C     C_3   0.715969 0.657093 0.481187 0.606497
C27   C     C_3   0.215973 0.842912 0.518827 0.606477
C28   C     C_3   0.215972 0.157087 0.481147 0.606454
C29   C     C_3   0.811016 0.309883 0.502155 -0.301631
C30   C     C_3   0.811038 0.690138 0.497842 -0.301523
C31   C     C_3   0.311039 0.809864 0.502155 -0.301500
C32   C     C_3   0.311037 0.190136 0.497837 -0.301473
C33   C     C_3   0.190941 0.687931 0.497925 -0.165002
C34   C     C_3   0.190935 0.312065 0.502071 -0.164997
C35   C     C_3   0.690901 0.187969 0.497903 -0.164845
C36   C     C_3   0.690940 0.812071 0.502074 -0.165062
C37   C     C_3   0.150455 0.773310 0.502414 -0.349551
C38   C     C_3   0.150451 0.226687 0.497548 -0.349529
C39   C     C_3   0.650420 0.273355 0.502285 -0.349559
C40   C     C_3   0.650454 0.726693 0.497625 -0.349479
C41   C     C_3   0.957492 0.570407 0.083220 0.266997
C42   C     C_3   0.958632 0.571192 0.918333 0.292264
C43   C     C_3   0.958630 0.428807 0.081665 0.292268
C44   C     C_3   0.957489 0.429593 0.916778 0.267029
C45   C     C_3   0.457489 0.070405 0.083229 0.267012
C46   C     C_3   0.458612 0.071180 0.918342 0.292289
C47   C     C_3   0.458633 0.928807 0.081660 0.292178
C48   C     C_3   0.457503 0.929586 0.916774 0.267117
H9    H     H_    0.891249 0.566705 0.114691 0.057668
H10   H     H_    0.893096 0.570808 0.884076 0.055255
H11   H     H_    0.893096 0.429196 0.115919 0.055247
H12   H     H_    0.891246 0.433300 0.885307 0.057640
H13   H     H_    0.391249 0.066706 0.114722 0.057722
H14   H     H_    0.393073 0.070777 0.884099 0.055214
H15   H     H_    0.393096 0.929193 0.115902 0.055228
H16   H     H_    0.391262 0.933276 0.885290 0.057669
H17   H     H_    0.122638 0.554160 0.117709 0.234190
H18   H     H_    0.124495 0.550839 0.877989 0.229346
H19   H     H_    0.124491 0.449153 0.122012 0.229349
H20   H     H_    0.122632 0.445829 0.882294 0.234163
H21   H     H_    0.622642 0.054156 0.117732 0.234130
H22   H     H_    0.624477 0.050882 0.878008 0.229053
H23   H     H_    0.624489 0.949148 0.121994 0.229326
H24   H     H_    0.622651 0.945870 0.882273 0.234103
C49   C     C_3   0.087417 0.500745 0.082405 -0.210659
C50   C     C_3   0.087417 0.499249 0.917596 -0.210669
C51   C     C_3   0.587418 0.000748 0.082405 -0.210489
C52   C     C_3   0.587418 0.999272 0.917596 -0.210909
N1    N     N_3   0.001260 0.500000 0.143650 -0.265643
N2    N     N_3   0.001260 0.500000 0.856350 -0.265649
N3    N     N_3   0.501260 0.000000 0.143650 -0.265630
N4    N     N_3   0.501260 0.000000 0.856350 -0.265574
C53   C     C_2   0.834000 0.280126 0.770652 0.575516
H25   H     H_    0.823229 0.342233 0.790338 0.149798
O17   O     O_2   0.851312 0.236886 0.869983 -0.432765
C54   C     C_2   0.802195 0.317219 0.230612 0.557470
H26   H     H_    0.792337 0.380672 0.239630 0.129988
O18   O     O_2   0.808550 0.292164 0.112293 -0.446955
C55   C     C_2   0.802190 0.682794 0.769382 0.557451
H27   H     H_    0.792332 0.619341 0.760345 0.129980
O19   O     O_2   0.808535 0.707840 0.887711 -0.446915
C56   C     C_2   0.834042 0.719902 0.229353 0.575619
H28   H     H_    0.823275 0.657800 0.209659 0.149800
O20   O     O_2   0.851360 0.763143 0.130028 -0.432778
C57   C     C_2   0.334062 0.780081 0.770640 0.575572
H29   H     H_    0.323269 0.842182 0.790356 0.149824
O21   O     O_2   0.351404 0.736838 0.869955 -0.432835
C58   C     C_2   0.302165 0.817231 0.230610 0.557482
H30   H     H_    0.292361 0.880686 0.239669 0.129976
O22   O     O_2   0.308455 0.792191 0.112273 -0.446937
C59   C     C_2   0.302176 0.182770 0.769389 0.557490
H31   H     H_    0.292323 0.119313 0.760342 0.130007
O23   O     O_2   0.308508 0.207816 0.887722 -0.446970
C60   C     C_2   0.334063 0.219934 0.229354 0.575619
H32   H     H_    0.323282 0.157835 0.209627 0.149824
O24   O     O_2   0.351402 0.263184 0.130048 -0.432802
C61   C     C_2   0.913121 0.205533 0.616926 0.510937
H33   H     H_    0.966972 0.244806 0.624570 0.137373
O25   O     O_2   0.926714 0.133594 0.604136 -0.425703
C62   C     C_2   0.901929 0.228118 0.322412 0.565646
H34   H     H_    0.910035 0.186319 0.236995 0.167196
O26   O     O_2   0.964945 0.253008 0.377538 -0.564814
C63   C     C_2   0.901922 0.771914 0.677641 0.566052
H35   H     H_    0.910005 0.813723 0.763053 0.167173
O27   O     O_2   0.964951 0.747023 0.622559 -0.564648
C64   C     C_2   0.913219 0.794404 0.383121 0.510397
H36   H     H_    0.967032 0.755085 0.375430 0.137462
O28   O     O_2   0.926887 0.866318 0.396099 -0.426042
C65   C     C_2   0.413227 0.705588 0.616842 0.510416
H37   H     H_    0.467043 0.744907 0.624548 0.137442
O29   O     O_2   0.426892 0.633676 0.603828 -0.426093
C66   C     C_2   0.401908 0.728105 0.322321 0.565879
H38   H     H_    0.409987 0.686308 0.236895 0.167077
O30   O     O_2   0.464939 0.752983 0.377412 -0.564558
C67   C     C_2   0.401904 0.271901 0.677658 0.566031
H39   H     H_    0.409987 0.313706 0.763073 0.167104
O31   O     O_2   0.464934 0.247011 0.622581 -0.564539
C68   C     C_2   0.413227 0.294421 0.383163 0.510274
H40   H     H_    0.467043 0.255108 0.375418 0.137433
O32   O     O_2   0.426889 0.366329 0.396243 -0.426130
C69   C     C_2   0.273013 0.599005 0.674839 0.564135
H41   H     H_    0.312160 0.588325 0.765129 0.129494
O33   O     O_2   0.246115 0.541909 0.612048 -0.534555
C70   C     C_2   0.284510 0.608154 0.326268 0.454728
H42   H     H_    0.264493 0.574226 0.236044 0.115042
O34   O     O_2   0.342151 0.580912 0.394612 -0.429102
C71   C     C_2   0.284480 0.391835 0.673775 0.454746
H43   H     H_    0.264441 0.425755 0.763993 0.115064
O35   O     O_2   0.342126 0.419090 0.605460 -0.429125
C72   C     C_2   0.273016 0.401007 0.325203 0.564078
H44   H     H_    0.312162 0.411699 0.234918 0.129472
O36   O     O_2   0.246127 0.458094 0.388026 -0.534548
C73   C     C_2   0.772827 0.099096 0.675017 0.562927
H45   H     H_    0.811587 0.088398 0.765793 0.129146
O37   O     O_2   0.746433 0.042025 0.611503 -0.533725
C74   C     C_2   0.784510 0.108161 0.326252 0.455563
H46   H     H_    0.764406 0.074201 0.236105 0.114951
O38   O     O_2   0.842222 0.080941 0.394473 -0.428742
C75   C     C_2   0.784496 0.891884 0.673650 0.454879
H47   H     H_    0.764333 0.925915 0.763685 0.114841
O39   O     O_2   0.842214 0.919069 0.605408 -0.428793
C76   C     C_2   0.773004 0.900968 0.325094 0.564003
H48   H     H_    0.812133 0.911633 0.234778 0.129525
O40   O     O_2   0.746136 0.958073 0.387883 -0.534607
Cl1   Cl    Cl    0.181233 0.704496 0.783909 -0.459376
Cl2   Cl    Cl    0.176036 0.702217 0.211726 -0.490609
Cl3   Cl    Cl    0.176013 0.297736 0.788262 -0.490579
Cl4   Cl    Cl    0.181241 0.295530 0.216078 -0.459470
Cl5   Cl    Cl    0.681084 0.204682 0.783864 -0.459376
Cl6   Cl    Cl    0.676062 0.202225 0.211687 -0.490783
Cl7   Cl    Cl    0.676076 0.797809 0.788296 -0.490665
Cl8   Cl    Cl    0.681203 0.795474 0.216101 -0.459278
Cl9   Cl    Cl    0.695084 0.392710 0.679610 -0.429068
Cl10  Cl    Cl    0.684840 0.420610 0.401282 -0.427841
Cl11  Cl    Cl    0.684829 0.579438 0.598656 -0.427807
Cl12  Cl    Cl    0.695113 0.607337 0.320325 -0.429123
Cl13  Cl    Cl    0.195132 0.892680 0.679685 -0.429152
Cl14  Cl    Cl    0.184829 0.920564 0.401347 -0.427745
Cl15  Cl    Cl    0.184821 0.079434 0.598615 -0.427771
Cl16  Cl    Cl    0.195144 0.107321 0.320282 -0.429233
Cl17  Cl    Cl    0.998589 0.660521 0.155614 -0.455565
Cl18  Cl    Cl    0.002756 0.661411 0.855339 -0.380070
Cl19  Cl    Cl    0.002750 0.338584 0.144661 -0.380097
Cl20  Cl    Cl    0.998572 0.339473 0.844373 -0.455506
Cl21  Cl    Cl    0.498599 0.160519 0.155616 -0.455589
Cl22  Cl    Cl    0.502701 0.161404 0.855346 -0.380097
Cl23  Cl    Cl    0.502751 0.838591 0.144656 -0.380109
Cl24  Cl    Cl    0.498613 0.839476 0.844380 -0.455533

loop_
_geom_bond_atom_site_label_1
_geom_bond_atom_site_label_2
_geom_bond_distance
_ccdc_geom_bond_type
O1    Cu1   2.111906 S    
C46   Cl22  1.758628 S    
C49   C50   1.589543 S    
C27   C31   1.625100 S    
C42   H10   1.099513 S    
C45   C46   1.590057 S    
C41   H9    1.104211 S    
C51   C52   1.589543 S    
C12   C30   1.642659 S    
C62   H34   1.086904 S    
C24   Cl8   1.823528 S    
C54   O18   1.220512 D    
C73   H45   1.086568 S    
C20   C34   1.604238 S    
C75   O39   1.218928 D    
C44   N2    1.477938 S    
C24   C36   1.604271 S    
C7    C31   1.601863 S    
C65   O29   1.218857 D    
C23   Cl7   1.809689 S    
O13   C7    1.332200 A    
C11   C23   1.622294 S    
C36   C40   1.557037 S    
C11   C30   1.627994 S    
C21   Cl5   1.823545 S    
C74   H46   1.086842 S    
C66   O30   1.213216 D    
O5    C3    1.330867 A    
C21   C73   1.494923 S    
C69   O33   1.205625 D    
C15   C19   1.622244 S    
C51   N3    1.499878 S    
C18   Cl2   1.809668 S    
C26   C40   1.567408 S    
C76   H48   1.086309 S    
C50   N2    1.499866 S    
C14   C58   1.537414 S    
C67   H39   1.086906 S    
C10   C29   1.627911 S    
H19   C49   1.106960 S    
H24   C52   1.104759 S    
O7    Cu3   2.110231 S    
C58   H30   1.067337 S    
C67   O31   1.213222 D    
C27   Cl14  1.781009 S    
C45   H13   1.104216 S    
C56   H28   1.061692 S    
C11   C63   1.533042 S    
C48   Cl24  1.778118 S    
C27   C37   1.567421 S    
C45   Cl21  1.778147 S    
O5    Cu3   2.111906 S    
H17   C49   1.104761 S    
O11   C6    1.343550 A    
O6    Cu4   2.110236 S    
O1    C1    1.330869 A    
C28   Cl16  1.792057 S    
C13   C65   1.537492 S    
C55   H27   1.067426 S    
O15   Cu3   2.110584 S    
H6    C39   1.106992 S    
H3    C38   1.107013 S    
H8    C40   1.097782 S    
C8    C32   1.601879 S    
C18   C33   1.611826 S    
C14   C31   1.627996 S    
C13   C31   1.642711 S    
C47   Cl23  1.758702 S    
C72   O36   1.205617 D    
C55   O19   1.220529 D    
O9    Cu1   2.112246 S    
C46   H14   1.099521 S    
C18   C70   1.512177 S    
C54   H26   1.067395 S    
C73   O37   1.205989 D    
C23   C36   1.611777 S    
C24   C76   1.495018 S    
C68   O32   1.218850 D    
C59   O23   1.220555 D    
O12   Cu2   2.112253 S    
O7    C4    1.342052 A    
Cu3   N4    2.063064 S    
C10   C62   1.533093 S    
C48   H16   1.104207 S    
C71   H43   1.086746 S    
C34   C38   1.557066 S    
C9    C53   1.512558 S    
C1    C34   1.598863 S    
O13   Cu3   2.112246 S    
C53   H25   1.061778 S    
O16   C8    1.332196 A    
C16   C20   1.614535 S    
O14   Cu4   2.110581 S    
C66   H38   1.086896 S    
H2    C37   1.107010 S    
C19   Cl3   1.809697 S    
C3    C36   1.598849 S    
C41   Cl17  1.778094 S    
C75   H47   1.086869 S    
C20   Cl4   1.823550 S    
C4    C35   1.598862 S    
C25   C29   1.625141 S    
C46   N4    1.490780 S    
O16   Cu4   2.112253 S    
C63   O27   1.213228 D    
Cu1   Cu2   2.746461 S    
H23   C51   1.106975 S    
C13   C17   1.614525 S    
C43   H11   1.099498 S    
C28   C32   1.625105 S    
C19   C71   1.512184 S    
C15   C32   1.627978 S    
H21   C51   1.104764 S    
C16   C60   1.512627 S    
C47   C48   1.590049 S    
C35   C39   1.557113 S    
C5    C29   1.601875 S    
C25   Cl9   1.792052 S    
C43   N1    1.490773 S    
O4    Cu2   2.111895 S    
O14   C7    1.343547 A    
C28   Cl15  1.780989 S    
O3    Cu1   2.110231 S    
O8    C4    1.330832 A    
C17   C69   1.495061 S    
C47   N3    1.490778 S    
H18   C50   1.106967 S    
C12   C24   1.614501 S    
O9    C5    1.332187 A    
O2    Cu2   2.110236 S    
O10   Cu2   2.110581 S    
C71   O35   1.218875 D    
C57   H29   1.061774 S    
C12   C56   1.512581 S    
Cu4   N3    2.063064 S    
C16   C68   1.537497 S    
C9    C29   1.642758 S    
H1    C37   1.097788 S    
C61   H33   1.082661 S    
O8    Cu4   2.111895 S    
C26   Cl12  1.792043 S    
C2    C33   1.598867 S    
C21   C35   1.604136 S    
O4    C2    1.330860 A    
C63   H35   1.086917 S    
C49   N1    1.499872 S    
O6    C3    1.342008 A    
C17   C33   1.604242 S    
O10   C5    1.343570 A    
C68   H40   1.082688 S    
C26   C30   1.625113 S    
C20   C72   1.495053 S    
C45   N3    1.477885 S    
C19   C34   1.611823 S    
O12   C6    1.332211 A    
H5    C39   1.097749 S    
C9    C21   1.614439 S    
C14   C18   1.622255 S    
C11   C55   1.537391 S    
C42   Cl18  1.758770 S    
C70   O34   1.218876 D    
C16   C32   1.642730 S    
C62   O26   1.213228 D    
C6    C30   1.601885 S    
C64   O28   1.218858 D    
C59   H31   1.067472 S    
H22   C52   1.106995 S    
C64   H36   1.082682 S    
C23   C75   1.512188 S    
C48   N4    1.477906 S    
C65   H37   1.082711 S    
C13   C57   1.512626 S    
C43   Cl19  1.758814 S    
C74   O38   1.218969 D    
O15   C8    1.343562 A    
C43   C44   1.590067 S    
C44   H12   1.104206 S    
O3    C2    1.342026 A    
C25   Cl10  1.780961 S    
C12   C64   1.537503 S    
C9    C61   1.537503 S    
C47   H15   1.099497 S    
C15   C59   1.537401 S    
C72   H44   1.086305 S    
C76   O40   1.205569 D    
C22   Cl6   1.809771 S    
C28   C38   1.567422 S    
C52   N4    1.499870 S    
C14   C66   1.533062 S    
C58   O22   1.220494 D    
C22   C74   1.512248 S    
H7    C40   1.107007 S    
C27   Cl13  1.792063 S    
C41   C42   1.590054 S    
C25   C39   1.567473 S    
C56   O20   1.224830 D    
O11   Cu1   2.110584 S    
Cu2   N1    2.063064 S    
C17   Cl1   1.823546 S    
C33   C37   1.557071 S    
Cu1   N2    2.063064 S    
C70   H42   1.086751 S    
C53   O17   1.224841 D    
C10   C54   1.537368 S    
Cu3   Cu4   2.746461 S    
C61   O25   1.218856 D    
H20   C50   1.104773 S    
C26   Cl11  1.780957 S    
C10   C22   1.622258 S    
H4    C38   1.097793 S    
C60   H32   1.061736 S    
C69   H41   1.086314 S    
O2    C1    1.342014 A    
C60   O24   1.224859 D    
C22   C35   1.611977 S    
C44   Cl20  1.778142 S    
C42   N2    1.490759 S    
C15   C67   1.533069 S    
C57   O21   1.224864 D    
C41   N1    1.477924 S    
