data_mof_unit_29697.cif
_audit_creation_date              2012-12-10T20:39:55-0500
_audit_creation_method            fapswitch 2.2
_symmetry_space_group_name_H-M    P1
_symmetry_Int_Tables_number       1
_space_group_crystal_system       triclinic
_cell_length_a                    23.338321
_cell_length_b                    10.67078
_cell_length_c                    9.853974
_cell_angle_alpha                 89.959024
_cell_angle_beta                  90.127333
_cell_angle_gamma                 90.36573
_cell_volume                      2453.95819623

loop_
_atom_site_label
_atom_site_type_symbol
_atom_type_description
_atom_site_fract_x
_atom_site_fract_y
_atom_site_fract_z
_atom_type_partial_charge
C1    C     C_R   0.502070 0.259981 0.500080 0.968069
C2    C     C_R   0.121249 0.650319 0.433688 0.581238
C3    C     C_R   0.242376 0.618415 0.584314 0.529312
C4    C     C_R   0.389482 0.502446 0.499596 0.916478
C5    C     C_R   0.301929 0.599830 0.588953 -0.346378
C6    C     C_R   0.327923 0.518090 0.496969 -0.077787
C7    C     C_R   0.295397 0.456672 0.397776 -0.258474
C8    C     C_R   0.236543 0.471399 0.395073 -0.204464
C9    C     C_R   0.210207 0.549702 0.489437 0.258253
C10   C     C_R   0.762679 0.504729 0.374099 0.540064
C11   C     C_R   0.703152 0.490497 0.379609 -0.445695
C12   C     C_R   0.971712 0.357467 0.624459 -0.187211
C13   C     C_R   0.673153 0.517539 0.499343 -0.218587
C14   C     C_R   0.703083 0.562221 0.614510 0.500402
C15   C     C_R   0.762456 0.571296 0.610209 -0.279684
C16   C     C_R   0.502889 0.739826 0.500148 0.913079
C17   C     C_R   0.791974 0.542225 0.491558 0.168971
C18   C     C_R   0.494824 0.062798 0.617890 0.006286
C19   C     C_R   0.511452 0.128611 0.502611 -0.267949
C20   C     C_R   0.540214 0.066081 0.396526 0.362703
C21   C     C_R   0.540933 0.935220 0.396753 0.366995
C22   C     C_R   0.513316 0.870999 0.503789 -0.277230
C23   C     C_R   0.031223 0.358652 0.625006 -0.166596
C24   C     C_R   0.496853 0.935488 0.619518 -0.005775
C25   C     C_3   0.443074 0.923519 0.700567 -0.490722
C26   C     C_3   0.439999 0.065871 0.696853 0.359286
C27   C     C_R   0.450299 0.514634 0.071469 0.178913
C28   C     C_R   0.610808 0.503312 0.500162 0.857942
C29   C     C_R   0.549847 0.492528 0.072118 -0.107682
C30   C     C_R   0.549844 0.492224 0.928402 -0.160527
C31   C     C_R   0.450043 0.515476 0.928641 0.197497
C32   C     C_3   0.398521 0.430913 0.925276 0.290250
C33   C     C_3   0.399706 0.430236 0.079561 -0.582484
C34   C     C_R   0.061323 0.456489 0.561642 0.006697
C35   C     C_R   0.880454 0.646063 0.433875 0.562175
C36   C     C_R   0.881682 0.452147 0.555915 0.542855
C37   C     C_R   0.941316 0.453960 0.560376 0.008813
C38   C     C_R   0.970994 0.554315 0.498461 -0.075209
C39   C     C_R   0.940628 0.652927 0.435500 -0.164182
C40   C     C_3   0.657706 0.716388 0.734314 0.129588
C41   C     C_3   0.700489 0.797372 0.812440 -0.888013
C42   C     C_3   0.617797 0.174768 0.318604 0.128270
C43   C     C_3   0.651015 0.197619 0.188208 -0.779228
C44   C     C_3   0.617252 0.825250 0.318600 0.148187
C45   C     C_R   0.031240 0.555112 0.498884 -0.018943
C46   C     C_3   0.646604 0.781310 0.189866 -0.788298
C47   C     C_3   0.343600 0.110988 0.693589 0.068092
C48   C     C_3   0.294369 0.155731 0.605163 -0.784533
C49   C     C_3   0.301017 0.415355 0.878736 0.101278
C50   C     C_3   0.252042 0.484425 0.946935 -0.763611
C51   C     C_3   0.934153 0.949970 0.408143 0.177044
C52   C     C_3   0.980357 0.051075 0.396559 -0.881005
C53   C     C_3   0.242565 0.804032 0.708600 0.067421
C54   C     C_3   0.200665 0.895973 0.770991 -0.764161
C55   C     C_3   0.778650 0.544319 0.148596 0.083081
C56   C     C_R   0.061364 0.653373 0.435078 -0.108333
C57   C     C_3   0.821253 0.522519 0.034651 -0.724547
C58   C     C_R   0.031243 0.751415 0.373675 -0.239196
C59   C     C_R   0.971417 0.754085 0.376477 0.519821
C60   C     C_R   0.121064 0.457874 0.558235 0.528804
H1    H     H_    0.680485 0.455592 0.291423 0.185838
H2    H     H_    0.741365 0.804967 0.755644 0.251298
H3    H     H_    0.682834 0.892909 0.826120 0.225416
H4    H     H_    0.708946 0.755714 0.913795 0.262212
H5    H     H_    0.642966 0.108383 0.382050 0.100872
H6    H     H_    0.614494 0.264308 0.374756 0.145972
H7    H     H_    0.628475 0.267294 0.124101 0.243380
H8    H     H_    0.694607 0.233574 0.212382 0.220090
H9    H     H_    0.655021 0.108601 0.130805 0.257166
H10   H     H_    0.613033 0.744419 0.388615 0.122501
H11   H     H_    0.645389 0.896826 0.367262 0.103943
H12   H     H_    0.786007 0.600070 0.699795 0.167692
H13   H     H_    0.652875 0.861534 0.119514 0.251541
H14   H     H_    0.688957 0.741224 0.215613 0.189067
H15   H     H_    0.620171 0.708584 0.138772 0.252751
H16   H     H_    0.408132 0.874961 0.643836 0.199750
H17   H     H_    0.451360 0.885936 0.803945 0.178753
H18   H     H_    0.348125 0.175941 0.780954 0.115729
H19   H     H_    0.332798 0.015637 0.731996 0.132688
H20   H     H_    0.286967 0.088983 0.520401 0.258599
H21   H     H_    0.254669 0.162886 0.666392 0.223802
H22   H     H_    0.304741 0.249384 0.563009 0.262334
H23   H     H_    0.445424 0.113328 0.796873 0.064404
H24   H     H_    0.053492 0.282203 0.674110 0.187829
H25   H     H_    0.589961 0.483445 0.875098 0.203548
H26   H     H_    0.307271 0.325318 0.934470 0.110823
H27   H     H_    0.288131 0.391941 0.773261 0.186212
H28   H     H_    0.245252 0.576456 0.897605 0.289147
H29   H     H_    0.212019 0.428056 0.938911 0.226841
H30   H     H_    0.262005 0.499937 0.055874 0.233406
H31   H     H_    0.407584 0.339445 0.875578 0.076116
H32   H     H_    0.362750 0.478082 0.127152 0.228934
H33   H     H_    0.053971 0.826790 0.322978 0.207826
H34   H     H_    0.590005 0.484704 0.126045 0.142353
H35   H     H_    0.930757 0.917270 0.515586 0.116080
H36   H     H_    0.892355 0.993497 0.382961 0.201273
H37   H     H_    0.985486 0.080216 0.289038 0.277699
H38   H     H_    0.967869 0.133926 0.457374 0.233900
H39   H     H_    0.021837 0.015934 0.435872 0.246123
H40   H     H_    0.261463 0.848407 0.616325 0.153320
H41   H     H_    0.276706 0.785691 0.784774 0.147095
H42   H     H_    0.179842 0.853218 0.861232 0.264189
H43   H     H_    0.223726 0.982191 0.803339 0.194676
H44   H     H_    0.167237 0.921281 0.695591 0.266419
H45   H     H_    0.410156 0.337079 0.123431 0.187221
H46   H     H_    0.328178 0.647492 0.663595 0.181158
H47   H     H_    0.315283 0.393732 0.326027 0.165322
H48   H     H_    0.780242 0.645792 0.174990 0.175432
H49   H     H_    0.735199 0.519484 0.110176 0.139266
H50   H     H_    0.819866 0.422808 0.002480 0.262205
H51   H     H_    0.810312 0.582674 0.946484 0.202215
H52   H     H_    0.865268 0.546426 0.069600 0.260771
H53   H     H_    0.211040 0.419768 0.321847 0.158921
H54   H     H_    0.949646 0.280129 0.673351 0.186324
H55   H     H_    0.615810 0.721374 0.787239 0.181693
H56   H     H_    0.650647 0.756324 0.630870 0.087134
N1    N     N_R   0.852908 0.546698 0.492852 -0.324087
N2    N     N_R   0.149387 0.553217 0.494018 -0.333697
N3    N     N_R   0.499610 0.499140 0.142800 -0.092986
N4    N     N_R   0.499610 0.499180 0.857150 -0.144374
O1    O     O_R   0.500010 0.316790 0.614690 -0.630280
O2    O     O_R   0.583850 0.500060 0.614640 -0.596069
O3    O     O_R   0.583840 0.500020 0.385300 -0.643312
O4    O     O_2   0.849389 0.737086 0.374426 -0.561488
O5    O     O_3   0.675304 0.589614 0.734619 -0.620587
O6    O     O_3   0.562424 0.129474 0.285814 -0.557722
O7    O     O_3   0.562770 0.873302 0.285125 -0.554065
O8    O     O_3   0.394270 0.109742 0.615831 -0.585692
O9    O     O_3   0.350100 0.494217 0.874151 -0.593810
O10   O     O_3   0.943771 0.852592 0.313315 -0.578948
O11   O     O_3   0.212928 0.691836 0.677311 -0.615918
O12   O     O_2   0.852396 0.356343 0.613271 -0.567842
O13   O     O_3   0.793613 0.468746 0.260869 -0.602321
O14   O     O_2   0.150842 0.364822 0.618169 -0.585993
O15   O     O_2   0.151232 0.742846 0.372373 -0.567946
O16   O     O_R   0.500000 0.316760 0.385350 -0.577904
O17   O     O_R   0.416160 0.499980 0.614700 -0.592819
O18   O     O_R   0.416150 0.499940 0.385360 -0.622850
O19   O     O_R   0.500000 0.683240 0.614650 -0.627054
O20   O     O_R   0.499990 0.683210 0.385310 -0.570579
Zn1   Zn    Zn3+2 0.500000 0.500020 0.653130 0.958474
Zn2   Zn    Zn3+2 0.500000 0.499980 0.346870 0.981244

loop_
_geom_bond_atom_site_label_1
_geom_bond_atom_site_label_2
_ccdc_geom_bond_type
C44   O7    S    
C26   H23   S    
C40   H55   S    
C11   C13   A    
C49   H27   S    
C19   C20   A    
C18   C26   S    
C10   O13   S    
C47   H19   S    
C2    N2    A    
C28   O3    A    
C7    C8    A    
C59   O10   S    
C40   H56   S    
C53   C54   S    
C27   C33   S    
C15   H12   S    
C29   N3    A    
C12   C23   A    
C29   C30   A    
C14   O5    S    
C25   H17   S    
C54   H44   S    
C35   O4    S    
C58   H33   S    
O20   Zn2   S    
C36   O12   S    
C5    C6    A    
C28   O2    A    
C32   H31   S    
C10   C17   A    
C52   H37   S    
C48   H21   S    
C44   H11   S    
C18   C19   A    
C12   C37   A    
C32   O9    S    
C38   C45   A    
O16   Zn2   S    
C4    O17   A    
C50   H30   S    
C57   H50   S    
C45   C56   A    
C53   H41   S    
C8    C9    A    
C42   H5    S    
C13   C28   S    
C60   N2    A    
C53   O11   S    
C21   O7    S    
C1    O16   A    
C17   N1    S    
C51   H36   S    
C41   H4    S    
C43   H9    S    
C21   C22   A    
C55   H49   S    
C7    H47   S    
C34   C60   A    
C9    N2    S    
C16   O20   A    
C41   H2    S    
C46   H15   S    
C51   O10   S    
C44   C46   S    
C12   H54   S    
C5    H46   S    
C53   H40   S    
C38   C39   A    
C1    C19   S    
C23   H24   S    
C27   C31   A    
C51   C52   S    
O1    Zn1   S    
C54   H43   S    
C47   O8    S    
C33   H45   S    
C24   C25   S    
C4    C6    S    
O18   Zn2   S    
C33   H32   S    
C43   H8    S    
C3    C5    A    
C58   C59   A    
C55   O13   S    
C49   O9    S    
C3    O11   S    
C35   C39   A    
C20   O6    S    
C37   C38   A    
C3    C9    A    
C50   H29   S    
C47   C48   S    
C48   H22   S    
C23   C34   A    
C39   C59   A    
C34   C45   A    
C26   O8    S    
C30   H25   S    
C44   H10   S    
C36   N1    A    
C8    H53   S    
C40   C41   S    
C55   C57   S    
C29   H34   S    
C18   C24   A    
C35   N1    A    
C16   O19   A    
C42   C43   S    
C41   H3    S    
C60   O14   S    
C46   H14   S    
C15   C17   A    
O17   Zn1   S    
C36   C37   A    
C16   C22   S    
C49   H26   S    
C54   H42   S    
C31   C32   S    
N4    Zn1   S    
C11   H1    S    
C6    C7    A    
C27   N3    A    
C52   H39   S    
C2    O15   S    
O2    Zn1   S    
C55   H48   S    
C25   H16   S    
C32   C33   S    
C48   H20   S    
C25   C26   S    
C2    C56   A    
O19   Zn1   S    
C57   H51   S    
C30   N4    A    
C40   O5    S    
O3    Zn2   S    
C52   H38   S    
C56   C58   A    
C22   C24   A    
C1    O1    A    
C31   N4    A    
C10   C11   A    
C42   O6    S    
C4    O18   A    
C57   H52   S    
C20   C21   A    
C43   H7    S    
C49   C50   S    
C42   H6    S    
N3    Zn2   S    
C14   C15   A    
C50   H28   S    
C47   H18   S    
C13   C14   A    
C46   H13   S    
C51   H35   S    
