data_mof_unit_43748.cif
_audit_creation_date              2012-12-10T22:11:10-0500
_audit_creation_method            fapswitch 2.2
_symmetry_space_group_name_H-M    P1
_symmetry_Int_Tables_number       1
_space_group_crystal_system       triclinic
_cell_length_a                    12.1397
_cell_length_b                    12.282957
_cell_length_c                    23.040558
_cell_angle_alpha                 90.97858
_cell_angle_beta                  91.137148
_cell_angle_gamma                 91.086993
_cell_volume                      3433.79178241

loop_
_atom_site_label
_atom_site_type_symbol
_atom_type_description
_atom_site_fract_x
_atom_site_fract_y
_atom_site_fract_z
_atom_type_partial_charge
C1    C     C_R   0.657829 0.998713 0.578962 0.895513
C2    C     C_R   0.343807 0.001286 0.419755 0.892262
C3    C     C_R   0.893618 0.798966 0.131956 -0.192713
C4    C     C_R   0.102171 0.237561 0.847900 -0.186011
C5    C     C_R   0.087637 0.854166 0.194002 -0.184401
C6    C     C_R   0.919805 0.097887 0.832791 -0.160683
C7    C     C_R   0.088607 0.773961 0.151248 -0.188692
C8    C     C_R   0.918450 0.179655 0.874706 -0.190396
C9    C     C_R   0.894728 0.151917 0.187045 -0.205843
C10   C     C_R   0.097085 0.878529 0.830199 -0.199609
C11   C     C_R   0.899670 0.234512 0.147380 -0.204266
C12   C     C_R   0.094201 0.796618 0.870245 -0.204308
C13   C     C_R   0.102861 0.915314 0.323782 -0.275464
C14   C     C_R   0.838090 0.076532 0.706708 -0.317676
C15   C     C_R   0.183475 0.912375 0.366852 -0.024098
C16   C     C_R   0.751421 0.076599 0.667148 -0.021552
C17   C     C_R   0.860399 0.103905 0.313573 -0.233982
C18   C     C_R   0.184285 0.908745 0.708010 -0.133218
C19   C     C_R   0.784395 0.105558 0.357293 -0.024351
C20   C     C_R   0.264888 0.909659 0.666327 -0.022135
C21   C     C_3   0.988393 0.006112 0.247406 -0.072515
C22   C     C_3   0.010306 0.991607 0.752139 -0.051027
C23   C     C_R   0.654304 0.002513 0.420582 0.863114
C24   C     C_R   0.348306 0.998127 0.580539 0.864747
C25   C     C_R   0.084986 0.009829 0.291582 -0.004642
C26   C     C_R   0.912233 0.989798 0.708456 -0.002787
C27   C     C_R   0.257487 0.001671 0.374437 -0.200192
C28   C     C_R   0.746991 0.998280 0.622085 -0.182970
C29   C     C_R   0.888098 0.006272 0.285751 0.113940
C30   C     C_R   0.111256 0.996046 0.713554 0.132974
C31   C     C_R   0.734688 0.006332 0.374659 -0.064047
C32   C     C_R   0.270892 0.997194 0.627668 -0.065361
C33   C     C_R   0.991039 0.098669 0.204444 0.195548
C34   C     C_R   0.007881 0.893243 0.791421 0.171296
C35   C     C_R   0.999589 0.262229 0.121578 -0.083741
C36   C     C_R   0.000227 0.729843 0.874432 -0.071526
C37   C     C_R   0.988960 0.906722 0.207156 0.097545
C38   C     C_R   0.010075 0.087727 0.795466 0.097495
C39   C     C_R   0.991687 0.746183 0.120100 -0.025182
C40   C     C_R   0.009326 0.250161 0.882038 -0.020671
C41   C     C_R   0.993211 0.661576 0.075672 0.864456
C42   C     C_R   0.006949 0.337506 0.924882 0.857639
C43   C     C_R   0.999501 0.350042 0.079849 0.865138
C44   C     C_R   0.000574 0.646870 0.918631 0.866988
C45   C     C_R   0.147045 0.105734 0.306849 0.480197
C46   C     C_R   0.903129 0.905201 0.665131 0.495797
C47   C     C_R   0.244510 0.094569 0.339826 -0.154471
C48   C     C_R   0.829231 0.919359 0.617878 -0.150050
C49   C     C_R   0.837741 0.908295 0.303222 -0.183155
C50   C     C_R   0.122277 0.085048 0.676272 -0.190839
C51   C     C_R   0.761375 0.908649 0.346747 -0.197518
C52   C     C_R   0.201081 0.085593 0.633921 -0.204317
C53   C     C_R   0.089302 0.120523 0.175130 -0.099150
C54   C     C_R   0.911753 0.829085 0.797497 -0.189970
C55   C     C_R   0.095018 0.202218 0.134527 -0.016590
C56   C     C_R   0.907640 0.746736 0.837841 -0.031026
C57   C     C_R   0.892646 0.879610 0.174421 -0.167454
C58   C     C_R   0.103130 0.156762 0.805334 -0.186913
H1    H     H_    0.860446 0.830126 0.285313 0.146317
H2    H     H_    0.066432 0.152658 0.678795 0.153078
H3    H     H_    0.162440 0.074346 0.184830 0.115466
H4    H     H_    0.837798 0.844403 0.772217 0.128351
H5    H     H_    0.816742 0.922499 0.181198 0.139441
H6    H     H_    0.178449 0.147865 0.781708 0.147729
H7    H     H_    0.165222 0.877153 0.215056 0.143228
H8    H     H_    0.849206 0.042876 0.828666 0.143408
H9    H     H_    0.814774 0.129962 0.203605 0.144319
H10   H     H_    0.169410 0.931488 0.829404 0.142749
H11   H     H_    0.051038 0.843511 0.316194 0.167717
H12   H     H_    0.846088 0.146231 0.735660 0.180440
H13   H     H_    0.900827 0.179575 0.302061 0.180080
H14   H     H_    0.176012 0.835965 0.733282 0.156813
H15   H     H_    0.724842 0.831592 0.359221 0.170907
H16   H     H_    0.204960 0.153845 0.604800 0.165899
H17   H     H_    0.818233 0.779621 0.107693 0.159610
H18   H     H_    0.174000 0.290576 0.853861 0.159489
H19   H     H_    0.165640 0.734525 0.142274 0.160541
H20   H     H_    0.846910 0.186899 0.901777 0.157650
H21   H     H_    0.824272 0.276166 0.136675 0.171843
H22   H     H_    0.165002 0.787541 0.899006 0.169724
O1    O     O_R   0.621380 0.090460 0.561410 -0.614440
O2    O     O_R   0.378620 0.909540 0.438590 -0.615526
O3    O     O_R   0.617150 0.909540 0.438590 -0.625675
O4    O     O_R   0.382850 0.090460 0.561410 -0.626890
O5    O     O_R   0.619720 0.093230 0.440890 -0.614901
O6    O     O_R   0.380280 0.906770 0.559110 -0.610066
O7    O     O_R   0.618800 0.906770 0.559110 -0.615481
O8    O     O_R   0.381200 0.093230 0.440890 -0.618739
O9    O     O_R   0.087590 0.627480 0.058790 -0.628755
O10   O     O_R   0.912410 0.372520 0.941210 -0.623360
O11   O     O_R   0.905660 0.383870 0.059980 -0.629000
O12   O     O_R   0.094340 0.616130 0.940020 -0.628062
O13   O     O_R   0.092570 0.390420 0.063230 -0.611739
O14   O     O_R   0.907430 0.609580 0.936770 -0.609529
O15   O     O_R   0.900680 0.620930 0.055550 -0.626535
O16   O     O_R   0.099320 0.379070 0.944450 -0.623434
Zn1   Zn    Zn3+2 0.501730 0.123520 0.501540 0.997450
Zn2   Zn    Zn3+2 0.498270 0.876480 0.498460 0.996901
Zn3   Zn    Zn3+2 0.125690 0.504390 0.002180 0.970694
Zn4   Zn    Zn3+2 0.874310 0.495610 0.997820 0.972217
C59   C     C_1   0.332382 0.175264 0.335022 0.213486
N1    N     N_1   0.402875 0.239340 0.331073 -0.203354
C60   C     C_1   0.845706 0.865332 0.562373 0.206798
N2    N     N_1   0.858396 0.823311 0.517701 -0.207465
C61   C     C_1   0.199048 0.219056 0.106246 0.195704
N3    N     N_1   0.282475 0.232205 0.083682 -0.199068
C62   C     C_1   0.807212 0.681781 0.840102 0.168457
N4    N     N_1   0.726746 0.629934 0.841689 -0.193731
C63   C     C_1   0.186512 0.816295 0.402264 0.227161
N5    N     N_1   0.188532 0.739340 0.430540 -0.201897
C64   C     C_1   0.669694 0.160071 0.673454 0.204622
N6    N     N_1   0.604406 0.226825 0.678604 -0.200490
C65   C     C_1   0.763787 0.210494 0.384025 0.204683
N7    N     N_1   0.747669 0.294625 0.405263 -0.197455
C66   C     C_1   0.339978 0.819626 0.664749 0.179370
N8    N     N_1   0.400041 0.747590 0.663618 -0.194064
O17   O     O_3   0.112681 0.206479 0.287144 -0.667758
C67   C     C_3   0.114178 0.291979 0.329833 0.078482
H23   H     H_    0.057337 0.354536 0.313135 0.177708
H24   H     H_    0.196210 0.333152 0.332445 0.158189
C68   C     C_3   0.076172 0.260350 0.391150 -0.421741
H25   H     H_    0.004267 0.203821 0.388393 0.234958
H26   H     H_    0.143387 0.219057 0.414940 0.227135
C69   C     C_3   0.045514 0.360650 0.426885 -0.899498
H27   H     H_    0.117045 0.418193 0.431116 0.266875
H28   H     H_    0.020991 0.335617 0.470954 0.267546
H29   H     H_    0.975158 0.402425 0.405970 0.269953
O18   O     O_3   0.978064 0.820142 0.668129 -0.660450
C70   C     C_3   0.938869 0.715062 0.649604 0.093832
H30   H     H_    0.001787 0.656545 0.664347 0.167462
H31   H     H_    0.938958 0.705745 0.601836 0.163477
C71   C     C_3   0.828738 0.677575 0.675590 -0.420378
H32   H     H_    0.840152 0.667347 0.722866 0.231645
H33   H     H_    0.762824 0.737266 0.668081 0.227858
C72   C     C_3   0.790168 0.568279 0.649188 -0.888738
H34   H     H_    0.775279 0.575755 0.601705 0.267618
H35   H     H_    0.712039 0.541915 0.669443 0.275876
H36   H     H_    0.852972 0.505292 0.657049 0.258127

loop_
_geom_bond_atom_site_label_1
_geom_bond_atom_site_label_2
_ccdc_geom_bond_type
C16   C28   A    
C72   H36   S    
C41   O9    A    
C1    O7    A    
C59   N1    T    
C47   C59   S    
C5    C37   A    
C17   C29   A    
C15   C63   S    
C64   N6    T    
C19   C31   A    
O18   C70   S    
C9    H9    S    
C72   H34   S    
C39   C41   S    
C29   C49   A    
C23   O3    A    
O9    Zn3   S    
C2    O2    A    
C42   O16   A    
O4    Zn1   S    
C46   O18   S    
C70   H30   S    
C52   H16   S    
C21   C33   S    
C19   C65   S    
C1    O1    A    
C66   N8    T    
C22   C38   S    
O16   Zn3   S    
C13   H11   S    
C67   H23   S    
C32   C52   A    
C68   C69   S    
C17   C19   A    
C38   C58   A    
C53   H3    S    
C4    C40   A    
C71   H32   S    
C49   C51   A    
C18   H14   S    
C1    C28   S    
C50   C52   A    
C62   N4    T    
C6    C38   A    
C2    O8    A    
C2    C27   S    
C18   C30   A    
O11   Zn4   S    
C12   C36   A    
C3    H17   S    
O13   Zn3   S    
O8    Zn1   S    
C44   O12   A    
C7    H19   S    
O7    Zn2   S    
C45   C47   A    
C30   C50   A    
C3    C39   A    
C8    H20   S    
O2    Zn2   S    
C13   C25   A    
C14   H12   S    
C10   C12   A    
O10   Zn4   S    
C57   H5    S    
C46   C48   A    
C53   C55   A    
C33   C53   A    
C22   C34   S    
C54   C56   A    
C4    H18   S    
C35   C55   A    
C44   O14   A    
C5    H7    S    
C5    C7    A    
O15   Zn4   S    
C6    C8    A    
C54   H4    S    
C58   H6    S    
C48   C60   S    
C21   C29   S    
O3    Zn2   S    
C43   O11   A    
C42   O10   A    
C67   C68   S    
C23   C31   S    
C24   C32   S    
C56   C62   S    
C36   C56   A    
C15   C27   A    
O14   Zn4   S    
C10   C34   A    
C14   C26   A    
C9    C11   A    
C68   H25   S    
C11   H21   S    
C9    C33   A    
C69   H29   S    
C3    C57   A    
C55   C61   S    
C17   H13   S    
C13   C15   A    
C23   O5    A    
C14   C16   A    
C36   C44   S    
C25   C45   A    
C35   C43   S    
C69   H28   S    
C65   N7    T    
C20   C32   A    
C27   C47   A    
C72   H35   S    
C21   C25   S    
C28   C48   A    
C22   C30   S    
C51   H15   S    
C31   C51   A    
C20   C66   S    
C34   C54   A    
C10   H10   S    
C61   N3    T    
C49   H1    S    
C50   H2    S    
C70   C71   S    
C11   C35   A    
C24   O4    A    
O17   C67   S    
C41   O15   A    
O1    Zn1   S    
C71   C72   S    
C12   H22   S    
C40   C42   S    
C43   O13   A    
C18   C20   A    
O6    Zn2   S    
C67   H24   S    
C45   O17   S    
C68   H26   S    
O5    Zn1   S    
C26   C46   A    
C6    H8    S    
C21   C37   S    
O12   Zn3   S    
C71   H33   S    
C22   C26   S    
C4    C58   A    
C60   N2    T    
C7    C39   A    
C8    C40   A    
C63   N5    T    
C24   O6    A    
C37   C57   A    
C16   C64   S    
C69   H27   S    
C70   H31   S    
