data_mof_unit_22954.cif
_audit_creation_date              2012-12-10T19:46:51-0500
_audit_creation_method            fapswitch 2.2
_symmetry_space_group_name_H-M    P1
_symmetry_Int_Tables_number       1
_space_group_crystal_system       triclinic
_cell_length_a                    10.94076
_cell_length_b                    10.934467
_cell_length_c                    13.141889
_cell_angle_alpha                 92.522789
_cell_angle_beta                  91.410437
_cell_angle_gamma                 89.381165
_cell_volume                      1570.10834237

loop_
_atom_site_label
_atom_site_type_symbol
_atom_type_description
_atom_site_fract_x
_atom_site_fract_y
_atom_site_fract_z
_atom_type_partial_charge
C1    C     C_R   0.499746 0.259366 0.497736 0.818877
C2    C     C_R   0.504209 0.740514 0.502456 0.822921
C3    C     C_R   0.872796 0.492841 0.502649 -0.105487
C4    C     C_R   0.126692 0.500409 0.496986 -0.105820
C5    C     C_R   0.942477 0.483145 0.593632 0.026296
C6    C     C_R   0.056665 0.506524 0.405714 0.023274
C7    C     C_R   0.422525 0.187649 0.152908 -0.203718
C8    C     C_R   0.581624 0.804998 0.847315 -0.214437
C9    C     C_R   0.420764 0.160219 0.255795 -0.099720
C10   C     C_R   0.585572 0.833793 0.744812 -0.093842
C11   C     C_R   0.521264 0.100756 0.301126 0.076674
C12   C     C_R   0.488672 0.899203 0.699963 0.083052
C13   C     C_R   0.621967 0.067069 0.241453 -0.171959
C14   C     C_R   0.389813 0.938013 0.759979 -0.179547
C15   C     C_R   0.622296 0.090948 0.137622 0.240405
C16   C     C_R   0.387708 0.913440 0.863471 0.236658
C17   C     C_R   0.522579 0.152754 0.093799 -0.123748
C18   C     C_R   0.483345 0.844942 0.906706 -0.101717
C19   C     C_R   0.520416 0.927762 0.412323 -0.254153
C20   C     C_R   0.494861 0.072264 0.589160 -0.249746
C21   C     C_R   0.509175 0.872996 0.505780 -0.098347
C22   C     C_R   0.501150 0.126840 0.495142 -0.097023
C23   C     C_R   0.259327 0.501903 0.498754 0.831824
C24   C     C_R   0.740405 0.495065 0.501090 0.826217
C25   C     C_R   0.498372 0.946208 0.596334 0.011943
C26   C     C_R   0.513894 0.053687 0.404858 0.014056
C27   C     C_1   0.500734 0.499759 0.173635 0.139966
C28   C     C_1   0.500381 0.499990 0.826388 0.137844
C29   C     C_1   0.501286 0.499899 0.050722 -0.047396
C30   C     C_1   0.501072 0.500089 0.949336 -0.062286
C31   C     C_R   0.183853 0.651588 0.175791 0.279420
C32   C     C_R   0.796512 0.316148 0.804443 0.229026
C33   C     C_R   0.142994 0.635747 0.274694 -0.259389
C34   C     C_R   0.839199 0.343947 0.708459 -0.208766
C35   C     C_R   0.109362 0.519986 0.304777 0.108733
C36   C     C_R   0.888429 0.458998 0.692507 0.103628
C37   C     C_R   0.115920 0.419192 0.235680 -0.194895
C38   C     C_R   0.891666 0.548245 0.772120 -0.245570
C39   C     C_R   0.154950 0.434272 0.136798 -0.296398
C40   C     C_R   0.848696 0.521815 0.867752 -0.213668
C41   C     C_R   0.186809 0.550425 0.105054 0.317434
C42   C     C_R   0.802931 0.405322 0.885593 0.316720
C43   C     C_R   0.930551 0.503127 0.409803 -0.245676
C44   C     C_R   0.068776 0.489010 0.589904 -0.244205
Cu1   Cu    Cu3+1 0.499990 0.499990 0.592680 0.971422
Cu2   Cu    Cu3+1 0.500010 0.500010 0.407320 0.972450
H1    H     H_    0.698068 0.017792 0.275351 0.128351
H2    H     H_    0.316536 0.992042 0.726900 0.134933
H3    H     H_    0.532490 0.871614 0.343207 0.160380
H4    H     H_    0.487157 0.128560 0.658824 0.156626
H5    H     H_    0.137654 0.713804 0.328225 0.134564
H6    H     H_    0.836172 0.274916 0.646695 0.129602
H7    H     H_    0.088718 0.329402 0.257875 0.142436
H8    H     H_    0.928153 0.638060 0.760208 0.143613
H9    H     H_    0.157589 0.355602 0.083896 0.136181
H10   H     H_    0.850825 0.592517 0.928058 0.148248
H11   H     H_    0.877220 0.509950 0.339500 0.163773
H12   H     H_    0.122126 0.481326 0.660077 0.162449
H13   H     H_    0.521127 0.171419 0.013512 0.143912
H14   H     H_    0.483438 0.824810 0.986578 0.145308
H15   H     H_    0.344965 0.233257 0.118203 0.138774
H16   H     H_    0.656308 0.754180 0.881448 0.141044
H17   H     H_    0.340226 0.182740 0.299415 0.127544
H18   H     H_    0.664939 0.807237 0.701055 0.127027
N1    N     N_1   0.500030 0.500030 0.268070 -0.135090
N2    N     N_1   0.499970 0.499970 0.731930 -0.137472
O1    O     O_R   0.499980 0.319630 0.578260 -0.591156
O2    O     O_R   0.500020 0.680370 0.421740 -0.591000
O3    O     O_R   0.500000 0.319650 0.421740 -0.573364
O4    O     O_R   0.500000 0.680350 0.578260 -0.572099
O5    O     O_R   0.319630 0.500000 0.578260 -0.584490
O6    O     O_R   0.680370 0.500000 0.421740 -0.586335
O7    O     O_R   0.319650 0.500020 0.421740 -0.568312
O8    O     O_R   0.680350 0.499980 0.578260 -0.573287
N3    N     N_2   0.225195 0.562994 0.003283 -0.417511
H19   H     H_    0.248215 0.482197 0.964573 0.239902
C45   C     C_3   0.156227 0.646572 0.940953 -0.658197
H20   H     H_    0.113878 0.595378 0.874671 0.210008
H21   H     H_    0.219577 0.714185 0.911691 0.257751
H22   H     H_    0.082529 0.695399 0.983611 0.219901
N4    N     N_2   0.758103 0.381110 0.983436 -0.435429
H23   H     H_    0.699257 0.308484 0.985202 0.273037
C46   C     C_3   0.848179 0.384370 0.065895 -0.700067
H24   H     H_    0.803151 0.366221 0.138480 0.233594
H25   H     H_    0.891228 0.475828 0.074424 0.239727
H26   H     H_    0.919599 0.313095 0.051597 0.222857
C47   C     C_3   0.725962 0.046157 0.072982 -0.922425
H27   H     H_    0.689961 0.988188 0.007851 0.245927
H28   H     H_    0.774797 0.124988 0.044108 0.257634
H29   H     H_    0.792822 0.990743 0.116763 0.223829
C48   C     C_3   0.285895 0.965754 0.926801 -0.928286
H30   H     H_    0.294124 0.937486 0.006421 0.261538
H31   H     H_    0.288280 0.067285 0.927268 0.229106
H32   H     H_    0.196381 0.934495 0.894261 0.231700
N5    N     N_2   0.222706 0.769046 0.148563 -0.428700
H33   H     H_    0.161152 0.837411 0.168950 0.236732
C49   C     C_3   0.345122 0.798292 0.185085 -0.688938
H34   H     H_    0.367653 0.893553 0.167237 0.221761
H35   H     H_    0.412342 0.735653 0.147723 0.240504
H36   H     H_    0.352179 0.790643 0.268991 0.232271
N6    N     N_2   0.749020 0.197983 0.819231 -0.450366
H37   H     H_    0.683865 0.172130 0.764655 0.256491
C50   C     C_3   0.842147 0.104334 0.830554 -0.725510
H38   H     H_    0.798461 0.016328 0.846634 0.235662
H39   H     H_    0.906163 0.129974 0.894735 0.239417
H40   H     H_    0.894262 0.091111 0.759296 0.222591

loop_
_geom_bond_atom_site_label_1
_geom_bond_atom_site_label_2
_ccdc_geom_bond_type
C47   H27   S    
N6    H37   S    
C27   C29   S    
N5    H33   S    
C49   H34   S    
C39   C41   A    
C45   H20   S    
C3    C43   A    
C19   C21   A    
C2    O2    A    
C33   C35   A    
Cu1   O5    S    
C20   C25   A    
C5    C36   S    
C6    C35   S    
C7    C9    A    
C19   C26   A    
C7    H15   S    
Cu2   O3    S    
C20   H4    S    
C49   H35   S    
C39   H9    S    
C44   H12   S    
C40   H10   S    
Cu1   O1    S    
C31   C33   A    
Cu2   O6    S    
C37   H7    S    
C40   C42   A    
C1    C22   S    
N6    C50   S    
C3    C24   S    
C42   N4    S    
C23   O7    A    
N4    C46   S    
N4    H23   S    
C45   H21   S    
C23   O5    A    
Cu2   N1    S    
C4    C6    A    
C48   H30   S    
C13   H1    S    
C4    C23   S    
C14   H2    S    
C4    C44   A    
C11   C26   S    
C7    C17   A    
Cu1   Cu2   S    
C48   H31   S    
C8    C18   A    
Cu1   O8    S    
C32   C34   A    
C28   N2    T    
N3    H19   S    
Cu2   O2    S    
C29   C30   T    
C27   N1    T    
C41   N3    S    
C9    C11   A    
C19   H3    S    
C46   H24   S    
C38   H8    S    
C2    C21   S    
C50   H39   S    
C16   C18   A    
N3    C45   S    
C10   C12   A    
C17   H13   S    
C18   H14   S    
C46   H25   S    
C5    C44   A    
C20   C22   A    
C6    C43   A    
C13   C15   A    
C14   C16   A    
C50   H38   S    
C49   H36   S    
C24   O6    A    
C15   C47   S    
C45   H22   S    
C15   C17   A    
C21   C25   A    
C31   C41   A    
C35   C37   A    
Cu1   O4    S    
C9    H17   S    
C10   H18   S    
C12   C14   A    
C3    C5    A    
N5    C49   S    
C33   H5    S    
C34   H6    S    
C12   C25   S    
C28   C30   S    
C37   C39   A    
C48   H32   S    
C38   C40   A    
C11   C13   A    
C24   O8    A    
C31   N5    S    
C36   C38   A    
C1    O1    A    
C50   H40   S    
C34   C36   A    
C1    O3    A    
C43   H11   S    
C46   H26   S    
C16   C48   S    
C8    C10   A    
C22   C26   A    
C47   H29   S    
Cu1   N2    S    
C47   H28   S    
C32   C42   A    
C32   N6    S    
C2    O4    A    
Cu2   O7    S    
C8    H16   S    
