data_mof_unit_10132.cif
_audit_creation_date              2012-12-11T15:23:36-0500
_audit_creation_method            fapswitch 2.2
_symmetry_space_group_name_H-M    P1
_symmetry_Int_Tables_number       1
_space_group_crystal_system       triclinic
_cell_length_a                    6.958155
_cell_length_b                    17.63618
_cell_length_c                    19.164081
_cell_angle_alpha                 109.434676
_cell_angle_beta                  89.607298
_cell_angle_gamma                 90.070088
_cell_volume                      2217.67407987

loop_
_atom_site_label
_atom_site_type_symbol
_atom_type_description
_atom_site_fract_x
_atom_site_fract_y
_atom_site_fract_z
_atom_type_partial_charge
O1    O     O_R   0.505810 0.439670 0.562310 -0.542514
O2    O     O_R   0.169070 0.404920 0.411210 -0.545959
O3    O     O_R   0.005550 0.560330 0.437690 -0.543895
C1    C     C_R   0.339730 0.381791 0.382807 0.693505
O4    O     O_R   0.175650 0.430000 0.560110 -0.530411
O5    O     O_R   0.012170 0.585580 0.587650 -0.509543
C2    C     C_R   0.344429 0.414521 0.581114 0.755884
O6    O     O_R   0.499180 0.414420 0.412350 -0.544209
O7    O     O_3   0.341430 0.551020 0.508860 -0.369859
V1    V     V_3+5 0.063930 0.490540 0.498360 1.446975
O8    O     O_R   0.682850 0.595080 0.588790 -0.549327
C3    C     C_R   0.850380 0.617675 0.617413 0.768931
O9    O     O_R   0.676280 0.570000 0.439890 -0.545451
C4    C     C_R   0.844570 0.584912 0.418027 0.698265
V2    V     V_3+5 0.564760 0.509460 0.501640 1.413421
O10   O     O_3   0.837130 0.448980 0.491140 -0.376492
C5    C     C_R   0.059882 0.869869 0.182919 -0.148004
C6    C     C_R   0.912979 0.867317 0.132147 -0.099416
C7    C     C_R   0.749082 0.820472 0.130810 -0.101704
C8    C     C_R   0.732551 0.774806 0.178065 -0.135044
C9    C     C_R   0.880445 0.776785 0.228514 -0.016860
C10   C     C_R   0.043033 0.826014 0.231972 0.203275
C11   C     C_R   0.568078 0.728915 0.177031 0.561022
C12   C     C_R   0.552447 0.682621 0.223299 0.495140
C13   C     C_R   0.706873 0.677436 0.269729 -0.162781
C14   C     C_R   0.866202 0.729448 0.275347 -0.039040
C15   C     C_R   0.012532 0.734184 0.327276 0.202905
C16   C     C_R   0.168861 0.786222 0.332580 -0.114448
C17   C     C_R   0.185195 0.830931 0.284759 -0.143042
C18   C     C_R   0.708951 0.622694 0.310517 0.164178
C19   C     C_R   0.850422 0.632423 0.366638 -0.093621
C20   C     C_R   0.000400 0.687616 0.373679 -0.245006
H1    H     H_    0.185196 0.907231 0.185271 0.108433
H2    H     H_    0.634983 0.819003 0.092138 0.185507
H3    H     H_    0.109997 0.693635 0.415159 0.121539
H4    H     H_    0.281441 0.790819 0.372582 0.103111
H5    H     H_    0.309749 0.869080 0.288839 0.094040
C21   C     C_3   0.750256 0.805966 0.755417 -0.174183
C22   C     C_3   0.899119 0.775524 0.691089 -0.200157
H6    H     H_    0.907445 0.796260 0.642439 0.134513
H7    H     H_    0.637520 0.851822 0.759566 0.139266
C23   C     C_3   0.859246 0.688162 0.688049 -0.188471
C24   C     C_3   0.714246 0.718363 0.752532 -0.050980
C25   C     C_3   0.875748 0.725549 0.808072 0.603383
C26   C     C_3   0.019430 0.695061 0.744127 0.570239
C27   C     C_3   0.062396 0.782722 0.748025 -0.283178
C28   C     C_3   0.912419 0.812496 0.811704 -0.195931
H8    H     H_    0.205460 0.809756 0.745970 0.152996
C29   C     C_3   0.558539 0.276856 0.277859 -0.211479
C30   C     C_3   0.485690 0.190239 0.266028 -0.226515
H9    H     H_    0.568314 0.142542 0.278494 0.120541
H10   H     H_    0.701854 0.300666 0.299652 0.131912
C31   C     C_3   0.410897 0.185477 0.189146 -0.098586
C32   C     C_3   0.481819 0.270560 0.200692 0.636648
C33   C     C_3   0.286810 0.304930 0.234862 0.065318
C34   C     C_3   0.213070 0.219042 0.223213 -0.187042
C35   C     C_3   0.288235 0.224807 0.300899 -0.146467
C36   C     C_3   0.360170 0.310800 0.312095 -0.102260
H11   H     H_    0.070107 0.195278 0.200904 0.142982
H12   H     H_    0.205058 0.205963 0.341934 0.122027
C37   C     C_R   0.304223 0.106365 0.804442 0.468404
C38   C     C_R   0.416723 0.133406 0.868101 -0.280655
C39   C     C_R   0.514722 0.206486 0.885192 0.515528
C40   C     C_R   0.497146 0.255772 0.839961 -0.106177
C41   C     C_R   0.383020 0.227131 0.774459 -0.145696
C42   C     C_R   0.290569 0.150772 0.755033 -0.029992
C43   C     C_R   0.589774 0.332392 0.857340 0.010334
C44   C     C_R   0.566703 0.377886 0.809928 0.580141
C45   C     C_R   0.460154 0.348721 0.744823 -0.024748
C46   C     C_R   0.367578 0.273514 0.726672 -0.025373
C47   C     C_R   0.260208 0.244914 0.660419 0.043031
C48   C     C_R   0.141225 0.176748 0.649429 0.077892
C49   C     C_R   0.181358 0.122815 0.688325 0.162945
C50   C     C_R   0.444068 0.394754 0.697767 -0.138035
C51   C     C_R   0.353518 0.363974 0.629271 -0.100399
C52   C     C_R   0.278390 0.285023 0.606900 0.093412
H13   H     H_    0.507225 0.454257 0.713152 0.185283
O11   O     O_R   0.271890 0.085690 0.087580 -0.557398
O12   O     O_R   0.595690 0.070020 0.939870 -0.518420
O13   O     O_R   0.758900 0.914390 0.912370 -0.549396
C53   C     C_R   0.426998 0.084954 0.918231 0.874285
O14   O     O_R   0.602020 0.095100 0.088770 -0.525874
O15   O     O_R   0.765280 0.939660 0.062330 -0.555983
C54   C     C_R   0.431550 0.116689 0.117775 0.726328
O16   O     O_R   0.265520 0.060430 0.937620 -0.516270
O17   O     O_3   0.429560 0.949050 0.991100 -0.389437
V3    V     V_3+5 0.707160 0.009450 0.001650 1.518703
O18   O     O_R   0.094540 0.929890 0.060190 -0.538989
C55   C     C_R   0.925482 0.915657 0.082305 0.699452
O19   O     O_R   0.088200 0.904800 0.911290 -0.538002
C56   C     C_R   0.920753 0.882349 0.882633 0.795928
V4    V     V_3+5 0.206300 0.990390 0.998440 1.493637
O20   O     O_3   0.934030 0.050940 0.008900 -0.360745
C57   C     C_3   0.518588 0.686059 0.762747 -0.248890
C58   C     C_3   0.435582 0.732752 0.839607 -0.567004
H14   H     H_    0.532502 0.729688 0.884191 0.261844
H15   H     H_    0.413241 0.796865 0.845355 0.182699
H16   H     H_    0.296944 0.706927 0.849095 0.270426
H17   H     H_    0.425600 0.692809 0.718533 0.207456
H18   H     H_    0.531421 0.621338 0.756436 0.229497
F1    F     F_    0.873725 0.698605 0.868108 -0.654326
F2    F     F_    0.139339 0.630505 0.736748 -0.691815
F3    F     F_    0.582208 0.289924 0.146379 -0.696681
C59   C     C_3   0.171342 0.369686 0.217453 -0.389238
C60   C     C_3   0.117813 0.343941 0.135770 -0.612895
H19   H     H_    0.249104 0.331843 0.100530 0.248157
H20   H     H_    0.027318 0.288987 0.120478 0.250182
H21   H     H_    0.035373 0.392672 0.124964 0.218159
H22   H     H_    0.038812 0.380728 0.251636 0.189551
H23   H     H_    0.255774 0.426177 0.232593 0.185149
F4    F     F_    0.205670 0.036955 0.793227 -0.714683
F5    F     F_    0.619781 0.228963 0.948096 -0.678627
C61   C     C_3   0.714376 0.368725 0.925372 -0.240637
C62   C     C_3   0.592030 0.407413 0.994733 -0.554195
H24   H     H_    0.512633 0.459798 0.989401 0.231019
H25   H     H_    0.486220 0.364409 0.003663 0.254961
H26   H     H_    0.686428 0.428728 0.043928 0.214502
H27   H     H_    0.816973 0.324105 0.932833 0.222746
H28   H     H_    0.810242 0.416206 0.918551 0.221322
F6    F     F_    0.650242 0.451634 0.827173 -0.664921
C63   C     C_3   0.257556 0.239226 0.524192 -0.406025
C64   C     C_3   0.452478 0.227381 0.484342 -0.766102
H29   H     H_    0.506656 0.284420 0.479291 0.229190
H30   H     H_    0.559648 0.203514 0.514390 0.228573
H31   H     H_    0.438204 0.183308 0.427746 0.211169
H32   H     H_    0.201157 0.177816 0.513330 0.185636
H33   H     H_    0.156884 0.270986 0.498609 0.179661
C65   C     C_3   0.951571 0.170294 0.607822 -0.399823
C66   C     C_3   0.778197 0.170188 0.657205 -0.725241
H34   H     H_    0.775565 0.116074 0.674358 0.216822
H35   H     H_    0.781151 0.224634 0.707361 0.235060
H36   H     H_    0.644088 0.170465 0.626353 0.219250
H37   H     H_    0.930112 0.222982 0.589309 0.194899
H38   H     H_    0.948868 0.116306 0.557332 0.163762
C67   C     C_3   0.116851 0.035271 0.654655 -0.273597
C68   C     C_3   0.288753 0.978356 0.629546 -0.724594
H39   H     H_    0.371344 0.993454 0.586110 0.201533
H40   H     H_    0.386919 0.982009 0.675844 0.255166
H41   H     H_    0.236708 0.915457 0.605948 0.205687
H42   H     H_    0.020737 0.017191 0.692643 0.233187
H43   H     H_    0.029291 0.025192 0.604491 0.152239
F7    F     F_    0.418642 0.730160 0.132129 -0.640284
F8    F     F_    0.377572 0.649924 0.226554 -0.673510
C69   C     C_3   0.583882 0.547151 0.287046 -0.320837
C70   C     C_3   0.705696 0.471001 0.262933 -0.779603
H44   H     H_    0.825122 0.476946 0.226408 0.246111
H45   H     H_    0.762685 0.456275 0.310642 0.212602
H46   H     H_    0.614634 0.420482 0.231323 0.266541
H47   H     H_    0.480817 0.546838 0.331344 0.188282
H48   H     H_    0.497306 0.541182 0.237750 0.252694

loop_
_geom_bond_atom_site_label_1
_geom_bond_atom_site_label_2
_ccdc_geom_bond_type
O15   V3    S    
C9    C14   A    
C10   C17   A    
C32   C33   S    
C58   H14   S    
C4    C19   S    
C1    O6    A    
C65   C66   S    
O12   V3    S    
C70   H44   S    
C35   C36   S    
C58   H16   S    
C67   C68   S    
C31   C32   S    
C60   H20   S    
C14   C15   A    
C38   C39   A    
C48   C65   S    
C31   C54   S    
C52   C63   S    
C16   C17   A    
C63   H33   S    
O13   V3    S    
O5    C3    A    
C59   H22   S    
C17   H5    S    
C12   F8    S    
C29   C32   S    
C24   C57   S    
C18   C69   S    
C34   C35   S    
C6    C7    A    
C39   F5    S    
C3    C23   S    
C61   H28   S    
O8    V2    S    
C37   C42   A    
C57   C58   S    
O18   V4    S    
C44   C45   A    
C50   H13   S    
C69   H48   S    
C11   C12   A    
C11   F7    S    
C46   C47   A    
O1    V2    S    
O7    V1    S    
C25   C28   S    
C66   H36   S    
O9    C4    A    
C6    C55   S    
C45   C46   A    
C5    H1    S    
C68   H41   S    
C59   C60   S    
C70   H45   S    
O16   V4    S    
C5    C6    A    
C22   C23   S    
C67   H42   S    
O15   C55   A    
C60   H21   S    
C27   H8    S    
C30   C31   S    
C50   C51   A    
C43   C44   A    
C20   H3    S    
C49   C67   S    
C32   F3    S    
C21   C22   S    
C12   C13   A    
C21   H7    S    
C68   H40   S    
C22   H6    S    
O12   C53   A    
O17   V3    S    
C48   C49   A    
C35   H12   S    
C2    C51   S    
O11   V4    S    
C13   C14   A    
C26   C27   S    
C42   C49   A    
C33   C59   S    
C29   C36   S    
C61   H27   S    
C63   H32   S    
C23   C26   S    
C41   C46   A    
O2    C1    A    
C51   C52   A    
C40   C43   A    
C69   H47   S    
C65   H38   S    
O19   V4    S    
C19   C20   A    
C8    C11   A    
C57   H18   S    
C25   F1    S    
C29   H10   S    
C33   C34   S    
C30   H9    S    
C63   C64   S    
C45   C50   A    
C8    C9    A    
C21   C28   S    
O3    C4    A    
C22   C27   S    
C38   C53   S    
C41   C42   A    
O6    V2    S    
O14   C54   A    
O9    V2    S    
C24   C25   S    
C21   C24   S    
C23   C24   S    
C64   H30   S    
O2    V1    S    
C47   C52   A    
C70   H46   S    
C25   C26   S    
O4    C2    A    
C61   C62   S    
C31   C34   S    
C13   C18   A    
C27   C28   S    
C15   C20   A    
O1    C2    A    
C30   C35   S    
C28   C56   S    
C68   H39   S    
C7    H2    S    
O5    V1    S    
C62   H25   S    
O8    C3    A    
C58   H15   S    
C62   H24   S    
C60   H19   S    
C5    C10   A    
C34   H11   S    
C69   C70   S    
C40   C41   A    
C7    C8    A    
C43   C61   S    
O4    V1    S    
O3    V1    S    
V1    O10   S    
C65   H37   S    
C44   F6    S    
C59   H23   S    
O19   C56   A    
C18   C19   A    
C57   H17   S    
C64   H31   S    
O13   C56   A    
V2    O10   S    
V3    O20   S    
V4    O20   S    
O7    V2    S    
C37   C38   A    
C62   H26   S    
C26   F2    S    
C39   C40   A    
O11   C54   A    
C67   H43   S    
C47   C48   A    
O18   C55   A    
C16   H4    S    
C29   C30   S    
C33   C36   S    
C1    C36   S    
C15   C16   A    
C66   H34   S    
O17   V4    S    
C64   H29   S    
C9    C10   A    
C53   O16   A    
O14   V3    S    
C66   H35   S    
C37   F4    S    
