data_mof_unit_28854.cif
_audit_creation_date              2012-12-11T16:56:19-0500
_audit_creation_method            fapswitch 2.2
_symmetry_space_group_name_H-M    P1
_symmetry_Int_Tables_number       1
_space_group_crystal_system       triclinic
_cell_length_a                    6.959354
_cell_length_b                    14.653082
_cell_length_c                    16.162069
_cell_angle_alpha                 90.645477
_cell_angle_beta                  91.050732
_cell_angle_gamma                 90.069503
_cell_volume                      1647.75953783

loop_
_atom_site_label
_atom_site_type_symbol
_atom_type_description
_atom_site_fract_x
_atom_site_fract_y
_atom_site_fract_z
_atom_type_partial_charge
O1    O     O_R   0.505830 0.583360 0.413880 -0.548654
O2    O     O_R   0.175830 0.595460 0.585520 -0.534911
O3    O     O_R   0.005520 0.416640 0.586120 -0.536786
C1    C     C_R   0.345821 0.617337 0.614523 0.715245
O4    O     O_R   0.176120 0.594390 0.414490 -0.538077
O5    O     O_R   0.005810 0.415570 0.413870 -0.539561
C2    C     C_R   0.343532 0.614381 0.384276 0.675888
O6    O     O_R   0.505540 0.584430 0.586130 -0.507009
O7    O     O_3   0.339200 0.441330 0.500000 -0.385362
V1    V     V_3+5 0.064350 0.510880 0.500000 1.445118
O8    O     O_R   0.676100 0.404540 0.414480 -0.551634
C3    C     C_R   0.844540 0.381784 0.386307 0.699417
O9    O     O_R   0.675810 0.405610 0.585510 -0.553360
C4    C     C_R   0.848615 0.386968 0.616345 0.758505
V2    V     V_3+5 0.564340 0.489120 0.500000 1.423760
O10   O     O_3   0.839360 0.558670 0.500000 -0.352308
C5    C     C_2   0.734343 0.220165 0.793801 -0.138101
C6    C     C_2   0.877618 0.161372 0.811032 -0.324883
H1    H     H_    0.615032 0.226368 0.835889 0.143298
H2    H     H_    0.987379 0.146834 0.766613 0.119067
C7    C     C_2   0.728172 0.277599 0.718221 -0.200190
C8    C     C_2   0.878641 0.326283 0.689489 0.000037
H3    H     H_    0.587814 0.285547 0.689155 0.126064
C9    C     C_R   0.731367 0.179437 0.243616 0.099742
C10   C     C_R   0.884301 0.179772 0.188240 -0.113763
C11   C     C_R   0.033890 0.242617 0.204305 -0.183591
H4    H     H_    0.155469 0.245354 0.163781 0.133990
C12   C     C_R   0.021348 0.307156 0.269341 -0.161349
H5    H     H_    0.134564 0.357352 0.276968 0.131186
C13   C     C_R   0.858595 0.311016 0.320230 -0.120084
C14   C     C_R   0.718676 0.243313 0.307845 0.091942
C15   C     C_3   0.506599 0.251988 0.296395 -0.418396
C16   C     C_3   0.520354 0.182117 0.226530 -0.390489
H6    H     H_    0.463923 0.320848 0.274855 0.157460
H7    H     H_    0.427035 0.226524 0.350509 0.175186
H8    H     H_    0.485685 0.210437 0.164522 0.171371
H9    H     H_    0.449163 0.116220 0.240395 0.164530
C17   C     C_R   0.492279 0.677178 0.749295 0.038585
C18   C     C_R   0.354924 0.683422 0.685080 -0.168684
C19   C     C_R   0.219752 0.754405 0.691576 -0.169074
H10   H     H_    0.118936 0.764268 0.641275 0.165456
C20   C     C_R   0.224314 0.816896 0.759030 -0.188582
H11   H     H_    0.120143 0.871640 0.760788 0.113974
C21   C     C_R   0.372056 0.812923 0.819810 -0.077402
C22   C     C_R   0.501597 0.741234 0.813760 -0.041928
C23   C     C_3   0.714356 0.743898 0.818026 -0.499081
C24   C     C_3   0.707342 0.671915 0.747964 0.880745
H12   H     H_    0.765948 0.718881 0.878722 0.162431
H13   H     H_    0.773453 0.811688 0.802555 0.157033
C25   C     C_R   0.489423 0.672450 0.251297 -0.034095
C26   C     C_R   0.348069 0.677597 0.312393 -0.127212
C27   C     C_R   0.204370 0.744550 0.300748 -0.149932
H14   H     H_    0.085833 0.749278 0.343018 0.113669
C28   C     C_R   0.218281 0.810069 0.237341 -0.198851
H15   H     H_    0.108287 0.861990 0.232351 0.122026
C29   C     C_R   0.377858 0.811913 0.184358 -0.121198
C30   C     C_R   0.507822 0.739640 0.191922 0.060030
C31   C     C_3   0.722832 0.734787 0.195131 -0.093451
C32   C     C_3   0.702490 0.654387 0.255278 0.325556
H16   H     H_    0.785210 0.795933 0.226991 0.060936
H17   H     H_    0.768802 0.667860 0.317299 0.059598
O11   O     O_R   0.229930 0.912420 0.917160 -0.542439
O12   O     O_R   0.559420 0.902500 0.088780 -0.541459
O13   O     O_R   0.729660 0.081330 0.089380 -0.536996
C33   C     C_R   0.391280 0.881177 0.117872 0.700335
O14   O     O_R   0.559650 0.901420 0.917750 -0.537857
O15   O     O_R   0.729880 0.080250 0.917130 -0.537291
C34   C     C_R   0.389105 0.881098 0.887857 0.709044
O16   O     O_R   0.229700 0.913500 0.089410 -0.542108
O17   O     O_3   0.396250 0.055540 0.003280 -0.371052
V3    V     V_3+5 0.671130 0.986010 0.003260 1.386958
O18   O     O_R   0.059600 0.091310 0.917720 -0.544030
C35   C     C_R   0.889317 0.108992 0.887459 0.749451
O19   O     O_R   0.059370 0.092380 0.088750 -0.543916
C36   C     C_R   0.891479 0.114371 0.117556 0.695822
V4    V     V_3+5 0.171120 0.007820 0.003230 1.380334
O20   O     O_3   0.896130 0.938240 0.003240 -0.377794
O21   O     O_3   0.762814 0.584049 0.774791 -0.569787
C37   C     C_3   0.961702 0.581110 0.792000 -0.244108
H18   H     H_    0.010115 0.633086 0.838314 0.128661
H19   H     H_    0.041993 0.589565 0.734429 0.181518
H20   H     H_    0.996179 0.513615 0.818677 0.157251
O22   O     O_3   0.788631 0.694453 0.670029 -0.542792
C38   C     C_3   0.746259 0.783677 0.641267 -0.328146
H21   H     H_    0.840472 0.835403 0.671670 0.122713
H22   H     H_    0.595482 0.805039 0.648620 0.145275
H23   H     H_    0.775504 0.785475 0.574075 0.161142
C39   C     C_3   0.821987 0.714509 0.111866 -0.231962
C40   C     C_3   0.700159 0.661336 0.047727 -0.688846
H24   H     H_    0.631366 0.600851 0.074813 0.248601
H25   H     H_    0.586718 0.706068 0.021032 0.202493
H26   H     H_    0.793937 0.636877 0.997402 0.196712
H27   H     H_    0.863426 0.780373 0.084016 0.180320
H28   H     H_    0.958111 0.677061 0.124247 0.199894
O23   O     O_3   0.767967 0.571215 0.218840 -0.541953
C41   C     C_3   0.634617 0.498987 0.224202 -0.244358
H29   H     H_    0.509893 0.509441 0.181524 0.128471
H30   H     H_    0.584087 0.490384 0.287982 0.147901
H31   H     H_    0.705725 0.434943 0.204470 0.161441
C42   C     C_3   0.078493 0.318732 0.733130 -0.346859
C43   C     C_3   0.237460 0.387770 0.715044 -0.716346
H32   H     H_    0.305025 0.371758 0.654966 0.238462
H33   H     H_    0.184092 0.458152 0.714408 0.213169
H34   H     H_    0.351704 0.383669 0.763764 0.197466
H35   H     H_    0.058418 0.322165 0.801168 0.200436
H36   H     H_    0.142644 0.252329 0.716006 0.172378

loop_
_geom_bond_atom_site_label_1
_geom_bond_atom_site_label_2
_ccdc_geom_bond_type
O14   C34   A    
O12   C33   A    
C43   H32   S    
C28   H15   S    
O23   C41   S    
C38   H23   S    
O18   V4    S    
C22   C23   S    
C21   C22   A    
C23   H13   S    
C11   H4    S    
O19   V4    S    
C25   C32   S    
C12   H5    S    
C38   H22   S    
O5    C3    A    
C17   C18   A    
C31   H16   S    
C29   C33   S    
C41   H31   S    
C16   H8    S    
C29   C30   A    
O16   V4    S    
O13   V3    S    
C17   C22   A    
C39   H27   S    
O8    V2    S    
C38   H21   S    
O22   C38   S    
C41   H30   S    
O17   V3    S    
O15   C35   A    
C24   O22   S    
C40   H25   S    
O7    V1    S    
C6    H2    S    
C1    O6    A    
C19   C20   A    
C43   H33   S    
C7    C8    D    
O11   V4    S    
C20   C21   A    
C27   C28   A    
C5    C6    D    
C23   H12   S    
C28   C29   A    
C32   H17   S    
C8    C42   S    
O19   C36   A    
C26   C27   A    
C15   H7    S    
C9    C10   A    
C18   C19   A    
O4    C2    A    
O21   C37   S    
C31   C32   S    
C16   H9    S    
C10   C36   S    
C15   H6    S    
O2    C1    A    
O14   V3    S    
C1    C18   S    
C41   H29   S    
C25   C26   A    
C42   H35   S    
V4    O20   S    
C40   H26   S    
C17   C24   S    
O3    C4    A    
C32   O23   S    
O1    V2    S    
C19   H10   S    
O12   V3    S    
O6    V2    S    
C7    H3    S    
O17   V4    S    
C21   C34   S    
C20   H11   S    
O2    V1    S    
V3    O20   S    
C27   H14   S    
C37   H19   S    
C23   C24   S    
C3    C13   S    
O1    C2    A    
C25   C30   A    
C11   C12   A    
C14   C15   S    
O18   C35   A    
C31   C39   S    
O5    V1    S    
C37   H20   S    
O8    C3    A    
C43   H34   S    
C42   H36   S    
C9    C16   S    
O11   C34   A    
C6    C35   S    
C4    C8    S    
O9    V2    S    
C10   C11   A    
C9    C14   A    
C2    C26   S    
O4    V1    S    
O3    V1    S    
V1    O10   S    
C15   C16   S    
C30   C31   S    
C13   C14   A    
C33   O16   A    
C12   C13   A    
C42   C43   S    
C5    H1    S    
O13   C36   A    
O15   V3    S    
O7    V2    S    
C5    C7    S    
C37   H18   S    
C39   C40   S    
C39   H28   S    
C24   O21   S    
C40   H24   S    
O9    C4    A    
V2    O10   S    
