data_mof_unit_63329.cif
_audit_creation_date              2012-12-10T18:51:20-0500
_audit_creation_method            fapswitch 2.2
_symmetry_space_group_name_H-M    P1
_symmetry_Int_Tables_number       1
_space_group_crystal_system       triclinic
_cell_length_a                    19.464198
_cell_length_b                    18.142281
_cell_length_c                    19.374194
_cell_angle_alpha                 90.000226
_cell_angle_beta                  90.666539
_cell_angle_gamma                 90.003543
_cell_volume                      6841.04832758

loop_
_atom_site_label
_atom_site_type_symbol
_atom_type_description
_atom_site_fract_x
_atom_site_fract_y
_atom_site_fract_z
_atom_type_partial_charge
C1    C     C_R   0.367600 0.499867 0.500526 0.842845
C2    C     C_R   0.964058 0.514931 0.562034 -0.164887
C3    C     C_R   0.072055 0.513943 0.501104 0.116933
C4    C     C_R   0.927939 0.513944 0.498903 0.116930
C5    C     C_R   0.449973 0.721013 0.464780 0.078753
C6    C     C_R   0.444284 0.278769 0.523656 0.098433
C7    C     C_R   0.550033 0.721017 0.535214 0.078659
C8    C     C_R   0.555716 0.278779 0.476339 0.098328
C9    C     C_R   0.448644 0.798309 0.464654 -0.215209
C10   C     C_R   0.442971 0.201450 0.523423 -0.202190
C11   C     C_R   0.551364 0.798313 0.535343 -0.215289
C12   C     C_R   0.632398 0.499873 0.499482 0.842701
C13   C     C_R   0.557032 0.201460 0.476573 -0.202222
C14   C     C_R   0.500004 0.838081 0.500000 0.191534
C15   C     C_R   0.500003 0.161641 0.500000 0.176138
C16   C     C_R   0.493242 0.960561 0.562775 -0.080106
C17   C     C_R   0.506308 0.039056 0.437167 -0.082485
C18   C     C_R   0.506770 0.960561 0.437229 -0.080141
C19   C     C_R   0.493702 0.039056 0.562835 -0.082513
C20   C     C_R   0.500004 0.078618 0.500001 -0.068227
C21   C     C_R   0.500006 0.921047 0.500001 -0.069309
C22   C     C_R   0.500413 0.500119 0.367276 0.837753
C23   C     C_R   0.852412 0.509270 0.497883 0.033630
C24   C     C_R   0.499565 0.500120 0.632727 0.837110
C25   C     C_R   0.465270 0.556090 0.252979 -0.021881
C26   C     C_R   0.462916 0.444757 0.745444 -0.025989
C27   C     C_R   0.534436 0.556247 0.747047 -0.021640
C28   C     C_R   0.537188 0.444893 0.254556 -0.026147
C29   C     C_R   0.467204 0.555534 0.180908 -0.174793
C30   C     C_R   0.466039 0.443222 0.817637 -0.184482
C31   C     C_R   0.532482 0.555686 0.819114 -0.174875
C32   C     C_R   0.534051 0.443353 0.182365 -0.184353
C33   C     C_R   0.500104 0.498842 0.145520 0.007066
C34   C     C_R   0.147581 0.509262 0.502132 0.033638
C35   C     C_R   0.499781 0.498850 0.854492 0.007172
C36   C     C_R   0.500838 0.500393 0.290949 -0.198507
C37   C     C_R   0.499094 0.500397 0.709060 -0.198570
C38   C     C_R   0.499824 0.498568 0.930169 0.419643
C39   C     C_R   0.500046 0.498564 0.069843 0.419614
C40   C     C_R   0.747619 0.453530 0.541409 0.116550
C41   C     C_R   0.257983 0.548238 0.549420 0.120361
C42   C     C_R   0.252362 0.453419 0.458700 0.116712
C43   C     C_R   0.742018 0.548194 0.450551 0.120492
C44   C     C_R   0.819304 0.459364 0.541137 -0.187143
C45   C     C_R   0.708013 0.500027 0.496987 -0.066658
C46   C     C_R   0.186260 0.552766 0.547539 -0.180025
C47   C     C_R   0.180679 0.459273 0.458958 -0.187224
C48   C     C_R   0.813742 0.552712 0.452420 -0.180091
C49   C     C_2   0.423790 0.614963 0.285531 0.844233
C50   C     C_2   0.416826 0.390948 0.710479 0.860515
C51   C     C_2   0.575685 0.615306 0.714508 0.844639
C52   C     C_2   0.583430 0.391227 0.289516 0.860275
C53   C     C_3   0.716501 0.397082 0.589881 -0.422472
C54   C     C_3   0.683391 0.433275 0.652222 -0.726052
C55   C     C_3   0.295474 0.592718 0.604487 -0.385209
C56   C     C_R   0.291982 0.500004 0.503040 -0.066549
C57   C     C_3   0.299433 0.674031 0.584677 -0.743200
C58   C     C_3   0.283456 0.396829 0.410355 -0.422279
C59   C     C_3   0.316602 0.432832 0.347937 -0.726027
C60   C     C_3   0.704531 0.592622 0.395448 -0.385142
C61   C     C_3   0.700586 0.673954 0.415186 -0.743434
C62   C     C_2   0.485942 0.919210 0.628658 0.889262
C63   C     C_2   0.512691 0.080304 0.371136 0.893618
C64   C     C_2   0.514078 0.919212 0.371346 0.889341
C65   C     C_2   0.487315 0.080305 0.628866 0.893659
C66   C     C_R   0.964398 0.514807 0.436868 -0.170581
C67   C     C_R   0.035596 0.514921 0.563137 -0.170578
C68   C     C_R   0.035936 0.514815 0.437972 -0.164891
Cu1   Cu    Cu3+1 0.500000 0.573360 0.500000 0.987984
Cu2   Cu    Cu3+1 0.500000 0.426640 0.500000 0.976697
H1    H     H_    0.440281 0.598026 0.151979 0.183037
H2    H     H_    0.062387 0.513690 0.612432 0.136976
H3    H     H_    0.063113 0.514872 0.389501 0.140011
H4    H     H_    0.936881 0.515083 0.610505 0.140013
H5    H     H_    0.410590 0.690962 0.436941 0.158391
H6    H     H_    0.400359 0.308400 0.542789 0.125959
H7    H     H_    0.589423 0.690969 0.563041 0.158473
H8    H     H_    0.599637 0.308419 0.457196 0.126109
H9    H     H_    0.407972 0.826903 0.437023 0.141356
H10   H     H_    0.397852 0.172852 0.541674 0.142617
H11   H     H_    0.592038 0.826910 0.562972 0.141341
H12   H     H_    0.438673 0.400692 0.845446 0.180768
H13   H     H_    0.602151 0.172870 0.458319 0.142665
H14   H     H_    0.397488 0.722512 0.286822 0.337814
H15   H     H_    0.342263 0.373211 0.639119 0.324132
H16   H     H_    0.601236 0.723061 0.712934 0.337792
H17   H     H_    0.657925 0.373676 0.360988 0.324191
H18   H     H_    0.638696 0.466726 0.635953 0.260509
H19   H     H_    0.665193 0.390128 0.688315 0.239759
H20   H     H_    0.721137 0.468945 0.679756 0.258231
H21   H     H_    0.679164 0.361279 0.562245 0.221308
H22   H     H_    0.756751 0.358857 0.609806 0.203541
H23   H     H_    0.559241 0.598301 0.848044 0.182770
H24   H     H_    0.330480 0.704389 0.623828 0.255741
H25   H     H_    0.323877 0.680521 0.533623 0.257661
H26   H     H_    0.247173 0.698536 0.582384 0.241848
H27   H     H_    0.267888 0.587607 0.654196 0.204123
H28   H     H_    0.347920 0.571372 0.615085 0.225528
H29   H     H_    0.278906 0.468509 0.320346 0.258189
H30   H     H_    0.361360 0.466230 0.364130 0.260624
H31   H     H_    0.334722 0.389578 0.311918 0.239709
H32   H     H_    0.320758 0.361070 0.438080 0.221185
H33   H     H_    0.243184 0.358578 0.390508 0.203471
H34   H     H_    0.561549 0.400935 0.154545 0.180832
H35   H     H_    0.669597 0.704286 0.375974 0.255650
H36   H     H_    0.676086 0.680503 0.466206 0.257728
H37   H     H_    0.752854 0.698444 0.417517 0.241911
H38   H     H_    0.732113 0.587460 0.345741 0.204140
H39   H     H_    0.652078 0.571275 0.384873 0.225736
H40   H     H_    0.437336 0.838610 0.680695 0.348986
H41   H     H_    0.475809 0.160645 0.308967 0.356123
H42   H     H_    0.562699 0.838626 0.319311 0.348849
H43   H     H_    0.524181 0.160665 0.691028 0.356249
H44   H     H_    0.849907 0.424296 0.574759 0.138384
H45   H     H_    0.160408 0.590474 0.582014 0.143332
H46   H     H_    0.150066 0.424148 0.425393 0.138381
H47   H     H_    0.839601 0.590367 0.417897 0.143337
H48   H     H_    0.937605 0.513487 0.387576 0.136983
N1    N     N_R   0.500292 0.434085 0.034345 -0.217383
N2    N     N_R   0.499948 0.562990 0.965701 -0.216750
N3    N     N_R   0.499803 0.434086 0.965666 -0.217389
N4    N     N_R   0.499694 0.562988 0.034313 -0.216747
N5    N     N_R   0.500000 0.683620 0.500000 -0.176676
N6    N     N_R   0.500000 0.316380 0.500000 -0.178631
O1    O     O_R   0.400190 0.561980 0.499990 -0.575795
O2    O     O_R   0.428296 0.687232 0.260916 -0.743646
O3    O     O_2   0.415371 0.326863 0.730017 -0.578309
O4    O     O_R   0.372721 0.414311 0.657353 -0.789256
O5    O     O_2   0.615847 0.600678 0.668474 -0.631189
O6    O     O_R   0.570565 0.687635 0.738838 -0.743606
O7    O     O_2   0.585150 0.327184 0.269887 -0.578231
O8    O     O_R   0.627371 0.414685 0.342743 -0.789517
O9    O     O_2   0.523319 0.933546 0.678033 -0.557235
O10   O     O_R   0.436776 0.863318 0.633758 -0.749189
O11   O     O_2   0.559354 0.065975 0.331589 -0.552578
O12   O     O_R   0.599810 0.438020 0.500010 -0.593259
O13   O     O_R   0.465660 0.136055 0.354718 -0.742014
O14   O     O_2   0.476703 0.933538 0.321969 -0.557192
O15   O     O_R   0.563250 0.863332 0.366250 -0.749202
O16   O     O_2   0.440657 0.065959 0.668417 -0.552554
O17   O     O_R   0.534335 0.136074 0.645279 -0.741950
O18   O     O_R   0.599810 0.561980 0.500010 -0.575969
O19   O     O_R   0.400190 0.438020 0.499990 -0.593304
O20   O     O_R   0.499990 0.561970 0.400150 -0.565442
O21   O     O_R   0.500010 0.438030 0.599850 -0.561168
O22   O     O_R   0.500010 0.561970 0.599850 -0.565581
O23   O     O_R   0.499990 0.438030 0.400150 -0.561273
O24   O     O_2   0.383952 0.600216 0.331817 -0.631271

loop_
_geom_bond_atom_site_label_1
_geom_bond_atom_site_label_2
_ccdc_geom_bond_type
C66   C68   A    
C8    H8    S    
C30   H12   S    
C16   C21   A    
C59   H30   S    
C18   C21   A    
C59   H29   S    
C3    C68   A    
C6    N6    A    
C42   C58   S    
C51   O5    D    
C64   O14   D    
C53   C54   S    
C11   H11   S    
Cu1   O20   S    
C7    C11   A    
C49   O2    S    
Cu2   O19   S    
C8    C13   A    
C39   N4    A    
C30   C35   A    
C14   C21   S    
C1    C56   S    
C1    O1    A    
C54   H20   S    
C10   C15   A    
C26   C50   S    
C11   C14   A    
Cu1   N5    S    
C29   C33   A    
C17   C20   A    
C67   H2    S    
C9    H9    S    
C41   C55   S    
C60   H39   S    
C42   C56   A    
C65   O16   D    
C19   C20   A    
C27   C51   S    
C57   H26   S    
C53   H21   S    
C12   O12   A    
C41   C46   A    
C32   H34   S    
C58   H32   S    
C61   H35   S    
C43   C48   A    
C60   H38   S    
C7    H7    S    
C38   N2    A    
C68   H3    S    
Cu1   O1    S    
Cu2   O12   S    
Cu1   O22   S    
C63   O13   S    
H42   O15   S    
C15   C20   S    
C16   C62   S    
C51   O6    S    
N2    N4    A    
C24   C37   S    
N1    N3    A    
C25   C29   A    
C40   C45   A    
C3    C67   A    
C27   C31   A    
C59   H31   S    
C28   C32   A    
C35   C38   S    
C54   H19   S    
C2    C67   A    
C4    C23   S    
C10   H10   S    
H16   O6    S    
C3    C34   S    
Cu1   O18   S    
C31   H23   S    
C23   C44   A    
C49   O24   D    
C60   C61   S    
C52   O8    S    
H17   O8    S    
C5    H5    S    
C2    C4    A    
C9    C14   A    
C41   C56   A    
C5    C9    A    
C1    O19   A    
C65   O17   S    
Cu2   O23   S    
C55   H27   S    
C53   H22   S    
C17   C18   A    
Cu2   O21   S    
C33   C39   S    
C61   H36   S    
C43   C45   A    
C43   C60   S    
C34   C46   A    
C46   H45   S    
C26   C30   A    
C57   H24   S    
C13   C15   A    
C57   H25   S    
C31   C35   A    
H40   O10   S    
C50   O4    S    
H41   O13   S    
C5    N5    A    
C23   C48   A    
C4    C66   A    
C52   O7    D    
C8    N6    A    
C7    N5    A    
C12   C45   S    
C50   O3    D    
C2    H4    S    
C6    C10   A    
C26   C37   A    
C6    H6    S    
C48   H47   S    
C34   C47   A    
C22   C36   S    
C13   H13   S    
C24   O21   A    
C32   C33   A    
C62   O10   S    
H14   O2    S    
C55   C57   S    
C58   C59   S    
C24   O22   A    
C17   C63   S    
C54   H18   S    
C28   C52   S    
C18   C64   S    
C27   C37   A    
C16   C19   A    
C39   N1    A    
C55   H28   S    
C47   H46   S    
C12   O18   A    
C19   C65   S    
C42   C47   A    
H43   O17   S    
Cu1   Cu2   S    
C61   H37   S    
C25   C49   S    
C38   N3    A    
C25   C36   A    
C44   H44   S    
Cu2   N6    S    
C40   C44   A    
C22   O23   A    
C28   C36   A    
C40   C53   S    
C66   H48   S    
C22   O20   A    
H15   O4    S    
C58   H33   S    
C62   O9    D    
C63   O11   D    
C29   H1    S    
C64   O15   S    
