data_mof_unit_23323.cif
_audit_creation_date              2012-12-10T17:29:15-0500
_audit_creation_method            fapswitch 2.2
_symmetry_space_group_name_H-M    P1
_symmetry_Int_Tables_number       1
_space_group_crystal_system       triclinic
_cell_length_a                    12.13869
_cell_length_b                    12.907404
_cell_length_c                    13.406391
_cell_angle_alpha                 84.35693
_cell_angle_beta                  112.189847
_cell_angle_gamma                 92.965177
_cell_volume                      1935.26312231

loop_
_atom_site_label
_atom_site_type_symbol
_atom_type_description
_atom_site_fract_x
_atom_site_fract_y
_atom_site_fract_z
_atom_type_partial_charge
C1    C     C_R   0.473312 0.302794 0.483468 0.836023
C2    C     C_R   0.598140 0.467847 0.826243 -0.190130
C3    C     C_R   0.530810 0.814775 0.506387 -0.330206
C4    C     C_R   0.565064 0.493741 0.708139 0.858229
C5    C     C_R   0.449557 0.195890 0.455175 -0.199982
C6    C     C_R   0.329085 0.041437 0.462546 0.519998
C7    C     C_R   0.342523 0.149768 0.451533 -0.366794
C8    C     C_R   0.533069 0.137804 0.436821 -0.036209
C9    C     C_R   0.531940 0.030368 0.462710 -0.018999
C10   C     C_R   0.428747 0.980799 0.473244 -0.092106
C11   C     C_R   0.429513 0.872288 0.495630 0.384592
C12   C     C_R   0.514009 0.427463 0.965248 -0.140955
C13   C     C_R   0.637566 0.867789 0.516061 0.398846
C14   C     C_R   0.636219 0.973915 0.489277 -0.214149
C15   C     C_R   0.013430 0.609655 0.401545 0.267439
C16   C     C_R   0.522225 0.700952 0.505000 0.941269
C17   C     C_R   0.130949 0.592724 0.406105 0.438979
C18   C     C_R   0.161174 0.462166 0.553093 0.473144
C19   C     C_R   0.039737 0.468664 0.543185 -0.213790
C20   C     C_R   0.965095 0.543371 0.467285 -0.257297
C21   C     C_R   0.845957 0.553037 0.464075 -0.044935
C22   C     C_R   0.868303 0.405367 0.590036 0.457605
C23   C     C_R   0.515867 0.488971 0.872709 0.019411
C24   C     C_R   0.992070 0.406300 0.611433 0.320360
C25   C     C_R   0.434912 0.494612 0.293998 0.890742
C26   C     C_R   0.262558 0.545664 0.001761 -0.239404
C27   C     C_R   0.397077 0.482377 0.177972 -0.165202
C28   C     C_R   0.690429 0.397219 0.884450 -0.202364
C29   C     C_R   0.676679 0.325178 0.965133 0.297090
C30   C     C_R   0.582163 0.335255 0.999475 0.414671
C31   C     C_3   0.796921 0.808286 0.661659 0.096458
C32   C     C_3   0.909093 0.744012 0.697303 -0.818576
C33   C     C_3   0.162072 0.057545 0.508743 0.073895
C34   C     C_R   0.445512 0.462969 0.020232 -0.003840
C35   C     C_3   0.073490 0.995098 0.546645 -0.849715
C36   C     C_2   0.608351 0.188026 0.378778 0.372237
C37   C     C_2   0.783472 0.651988 0.419763 0.643152
C38   C     C_3   0.828944 0.235181 0.635876 0.130248
C39   C     C_3   0.762704 0.166702 0.694412 -0.888489
C40   C     C_3   0.977307 0.784578 0.350802 0.087681
C41   C     C_3   0.888933 0.860289 0.268976 -0.805037
C42   C     C_3   0.086939 0.390347 0.795206 0.180131
C43   C     C_3   0.097744 0.306060 0.886118 -0.866634
C44   C     C_3   0.125742 0.660032 0.237703 0.128456
C45   C     C_R   0.349083 0.529062 0.960891 0.098071
C46   C     C_3   0.200431 0.723632 0.183727 -0.809894
C47   C     C_3   0.277570 0.317449 0.641039 0.271375
C48   C     C_3   0.278705 0.240785 0.735348 -0.911650
C49   C     C_3   0.683897 0.453869 0.206195 0.167512
C50   C     C_3   0.791850 0.385317 0.263917 -0.735696
C51   C     C_2   0.802949 0.399452 0.865966 0.568327
C52   C     C_3   0.456362 0.207299 0.025287 0.064265
C53   C     C_3   0.440805 0.120774 0.104580 -0.714785
C54   C     C_3   0.724889 0.154947 0.975351 0.114438
C55   C     C_3   0.831318 0.083766 0.010083 -0.843095
C56   C     C_R   0.344344 0.582519 0.864914 -0.221869
C57   C     C_3   0.345829 0.816578 0.616519 0.213213
C58   C     C_3   0.241202 0.756299 0.630416 -0.829639
C59   C     C_R   0.434745 0.570878 0.828208 -0.074778
C60   C     C_R   0.476952 0.448053 0.133843 0.452309
C61   C     C_R   0.284090 0.515131 0.108823 -0.280990
H1    H     H_    0.216717 0.526773 0.139193 0.188102
H2    H     H_    0.953730 0.739267 0.786732 0.215030
H3    H     H_    0.885957 0.663911 0.671536 0.260903
H4    H     H_    0.110261 0.117462 0.445100 0.154180
H5    H     H_    0.225230 0.094613 0.580384 0.132788
H6    H     H_    0.119473 0.935742 0.612844 0.247462
H7    H     H_    0.027840 0.048191 0.578497 0.209578
H8    H     H_    0.004930 0.958899 0.478380 0.262121
H9    H     H_    0.610723 0.271476 0.363069 0.160209
H10   H     H_    0.827034 0.722403 0.452298 0.100025
H11   H     H_    0.922035 0.208130 0.668533 0.178415
H12   H     H_    0.719764 0.012292 0.495723 0.199216
H13   H     H_    0.790153 0.223086 0.548702 0.129907
H14   H     H_    0.669213 0.191736 0.668175 0.264873
H15   H     H_    0.763588 0.084375 0.677647 0.202105
H16   H     H_    0.807550 0.172005 0.782641 0.238740
H17   H     H_    0.066427 0.804962 0.349108 0.236725
H18   H     H_    0.980151 0.796067 0.432323 0.121033
H19   H     H_    0.799496 0.847254 0.272962 0.277003
H20   H     H_    0.918297 0.941704 0.286320 0.225962
H21   H     H_    0.883119 0.848985 0.186057 0.246351
H22   H     H_    0.017960 0.446022 0.790967 0.167395
H23   H     H_    0.270925 0.199885 0.443384 0.154635
H24   H     H_    0.172210 0.433505 0.815335 0.190493
H25   H     H_    0.173160 0.254541 0.899965 0.240090
H26   H     H_    0.112432 0.342293 0.961978 0.229005
H27   H     H_    0.015496 0.257437 0.864894 0.254293
H28   H     H_    0.038391 0.697954 0.205947 0.184759
H29   H     H_    0.109986 0.579166 0.213960 0.110739
H30   H     H_    0.293057 0.695158 0.215829 0.275994
H31   H     H_    0.160660 0.718662 0.094898 0.198368
H32   H     H_    0.203169 0.806560 0.200395 0.255250
H33   H     H_    0.372425 0.322883 0.652957 0.182155
H34   H     H_    0.275577 0.638524 0.823927 0.137326
H35   H     H_    0.223009 0.284381 0.563565 0.080739
H36   H     H_    0.190891 0.201595 0.718564 0.282820
H37   H     H_    0.344061 0.178619 0.748730 0.171555
H38   H     H_    0.305838 0.282007 0.809779 0.267823
H39   H     H_    0.693799 0.521851 0.251365 0.209361
H40   H     H_    0.685222 0.483700 0.126400 0.114624
H41   H     H_    0.784725 0.315388 0.219800 0.309550
H42   H     H_    0.874161 0.429432 0.267823 0.191921
H43   H     H_    0.798072 0.359821 0.347360 0.225911
H44   H     H_    0.855238 0.329818 0.884102 0.087293
H45   H     H_    0.181416 0.586428 0.952730 0.153389
H46   H     H_    0.453519 0.171499 0.952107 0.103132
H47   H     H_    0.380689 0.260997 0.003360 0.140810
H48   H     H_    0.433390 0.154631 0.174686 0.261863
H49   H     H_    0.517725 0.067627 0.133127 0.274178
H50   H     H_    0.358105 0.075452 0.064348 0.182517
H51   H     H_    0.684236 0.162890 0.885264 0.102264
H52   H     H_    0.659210 0.117164 0.007230 0.186160
H53   H     H_    0.870340 0.070490 0.099646 0.272150
H54   H     H_    0.802826 0.007662 0.975457 0.202532
H55   H     H_    0.900178 0.119690 0.981156 0.245328
H56   H     H_    0.439400 0.624770 0.763534 0.138960
H57   H     H_    0.348102 0.895738 0.643624 0.130603
H58   H     H_    0.429943 0.777365 0.669138 0.065315
H59   H     H_    0.252050 0.671555 0.630701 0.248874
H60   H     H_    0.233138 0.774781 0.706297 0.178773
H61   H     H_    0.158025 0.779124 0.562916 0.257619
H62   H     H_    0.736133 0.768640 0.698859 0.134978
H63   H     H_    0.822245 0.886859 0.691804 0.129074
H64   H     H_    0.971457 0.780624 0.660738 0.234035
N1    N     N_R   0.798200 0.480260 0.519790 -0.179650
N2    N     N_R   0.201820 0.519740 0.480210 -0.207063
O1    O     O_R   0.579910 0.341070 0.505280 -0.613119
O2    O     O_3   0.223262 0.994111 0.465941 -0.577815
O3    O     O_2   0.662959 0.136863 0.341275 -0.568881
O4    O     O_2   0.686203 0.657650 0.346614 -0.585620
O5    O     O_3   0.821041 0.340525 0.653022 -0.572885
O6    O     O_3   0.940693 0.681598 0.323926 -0.644382
O7    O     O_3   0.064245 0.343670 0.698226 -0.612503
O8    O     O_3   0.184005 0.661323 0.350797 -0.545683
O9    O     O_3   0.242414 0.417777 0.650285 -0.578662
O10   O     O_3   0.579592 0.396645 0.201812 -0.595918
O11   O     O_2   0.842124 0.481044 0.837290 -0.602481
O12   O     O_R   0.388440 0.353740 0.492580 -0.666427
O13   O     O_3   0.566230 0.259492 0.073841 -0.532100
O14   O     O_3   0.763198 0.251761 0.018698 -0.603779
O15   O     O_3   0.331001 0.822081 0.506540 -0.513313
O16   O     O_R   0.643280 0.490550 0.663120 -0.540029
O17   O     O_R   0.451810 0.503220 0.650420 -0.614347
O18   O     O_R   0.611560 0.646260 0.507420 -0.567841
O19   O     O_R   0.420090 0.658930 0.494720 -0.526577
O20   O     O_R   0.548190 0.496780 0.349580 -0.566381
O21   O     O_R   0.356720 0.509450 0.336880 -0.609596
O22   O     O_3   0.743651 0.816425 0.547719 -0.616409
Zn1   Zn    Zn3+2 0.627850 0.491540 0.508480 1.025130
Zn2   Zn    Zn3+2 0.372150 0.508460 0.491520 0.987997

loop_
_geom_bond_atom_site_label_1
_geom_bond_atom_site_label_2
_ccdc_geom_bond_type
C53   H49   S    
C56   H34   S    
C50   H43   S    
C49   O10   S    
C47   O9    S    
C19   C20   A    
O21   Zn2   S    
C26   H45   S    
C4    O16   A    
C33   H4    S    
C23   C59   A    
C48   H36   S    
C12   C23   A    
C57   O15   S    
C1    C5    S    
C43   H27   S    
C39   H16   S    
C28   C29   A    
C26   C61   A    
C31   H63   S    
O17   Zn2   S    
C27   C60   A    
C49   H40   S    
C38   C39   S    
C31   O22   S    
C28   C51   S    
C22   N1    A    
C46   H31   S    
C55   H55   S    
C33   O2    S    
C54   H52   S    
C16   O19   A    
C18   C19   A    
C8    C36   S    
C27   C61   A    
C26   C45   A    
N2    Zn2   S    
C52   H46   S    
O16   Zn1   S    
C47   C48   S    
C45   C56   A    
C36   H9    S    
C8    C9    A    
C17   O8    S    
C47   H35   S    
C1    O1    A    
C18   O9    S    
C39   H14   S    
C9    C10   A    
O18   Zn1   S    
C3    C13   A    
C60   O10   S    
C57   H58   S    
C22   O5    S    
C53   H50   S    
C44   O8    S    
C7    H23   S    
C41   H20   S    
C50   H42   S    
C59   H56   S    
C13   C14   A    
C34   C60   A    
C41   H19   S    
C6    O2    S    
C44   C46   S    
C33   H5    S    
C15   C20   A    
C38   H11   S    
C58   H61   S    
C30   O13   S    
C14   H12   S    
O20   Zn1   S    
C32   H3    S    
C5    C7    A    
C17   N2    A    
C46   H30   S    
C37   O4    D    
C16   O18   A    
C38   O5    S    
C32   H64   S    
C2    C4    S    
C9    C14   A    
C6    C10   A    
C29   C30   A    
C36   O3    D    
C18   N2    A    
C31   C32   S    
C35   H6    S    
C51   H44   S    
C29   O14   S    
C58   H59   S    
C40   H18   S    
C54   H51   S    
C25   O20   A    
C42   H24   S    
C39   H15   S    
C52   H47   S    
C34   C45   A    
O1    Zn1   S    
C40   C41   S    
C50   H41   S    
C37   H10   S    
C40   H17   S    
C42   C43   S    
C12   C34   A    
C44   H29   S    
C52   C53   S    
C38   H13   S    
C24   O7    S    
C15   C17   A    
C48   H38   S    
C54   C55   S    
C58   H60   S    
C12   C30   A    
C43   H25   S    
C42   H22   S    
C32   H2    S    
C1    O12   A    
C4    O17   A    
C5    C8    A    
C2    C28   A    
C6    C7    A    
C15   O6    S    
C55   H53   S    
C25   C27   S    
C48   H37   S    
C40   O6    S    
C56   C59   A    
C42   O7    S    
C43   H26   S    
C19   C24   A    
C13   O22   S    
C49   H39   S    
N1    Zn1   S    
C57   C58   S    
C46   H32   S    
C55   H54   S    
C35   H7    S    
C41   H21   S    
O12   Zn2   S    
C33   C35   S    
C47   H33   S    
C25   O21   A    
C22   C24   A    
C61   H1    S    
C11   O15   S    
C3    C11   A    
C10   C11   A    
C3    C16   S    
C31   H62   S    
O19   Zn2   S    
C52   O13   S    
C51   O11   D    
C54   O14   S    
C21   C37   S    
C20   C21   A    
C35   H8    S    
C49   C50   S    
C2    C23   A    
C53   H48   S    
C21   N1    A    
C44   H28   S    
C57   H57   S    
