data_mof_unit_46760.cif
_audit_creation_date              2013-03-05T16:04:00-0500
_audit_creation_method            fapswitch 2.2
_symmetry_space_group_name_H-M    P1
_symmetry_Int_Tables_number       1
_space_group_crystal_system       triclinic
_cell_length_a                    13.014301
_cell_length_b                    10.797863
_cell_length_c                    9.538176
_cell_angle_alpha                 89.575833
_cell_angle_beta                  96.643146
_cell_angle_gamma                 90.692324
_cell_volume                      1331.2469694

loop_
_atom_site_label
_atom_site_type_symbol
_atom_site_description
_atom_site_fract_x
_atom_site_fract_y
_atom_site_fract_z
_atom_type_partial_charge
O1    O     O_R   0.499990 0.319660 0.618740 -0.516221
O2    O     O_R   0.500010 0.680340 0.381260 -0.516241
O3    O     O_R   0.499990 0.319630 0.381170 -0.606179
O4    O     O_R   0.500010 0.680370 0.618830 -0.606173
C1    C     C_R   0.502659 0.262397 0.500726 0.865026
C2    C     C_R   0.497341 0.737603 0.499274 0.865047
O5    O     O_R   0.349000 0.499990 0.599490 -0.569056
O6    O     O_R   0.651000 0.500010 0.400510 -0.569039
O7    O     O_R   0.348990 0.499960 0.361920 -0.536789
O8    O     O_R   0.651010 0.500040 0.638080 -0.536793
C3    C     C_R   0.300235 0.500629 0.472400 0.851995
C4    C     C_R   0.699765 0.499374 0.527599 0.851989
Cu1   Cu    Cu3+1 0.500000 0.500020 0.640660 1.083327
Cu2   Cu    Cu3+1 0.500000 0.499980 0.359340 1.083321
C5    C     C_R   0.813217 0.499303 0.546258 -0.160901
C6    C     C_R   0.186783 0.500706 0.453739 -0.160903
C7    C     C_R   0.020286 0.467017 0.314842 -0.161219
C8    C     C_R   0.979713 0.532996 0.685156 -0.161206
C9    C     C_R   0.127761 0.475559 0.322094 0.340516
C10   C     C_R   0.872237 0.524460 0.677901 0.340529
C11   C     C_R   0.136163 0.521812 0.573100 -0.173927
C12   C     C_R   0.863836 0.478192 0.426899 -0.173933
C13   C     C_R   0.029107 0.514148 0.564833 0.078166
C14   C     C_R   0.970893 0.485858 0.435167 0.078159
H1    H     H_    0.819905 0.456202 0.326386 0.209537
H2    H     H_    0.180095 0.543802 0.673614 0.209546
H3    H     H_    0.975348 0.447035 0.214409 0.201345
H4    H     H_    0.024650 0.552985 0.785589 0.201342
C15   C     C_R   0.446200 0.066870 0.389815 -0.237390
C16   C     C_R   0.553798 0.933130 0.610185 -0.237391
H5    H     H_    0.401868 0.119296 0.306787 0.203019
H6    H     H_    0.598128 0.880704 0.693216 0.203026
C17   C     C_R   0.439378 0.938363 0.388444 0.369816
C18   C     C_R   0.560614 0.061636 0.611561 0.369826
C19   C     C_R   0.495125 0.871473 0.499123 -0.183535
C20   C     C_R   0.504874 0.128527 0.500877 -0.183532
C21   C     C_R   0.440301 0.417592 0.066697 -0.048989
C22   C     C_R   0.559697 0.582410 0.933303 -0.048981
H7    H     H_    0.392571 0.351728 0.116648 0.191921
H8    H     H_    0.607422 0.648279 0.883351 0.191938
C23   C     C_R   0.440000 0.416991 0.918229 0.445874
C24   C     C_R   0.559994 0.583015 0.081770 0.445867
N1    N     N_R   0.500030 0.500030 0.852080 -0.257171
N2    N     N_R   0.499970 0.499970 0.147920 -0.257170
N3    N     N_R   0.825424 0.541473 0.805024 0.121783
O9    O     O_R   0.843639 0.643035 0.876600 -0.313516
O10   O     O_R   0.786687 0.446155 0.865562 -0.280971
N4    N     N_R   0.174571 0.458574 0.194962 0.121789
O11   O     O_R   0.156313 0.357057 0.123322 -0.313493
O12   O     O_R   0.213335 0.553900 0.134473 -0.280929
N5    N     N_R   0.371953 0.878327 0.278751 0.154552
O13   O     O_R   0.309771 0.789622 0.309950 -0.325224
O14   O     O_R   0.360949 0.924511 0.151525 -0.264055
N6    N     N_R   0.628013 0.121673 0.721277 0.154551
O15   O     O_R   0.690222 0.210358 0.690108 -0.325211
O16   O     O_R   0.638963 0.075505 0.848507 -0.264053
N7    N     N_R   0.376564 0.327381 0.839113 0.142278
O17   O     O_R   0.407512 0.213251 0.840062 -0.300591
O18   O     O_R   0.278359 0.349058 0.809556 -0.323492
N8    N     N_R   0.623398 0.672659 0.160881 0.142289
O19   O     O_R   0.592449 0.786795 0.159813 -0.300592
O20   O     O_R   0.721595 0.650986 0.190542 -0.323508

loop_
_geom_bond_atom_site_label_1
_geom_bond_atom_site_label_2
_geom_bond_distance
_ccdc_geom_bond_type
C21   H7    1.082318 S    
O5    Cu1   1.958954 S    
C22   H8    1.082319 S    
O7    Cu2   1.968286 S    
N6    O16   1.301630 A    
C18   N6    1.438304 S    
C6    C11   1.401098 A    
C17   N5    1.438331 S    
C23   N1    1.378824 A    
C3    C6    1.466615 S    
N6    O15   1.301387 A    
O5    C3    1.301629 A    
C10   N3    1.432495 S    
C4    C5    1.466610 S    
O6    C4    1.301626 A    
C13   C14   1.407166 A    
C21   N2    1.359697 A    
N4    O12   1.301101 A    
C23   N7    1.426406 S    
C22   N1    1.359699 A    
C15   H5    1.084453 S    
N3    O9    1.300881 A    
C16   H6    1.084452 S    
O7    C3    1.291528 A    
C15   C20   1.399826 A    
N7    O17   1.300769 A    
O2    C2    1.292460 A    
O3    Cu2   1.956961 S    
C24   N2    1.378821 A    
C16   C19   1.399822 A    
C6    C9    1.420307 A    
O1    C1    1.292460 A    
O8    C4    1.291528 A    
Cu2   N2    2.016517 S    
N4    O11   1.300844 A    
C17   C19   1.409486 A    
C11   H2    1.084281 S    
C22   C24   1.415726 A    
C18   C20   1.409478 A    
C11   C13   1.387860 A    
C21   C23   1.415724 A    
C5    C10   1.420299 A    
O2    Cu2   1.960229 S    
C12   C14   1.387860 A    
N7    O18   1.300235 A    
C7    C14   1.396091 A    
O1    Cu1   1.960227 S    
C16   C18   1.389421 A    
N5    O14   1.301676 A    
C8    C13   1.396095 A    
C7    H3    1.084734 S    
C1    C20   1.446133 S    
C15   C17   1.389428 A    
Cu1   N1    2.016517 S    
C8    H4    1.084735 S    
C2    C19   1.446132 S    
C8    C10   1.394377 A    
N8    O20   1.300237 A    
O4    C2    1.290128 A    
N3    O10   1.301116 A    
C24   N8    1.426414 S    
O4    Cu1   1.956962 S    
C9    N4    1.432507 S    
O6    Cu2   1.958952 S    
C7    C9    1.394378 A    
Cu1   Cu2   2.683283 S    
C12   H1    1.084281 S    
C5    C12   1.401093 A    
N5    O13   1.301391 A    
N8    O19   1.300792 A    
O3    C1    1.290129 A    
O8    Cu1   1.968286 S    
