data_mof_unit_24568.cif
_audit_creation_date              2013-03-05T16:45:51-0500
_audit_creation_method            fapswitch 2.2
_symmetry_space_group_name_H-M    P1
_symmetry_Int_Tables_number       1
_space_group_crystal_system       triclinic
_cell_length_a                    18.34727
_cell_length_b                    18.346581
_cell_length_c                    18.344753
_cell_angle_alpha                 59.984037
_cell_angle_beta                  59.979136
_cell_angle_gamma                 59.958185
_cell_volume                      4363.80342847

loop_
_atom_site_label
_atom_site_type_symbol
_atom_site_description
_atom_site_fract_x
_atom_site_fract_y
_atom_site_fract_z
_atom_type_partial_charge
Zn1   Zn    Zn3+2 0.206620 0.206630 0.380140 0.986579
Zn2   Zn    Zn3+2 0.793380 0.793370 0.619860 0.986577
Zn3   Zn    Zn3+2 0.206630 0.380140 0.206620 0.987518
Zn4   Zn    Zn3+2 0.793370 0.619860 0.793380 0.987518
Zn5   Zn    Zn3+2 0.380140 0.206620 0.206630 0.987118
Zn6   Zn    Zn3+2 0.619860 0.793380 0.793370 0.987117
Zn7   Zn    Zn3+2 0.206620 0.206620 0.206620 0.981392
Zn8   Zn    Zn3+2 0.793380 0.793380 0.793380 0.981395
O1    O     O_3   0.250000 0.250000 0.250000 -0.499083
O2    O     O_3   0.750000 0.750000 0.750000 -0.499083
O3    O     O_R   0.305080 0.134200 0.134200 -0.636088
O4    O     O_R   0.694920 0.865800 0.865800 -0.636085
O5    O     O_R   0.134200 0.134200 0.305080 -0.636141
O6    O     O_R   0.865800 0.865800 0.694920 -0.636136
O7    O     O_R   0.134200 0.305080 0.134200 -0.634911
O8    O     O_R   0.865800 0.694920 0.865800 -0.634912
O9    O     O_R   0.134200 0.305090 0.426530 -0.654432
O10   O     O_R   0.865800 0.694910 0.573470 -0.654432
O11   O     O_R   0.305090 0.426530 0.134200 -0.653502
O12   O     O_R   0.694910 0.573470 0.865800 -0.653502
O13   O     O_R   0.426530 0.134200 0.305090 -0.653858
O14   O     O_R   0.573470 0.865800 0.694910 -0.653859
O15   O     O_R   0.134190 0.426530 0.134200 -0.624244
O16   O     O_R   0.865810 0.573470 0.865800 -0.624244
O17   O     O_R   0.426530 0.134200 0.134190 -0.624490
O18   O     O_R   0.573470 0.865800 0.865810 -0.624491
O19   O     O_R   0.134200 0.134190 0.426530 -0.625355
O20   O     O_R   0.865800 0.865810 0.573470 -0.625357
O21   O     O_R   0.426530 0.305080 0.134210 -0.625424
O22   O     O_R   0.573470 0.694920 0.865790 -0.625424
O23   O     O_R   0.305080 0.134210 0.426530 -0.624945
O24   O     O_R   0.694920 0.865790 0.573470 -0.624945
O25   O     O_R   0.134210 0.426530 0.305080 -0.625152
O26   O     O_R   0.865790 0.573470 0.694920 -0.625152
C1    C     C_R   0.389863 0.110141 0.110181 0.787616
C2    C     C_R   0.610137 0.889859 0.889819 0.787617
C3    C     C_R   0.110149 0.110158 0.389870 0.788021
C4    C     C_R   0.889852 0.889841 0.610130 0.788018
C5    C     C_R   0.110149 0.389860 0.110174 0.788113
C6    C     C_R   0.889851 0.610140 0.889826 0.788114
C7    C     C_R   0.110857 0.390397 0.389761 0.813007
C8    C     C_R   0.889143 0.609603 0.610239 0.813006
C9    C     C_R   0.390401 0.389771 0.110842 0.813802
C10   C     C_R   0.609599 0.610229 0.889158 0.813802
C11   C     C_R   0.389768 0.110867 0.390391 0.813666
C12   C     C_R   0.610232 0.889134 0.609609 0.813666
H1    H     H_    0.811934 0.283104 0.541459 0.144302
H2    H     H_    0.188054 0.716907 0.458503 0.144302
H3    H     H_    0.290752 0.516985 0.804484 0.143504
H4    H     H_    0.709248 0.483014 0.195516 0.143503
H5    H     H_    0.525182 0.806562 0.288439 0.144590
H6    H     H_    0.474817 0.193438 0.711561 0.144588
C13   C     C_R   0.179852 0.927580 0.398610 -0.114115
C14   C     C_R   0.820143 0.072425 0.601371 -0.114101
C15   C     C_R   0.923630 0.411394 0.183816 -0.107793
C16   C     C_R   0.076370 0.588606 0.816184 -0.107792
C17   C     C_R   0.407091 0.182692 0.924874 -0.109833
C18   C     C_R   0.592909 0.817309 0.075126 -0.109833
C19   C     C_R   0.214435 0.839212 0.402085 -0.111454
C20   C     C_R   0.785555 0.160797 0.597882 -0.111449
C21   C     C_R   0.833166 0.421433 0.220407 -0.108069
C22   C     C_R   0.166834 0.578567 0.779593 -0.108069
C23   C     C_R   0.414953 0.218734 0.835029 -0.110296
C24   C     C_R   0.585046 0.781266 0.164971 -0.110297
C25   C     C_R   0.160861 0.785700 0.455520 -0.133619
C26   C     C_R   0.839130 0.214307 0.544451 -0.133626
C27   C     C_R   0.779582 0.475042 0.166825 -0.135378
C28   C     C_R   0.220418 0.524957 0.833175 -0.135378
C29   C     C_R   0.468508 0.165160 0.781437 -0.134313
C30   C     C_R   0.531491 0.834840 0.218563 -0.134313
C31   C     C_R   0.072434 0.820268 0.505775 -0.149483
C32   C     C_R   0.927563 0.179735 0.494214 -0.149483
C33   C     C_R   0.816184 0.518849 0.076354 -0.148208
C34   C     C_R   0.183816 0.481151 0.923647 -0.148208
C35   C     C_R   0.514458 0.075260 0.817410 -0.150253
C36   C     C_R   0.485541 0.924740 0.182590 -0.150257
C37   C     C_R   0.035367 0.910204 0.502709 0.075665
C38   C     C_R   0.964632 0.089796 0.497287 0.075667
C39   C     C_R   0.908066 0.509325 0.037447 0.075276
C40   C     C_R   0.091934 0.490674 0.962553 0.075276
C41   C     C_R   0.507098 0.036866 0.908708 0.074736
C42   C     C_R   0.492901 0.963134 0.091292 0.074735
C43   C     C_R   0.089850 0.964643 0.448335 0.080404
C44   C     C_R   0.910149 0.035358 0.551658 0.080404
C45   C     C_R   0.962537 0.454876 0.091942 0.078711
C46   C     C_R   0.037463 0.545123 0.908058 0.078710
C47   C     C_R   0.452672 0.091345 0.963194 0.079656
C48   C     C_R   0.547327 0.908655 0.036806 0.079656
C49   C     C_R   0.945952 0.945979 0.553969 -0.138846
C50   C     C_R   0.054049 0.054020 0.446030 -0.138846
C51   C     C_R   0.945973 0.553995 0.945941 -0.137637
C52   C     C_R   0.054027 0.446005 0.054059 -0.137637
C53   C     C_R   0.553985 0.945959 0.945955 -0.138016
C54   C     C_R   0.446015 0.054041 0.054045 -0.138016
H7    H     H_    0.224685 0.966006 0.357043 0.128880
H8    H     H_    0.775309 0.034000 0.642933 0.128870
H9    H     H_    0.962378 0.369639 0.228403 0.124302
H10   H     H_    0.037622 0.630360 0.771596 0.124302
H11   H     H_    0.365380 0.227339 0.963559 0.125199
H12   H     H_    0.634620 0.772661 0.036441 0.125199
H13   H     H_    0.283285 0.812029 0.363526 0.147964
H14   H     H_    0.716700 0.187985 0.636426 0.147955
H15   H     H_    0.804484 0.387719 0.290735 0.144300
H16   H     H_    0.195516 0.612280 0.709264 0.144302
H17   H     H_    0.379622 0.288649 0.806819 0.144690
H18   H     H_    0.620377 0.711351 0.193181 0.144690
H19   H     H_    0.033965 0.775481 0.547305 0.129701
H20   H     H_    0.966033 0.224521 0.452685 0.129699
H21   H     H_    0.771600 0.560451 0.037603 0.124510
H22   H     H_    0.228400 0.439549 0.962397 0.124510
H23   H     H_    0.556027 0.036586 0.772757 0.126517
H24   H     H_    0.443972 0.963414 0.227242 0.126518
H25   H     H_    0.215472 0.703502 0.070584 0.154002
H26   H     H_    0.784528 0.296498 0.929416 0.154002
H27   H     H_    0.703249 0.070059 0.214969 0.153967
H28   H     H_    0.296751 0.929941 0.785031 0.153967
H29   H     H_    0.070410 0.215881 0.703150 0.153882
H30   H     H_    0.929591 0.784121 0.296850 0.153882
C55   C     C_R   0.216633 0.630467 0.205370 -0.074510
C56   C     C_R   0.783368 0.369532 0.794631 -0.074509
C57   C     C_R   0.630414 0.204819 0.216312 -0.073323
C58   C     C_R   0.369586 0.795181 0.783688 -0.073321
C59   C     C_R   0.205177 0.217054 0.630020 -0.073388
C60   C     C_R   0.794824 0.782948 0.369979 -0.073387
H31   H     H_    0.281268 0.631615 0.189778 0.201648
H32   H     H_    0.718733 0.368384 0.810223 0.201649
H33   H     H_    0.631501 0.189024 0.281042 0.201836
H34   H     H_    0.368499 0.810976 0.718958 0.201836
H35   H     H_    0.189495 0.281830 0.630934 0.201433
H36   H     H_    0.810505 0.718172 0.369064 0.201434
C61   C     C_R   0.170343 0.588603 0.292806 -0.223600
C62   C     C_R   0.829658 0.411396 0.707194 -0.223596
C63   C     C_R   0.588687 0.292383 0.170074 -0.221305
C64   C     C_R   0.411312 0.707617 0.829927 -0.221305
C65   C     C_R   0.292663 0.170670 0.588263 -0.222153
C66   C     C_R   0.707337 0.829331 0.411736 -0.222152
H37   H     H_    0.199844 0.558073 0.344194 0.150400
H38   H     H_    0.800157 0.441926 0.655806 0.150402
H39   H     H_    0.558190 0.343658 0.199719 0.151134
H40   H     H_    0.441809 0.656343 0.800282 0.151134
H41   H     H_    0.344005 0.200246 0.557565 0.150836
H42   H     H_    0.655996 0.799756 0.442434 0.150836
C67   C     C_R   0.086770 0.585542 0.314194 0.009379
C68   C     C_R   0.913231 0.414458 0.685806 0.009377
C69   C     C_R   0.585657 0.314036 0.086398 0.008451
C70   C     C_R   0.414343 0.685964 0.913602 0.008451
C71   C     C_R   0.314154 0.086916 0.585501 0.008913
C72   C     C_R   0.685846 0.913085 0.414498 0.008913
C73   C     C_R   0.049116 0.625295 0.245926 0.352015
C74   C     C_R   0.950884 0.374705 0.754074 0.352013
C75   C     C_R   0.625300 0.245902 0.048589 0.352120
C76   C     C_R   0.374701 0.754098 0.951411 0.352121
C77   C     C_R   0.245940 0.049185 0.625441 0.351964
C78   C     C_R   0.754061 0.950816 0.374560 0.351965
C79   C     C_R   0.096667 0.668315 0.158342 -0.194149
C80   C     C_R   0.903334 0.331686 0.841658 -0.194148
C81   C     C_R   0.668211 0.158183 0.096082 -0.193858
C82   C     C_R   0.331789 0.841817 0.903918 -0.193858
C83   C     C_R   0.158307 0.096830 0.668350 -0.194386
C84   C     C_R   0.841693 0.903171 0.331651 -0.194386
H43   H     H_    0.070141 0.699138 0.104709 0.187050
H44   H     H_    0.929860 0.300863 0.895291 0.187050
H45   H     H_    0.698947 0.104645 0.069441 0.187085
H46   H     H_    0.301054 0.895355 0.930560 0.187085
H47   H     H_    0.104712 0.070250 0.699297 0.187095
H48   H     H_    0.895288 0.929751 0.300704 0.187094
C85   C     C_R   0.179646 0.670723 0.138372 -0.153335
C86   C     C_R   0.820355 0.329277 0.861628 -0.153336
C87   C     C_R   0.670583 0.137950 0.179170 -0.153694
C88   C     C_R   0.329418 0.862050 0.820830 -0.153693
C89   C     C_R   0.138236 0.179984 0.670463 -0.153258
C90   C     C_R   0.861765 0.820017 0.329537 -0.153259
C91   C     C_R   0.986283 0.591483 0.464183 -0.245607
C92   C     C_R   0.013717 0.408517 0.535817 -0.245607
C93   C     C_R   0.591540 0.464091 0.986097 -0.243394
C94   C     C_R   0.408460 0.535909 0.013904 -0.243394
C95   C     C_R   0.464151 0.986318 0.591483 -0.243896
C96   C     C_R   0.535849 0.013682 0.408517 -0.243897
H49   H     H_    0.977353 0.662110 0.436218 0.166441
H50   H     H_    0.022647 0.337890 0.563782 0.166442
H51   H     H_    0.662215 0.436041 0.977014 0.166866
H52   H     H_    0.337785 0.563959 0.022986 0.166866
H53   H     H_    0.436160 0.977404 0.662110 0.166590
H54   H     H_    0.563841 0.022597 0.337890 0.166590
C97   C     C_R   0.944666 0.552480 0.555061 -0.015929
C98   C     C_R   0.055334 0.447520 0.444939 -0.015929
C99   C     C_R   0.552479 0.555048 0.944678 -0.016911
C100  C     C_R   0.447521 0.444952 0.055322 -0.016911
C101  C     C_R   0.555046 0.944640 0.552492 -0.016669
C102  C     C_R   0.444954 0.055361 0.447508 -0.016670
C103  C     C_R   0.958705 0.459693 0.591434 0.076949
C104  C     C_R   0.041295 0.540307 0.408566 0.076949
C105  C     C_R   0.459634 0.591503 0.958901 0.076905
C106  C     C_R   0.540366 0.408497 0.041099 0.076905
C107  C     C_R   0.591446 0.958625 0.459711 0.076766
C108  C     C_R   0.408554 0.041376 0.540289 0.076765
N1    N     N_R   0.964749 0.622006 0.263114 0.180519
O27   O     O_R   0.932434 0.561355 0.332084 -0.428902
O28   O     O_R   0.922588 0.676025 0.205664 -0.409900
N2    N     N_R   0.035251 0.377995 0.736885 0.180519
O29   O     O_R   0.067567 0.438646 0.667915 -0.428903
O30   O     O_R   0.077412 0.323976 0.794336 -0.409900
N3    N     N_R   0.621949 0.263346 0.964153 0.180333
O31   O     O_R   0.561378 0.332537 0.931824 -0.428892
O32   O     O_R   0.675809 0.205918 0.921935 -0.411349
N4    N     N_R   0.378051 0.736654 0.035847 0.180333
O33   O     O_R   0.438622 0.667463 0.068176 -0.428893
O34   O     O_R   0.324191 0.794081 0.078065 -0.411353
N5    N     N_R   0.263218 0.964663 0.622396 0.180495
O35   O     O_R   0.332198 0.932216 0.561794 -0.427693
O36   O     O_R   0.205818 0.922497 0.676566 -0.409766
N6    N     N_R   0.736782 0.035338 0.377605 0.180496
O37   O     O_R   0.667802 0.067785 0.438207 -0.427695
O38   O     O_R   0.794182 0.077504 0.323435 -0.409766

loop_
_geom_bond_atom_site_label_1
_geom_bond_atom_site_label_2
_geom_bond_distance
_ccdc_geom_bond_type
C62   C68   1.403713 A    
Zn7   O5    1.938660 S    
C57   C87   1.393217 A    
N3    O31   1.300746 A    
C40   C52   1.413974 A    
C63   C69   1.403695 A    
C42   C54   1.414212 A    
H3    C28   1.082615 S    
C31   H19   1.081704 S    
C13   H7    1.081765 S    
Zn3   O15   1.938755 S    
O26   C8    1.274485 A    
C16   H10   1.082096 S    
H27   C87   1.081631 S    
C14   C44   1.417843 A    
C13   C19   1.393620 A    
C14   C20   1.393611 A    
C38   C50   1.414969 A    
Zn7   O3    1.937779 S    
N3    O32   1.301724 A    
C4    C49   1.456134 S    
C91   C97   1.397917 A    
C83   C89   1.395316 A    
C3    C50   1.456134 S    
O14   C12   1.284389 A    
C61   H37   1.083569 S    
C75   C81   1.408487 A    
C76   N4    1.443998 S    
C95   C108  1.385866 A    
C11   C102  1.456608 S    
Zn4   O2    1.948740 S    
C57   H33   1.080757 S    
C46   C51   1.414023 A    
O10   C8    1.284382 A    
C64   H40   1.083550 S    
Zn4   O16   1.938753 S    
C56   H32   1.080796 S    
Zn2   O10   1.938071 S    
Zn3   O25   1.938182 S    
C28   C34   1.393579 A    
C17   H11   1.082012 S    
C47   C54   1.414139 A    
Zn1   O23   1.938229 S    
Zn2   O24   1.938231 S    
N1    O28   1.301721 A    
C21   C27   1.389827 A    
C58   C64   1.393359 A    
C32   C38   1.417773 A    
H6    C29   1.082602 S    
C81   C87   1.395381 A    
C16   C46   1.416934 A    
C2    C53   1.455455 S    
C26   C32   1.393677 A    
C32   H20   1.081703 S    
C79   C85   1.395370 A    
N2    O29   1.300746 A    
C58   C88   1.393219 A    
C96   H54   1.084193 S    
C67   C73   1.423016 A    
C78   N6    1.443941 S    
C67   C104  1.480726 S    
C20   C26   1.389306 A    
Zn3   O11   1.938920 S    
C27   C33   1.393578 A    
H5    C30   1.082599 S    
C84   H48   1.082400 S    
C94   C105  1.386076 A    
O4    C2    1.276689 A    
H4    C27   1.082614 S    
C81   H45   1.082378 S    
H1    C26   1.082859 S    
O5    C3    1.276851 A    
C42   C48   1.413037 A    
C82   H46   1.082377 S    
C92   C103  1.385781 A    
C93   H51   1.084187 S    
Zn7   O7    1.937950 S    
C100  C106  1.416422 A    
Zn8   O8    1.937952 S    
C34   C40   1.416927 A    
C59   H35   1.080818 S    
C58   H34   1.080757 S    
O22   C10   1.274411 A    
Zn1   O9    1.938072 S    
C72   C78   1.422977 A    
C20   H14   1.082962 S    
C74   N2    1.444013 S    
O12   C10   1.284297 A    
C45   C52   1.414023 A    
O11   C9    1.284296 A    
C97   C103  1.416322 A    
C19   C25   1.389305 A    
O13   C11   1.284391 A    
C18   C24   1.393483 A    
C64   C70   1.403696 A    
O20   C4    1.276656 A    
Zn4   O26   1.938180 S    
C95   C101  1.397949 A    
C78   C84   1.408401 A    
C60   C66   1.393407 A    
H28   C88   1.081631 S    
C39   C51   1.413974 A    
C19   H13   1.082975 S    
Zn1   O1    1.948957 S    
C23   C29   1.389695 A    
C18   H12   1.082012 S    
C13   C43   1.417855 A    
C68   C74   1.423014 A    
C17   C23   1.393485 A    
N4    O33   1.300747 A    
C82   C88   1.395380 A    
C25   C31   1.393691 A    
C93   C99   1.398039 A    
C22   H16   1.082673 S    
C79   H43   1.082391 S    
C83   H47   1.082401 S    
C59   C65   1.393407 A    
C15   C45   1.416932 A    
C94   H52   1.084187 S    
C24   C30   1.389696 A    
C91   H49   1.084205 S    
Zn5   O1    1.948715 S    
Zn3   O1    1.948737 S    
C38   C44   1.413119 A    
O6    C4    1.276852 A    
C41   C53   1.414212 A    
H29   C89   1.081538 S    
C72   C107  1.480786 S    
C55   C61   1.393361 A    
C60   C90   1.393249 A    
H30   C90   1.081538 S    
C36   H24   1.081953 S    
C37   C49   1.414970 A    
C15   H9    1.082095 S    
N5    O35   1.300740 A    
C84   C90   1.395317 A    
C60   H36   1.080817 S    
C71   C108  1.480785 S    
C66   C72   1.403724 A    
C70   C105  1.480773 S    
H26   C86   1.081575 S    
O7    C5    1.276651 A    
C69   C106  1.480773 S    
C69   C75   1.423005 A    
C66   H42   1.083572 S    
O8    C6    1.276650 A    
C76   C82   1.408487 A    
C70   C76   1.423005 A    
C55   H31   1.080797 S    
C8    C97   1.456464 S    
O18   C2    1.276604 A    
Zn6   O22   1.938930 S    
O17   C1    1.276604 A    
C63   H39   1.083551 S    
C65   C71   1.403725 A    
C30   C36   1.393597 A    
H2    C25   1.082867 S    
Zn5   O17   1.938597 S    
C23   H17   1.082749 S    
C44   C49   1.414925 A    
C12   C101  1.456606 S    
C36   C42   1.417078 A    
Zn2   O2    1.948954 S    
Zn5   O21   1.938931 S    
C92   H50   1.084205 S    
C5    C52   1.455590 S    
C31   C37   1.417778 A    
C61   C67   1.403714 A    
C77   C83   1.408401 A    
C56   C86   1.393241 A    
C1    C54   1.455455 S    
Zn7   O1    1.949833 S    
C43   C50   1.414931 A    
C48   C53   1.414139 A    
O16   C6    1.276621 A    
C94   C100  1.398040 A    
Zn8   O6    1.938662 S    
C93   C106  1.386077 A    
C21   H15   1.082673 S    
C56   C62   1.393361 A    
O24   C12   1.274455 A    
C35   C41   1.417078 A    
C37   C43   1.413119 A    
C75   N3    1.443999 S    
C33   C39   1.416927 A    
C18   C48   1.417202 A    
H25   C85   1.081575 S    
C24   H18   1.082748 S    
C68   C103  1.480726 S    
C102  C108  1.416351 A    
C74   C80   1.408434 A    
C96   C107  1.385867 A    
C91   C104  1.385781 A    
C35   H23   1.081953 S    
C22   C28   1.389827 A    
O21   C9    1.274411 A    
C99   C105  1.416421 A    
O25   C7    1.274484 A    
O3    C1    1.276689 A    
C73   C79   1.408433 A    
C95   H53   1.084193 S    
C92   C98   1.397917 A    
C77   N5    1.443941 S    
C101  C107  1.416351 A    
C41   C47   1.413037 A    
Zn6   O18   1.938594 S    
C9    C100  1.457115 S    
O19   C3    1.276655 A    
C96   C102  1.397948 A    
C15   C21   1.393602 A    
N5    O36   1.301716 A    
C39   C45   1.413175 A    
C7    C98   1.456466 S    
C29   C35   1.393598 A    
C55   C85   1.393241 A    
C16   C22   1.393601 A    
C33   H21   1.082089 S    
C6    C51   1.455592 S    
C98   C104  1.416321 A    
N1    O27   1.300746 A    
C71   C77   1.422975 A    
O9    C7    1.284380 A    
Zn6   O2    1.948717 S    
N6    O38   1.301715 A    
C10   C99   1.457115 S    
C80   H44   1.082392 S    
Zn4   O12   1.938918 S    
C17   C47   1.417203 A    
C40   C46   1.413175 A    
C65   H41   1.083571 S    
Zn5   O13   1.938348 S    
N6    O37   1.300741 A    
Zn8   O2    1.949831 S    
O23   C11   1.274455 A    
Zn1   O19   1.939354 S    
C80   C86   1.395369 A    
Zn2   O20   1.939354 S    
C57   C63   1.393359 A    
C34   H22   1.082089 S    
N4    O34   1.301723 A    
C62   H38   1.083569 S    
C14   H8    1.081767 S    
O15   C5    1.276623 A    
N2    O30   1.301723 A    
C59   C89   1.393249 A    
Zn8   O4    1.937781 S    
C73   N1    1.444010 S    
Zn6   O14   1.938351 S    
