data_mof_unit_47031.cif
_audit_creation_date              2012-12-10T17:22:00-0500
_audit_creation_method            fapswitch 2.2
_symmetry_space_group_name_H-M    P1
_symmetry_Int_Tables_number       1
_space_group_crystal_system       triclinic
_cell_length_a                    10.199617
_cell_length_b                    10.73433
_cell_length_c                    15.729097
_cell_angle_alpha                 90.59637
_cell_angle_beta                  80.636752
_cell_angle_gamma                 95.987654
_cell_volume                      1689.86473082

loop_
_atom_site_label
_atom_site_type_symbol
_atom_type_description
_atom_site_fract_x
_atom_site_fract_y
_atom_site_fract_z
_atom_type_partial_charge
C1    C     C_R   0.556375 0.732900 0.491061 0.928857
C2    C     C_2   0.488229 0.932712 0.466228 -0.149879
C3    C     C_2   0.411934 0.133819 0.495458 -0.393999
C4    C     C_R   0.499424 0.500077 0.661542 0.897922
C5    C     C_2   0.510641 0.066194 0.463012 -0.150708
C6    C     C_2   0.928173 0.514513 0.505123 0.359573
C7    C     C_2   0.070956 0.484088 0.496415 0.357787
C8    C     C_R   0.443675 0.267032 0.502907 0.932800
C9    C     C_R   0.500697 0.500166 0.338372 0.890459
C10   C     C_3   0.481569 0.640125 0.954223 0.282532
C11   C     C_3   0.631696 0.450713 0.936805 0.275967
C12   C     C_3   0.492502 0.641263 0.051860 0.367581
C13   C     C_3   0.639090 0.458189 0.034757 0.361207
C14   C     C_1   0.502985 0.502333 0.249257 -0.180036
C15   C     C_3   0.502633 0.506218 0.916582 0.051813
C16   C     C_3   0.561189 0.841426 0.098292 0.154541
C17   C     C_3   0.683574 0.934499 0.100514 -0.810191
C18   C     C_3   0.067274 0.271584 0.484010 0.118943
C19   C     C_3   0.098811 0.166731 0.420544 -0.854515
C20   C     C_3   0.926693 0.726221 0.521487 0.121792
C21   C     C_3   0.881100 0.827809 0.584313 -0.846673
C22   C     C_3   0.507944 0.814621 0.861968 0.077573
C23   C     C_3   0.507225 0.506174 0.081929 0.079251
C24   C     C_3   0.611961 0.909951 0.811899 -0.838767
C25   C     C_3   0.797555 0.605831 0.864460 0.265118
C26   C     C_3   0.946229 0.620816 0.828827 -0.891370
C27   C     C_3   0.858273 0.467394 0.061513 -0.289182
C28   C     C_3   0.386041 0.417159 0.060967 -0.632374
C29   C     C_3   0.381848 0.418236 0.963082 -0.594622
C30   C     C_1   0.505291 0.504357 0.173717 0.015595
C31   C     C_1   0.499537 0.503383 0.825571 -0.003927
C32   C     C_1   0.498702 0.501448 0.750396 -0.189943
C33   C     C_2   0.588161 0.865600 0.475169 -0.390488
H1    H     H_    0.375596 0.656171 0.951071 0.015328
H2    H     H_    0.611219 0.348291 0.925731 0.090622
H3    H     H_    0.639845 0.360629 0.059429 0.017853
H4    H     H_    0.285564 0.449786 0.951572 0.210161
H5    H     H_    0.383808 0.321083 0.937720 0.209587
H6    H     H_    0.290918 0.446879 0.096500 0.218066
H7    H     H_    0.503430 0.830638 0.164677 0.119814
H8    H     H_    0.498713 0.879938 0.055100 0.124613
H9    H     H_    0.742486 0.947307 0.034728 0.257883
H10   H     H_    0.652100 0.026312 0.124269 0.188652
H11   H     H_    0.747162 0.899676 0.144207 0.257056
H12   H     H_    0.395633 0.667460 0.088519 -0.022155
H13   H     H_    0.957735 0.260644 0.507090 0.099865
H14   H     H_    0.116113 0.259645 0.541120 0.164603
H15   H     H_    0.071914 0.074512 0.453555 0.195928
H16   H     H_    0.040680 0.170866 0.366932 0.244677
H17   H     H_    0.206922 0.176422 0.393475 0.268313
H18   H     H_    0.884458 0.735830 0.461365 0.160515
H19   H     H_    0.036941 0.743409 0.503636 0.092294
H20   H     H_    0.929686 0.824352 0.642412 0.246476
H21   H     H_    0.908710 0.921377 0.553322 0.196587
H22   H     H_    0.771082 0.813670 0.604417 0.260503
H23   H     H_    0.393220 0.319844 0.082226 0.210797
H24   H     H_    0.435985 0.865906 0.906359 0.129476
H25   H     H_    0.454259 0.759977 0.815255 0.147116
H26   H     H_    0.684894 0.861181 0.766772 0.249152
H27   H     H_    0.562481 0.972681 0.774357 0.213397
H28   H     H_    0.665891 0.967261 0.857089 0.256874
H29   H     H_    0.782698 0.663131 0.923561 0.247677
H30   H     H_    0.745683 0.640630 0.814102 0.188413
H31   H     H_    0.966107 0.566654 0.768339 0.272075
H32   H     H_    0.980474 0.721175 0.814671 0.207233
H33   H     H_    0.003312 0.586555 0.876684 0.253500
H34   H     H_    0.612044 0.108492 0.440975 0.186710
H35   H     H_    0.883235 0.405720 0.005170 0.178614
H36   H     H_    0.833885 0.411025 0.121993 0.154296
H37   H     H_    0.948218 0.533145 0.066085 0.179833
H38   H     H_    0.385815 0.890455 0.469248 0.186180
H39   H     H_    0.311071 0.090815 0.517858 0.149552
H40   H     H_    0.690131 0.908621 0.472175 0.151060
H41   H     H_    0.122726 0.613915 0.580437 0.148336
H42   H     H_    0.877845 0.386047 0.419721 0.149269
N1    N     N_2   0.842720 0.448890 0.465540 -0.229964
N2    N     N_2   0.157250 0.551040 0.534500 -0.231206
O1    O     O_R   0.431050 0.692470 0.506940 -0.620116
O2    O     O_3   0.113597 0.388289 0.442639 -0.585275
O3    O     O_3   0.884266 0.607616 0.560974 -0.583879
O4    O     O_3   0.572643 0.735447 0.909068 -0.618890
O5    O     O_3   0.755770 0.477841 0.880356 -0.623943
O6    O     O_3   0.752047 0.537606 0.051848 -0.544750
O7    O     O_R   0.651130 0.659650 0.484820 -0.591393
O8    O     O_R   0.389910 0.516410 0.633920 -0.624169
O9    O     O_R   0.609990 0.483590 0.611800 -0.551689
O10   O     O_R   0.348870 0.340350 0.515180 -0.590211
O11   O     O_R   0.568950 0.307530 0.493060 -0.619477
O12   O     O_R   0.390010 0.516410 0.388200 -0.567985
O13   O     O_R   0.610090 0.483590 0.366080 -0.619100
O14   O     O_3   0.602817 0.725058 0.068417 -0.530797
Zn1   Zn    Zn3+2 0.353060 0.521920 0.514770 0.962603
Zn2   Zn    Zn3+2 0.646940 0.478080 0.485230 0.970800

loop_
_geom_bond_atom_site_label_1
_geom_bond_atom_site_label_2
_ccdc_geom_bond_type
N2    Zn1   S    
C24   H28   S    
C12   O14   S    
C5    H34   S    
C18   H14   S    
C22   H24   S    
C28   H23   S    
C1    C33   S    
C1    O7    A    
C12   C23   S    
C28   C29   S    
C20   H18   S    
C10   C15   S    
C21   H21   S    
C4    O9    A    
C13   C23   S    
C18   C19   S    
C25   H30   S    
C26   H31   S    
C17   H9    S    
H42   N1    S    
C27   H35   S    
C11   C15   S    
C18   O2    S    
H41   N2    S    
C29   H5    S    
C27   H36   S    
C7    N2    D    
O10   Zn1   S    
C1    O1    A    
C14   C30   T    
C18   H13   S    
O8    Zn1   S    
C22   O4    S    
C15   C29   S    
C11   O5    S    
O7    Zn2   S    
C20   O3    S    
C26   H33   S    
C23   C30   S    
C13   H3    S    
C3    C8    S    
C9    O12   A    
C21   H22   S    
C19   H15   S    
C16   C17   S    
C4    O8    A    
C28   H6    S    
O1    Zn1   S    
C25   C26   S    
C8    O11   A    
C9    C14   S    
C17   H10   S    
O9    Zn2   S    
N1    Zn2   S    
C19   H16   S    
C6    O3    S    
C31   C32   T    
C24   H27   S    
C10   H1    S    
C23   C28   S    
O12   Zn1   S    
C15   C31   S    
C4    C32   S    
C27   H37   S    
C10   C12   S    
C16   H7    S    
C2    C33   D    
C33   H40   S    
C25   O5    S    
C22   C24   S    
C2    C5    S    
C2    H38   S    
O13   Zn2   S    
C7    O2    S    
O11   Zn2   S    
C26   H32   S    
C12   H12   S    
C3    C5    D    
C9    O13   A    
C22   H25   S    
C6    N1    D    
C6    C7    S    
C13   O6    S    
C10   O4    S    
C8    O10   A    
C27   O6    S    
C3    H39   S    
C17   H11   S    
C20   H19   S    
C21   H20   S    
C11   C13   S    
C19   H17   S    
C24   H26   S    
C11   H2    S    
C25   H29   S    
C20   C21   S    
C16   O14   S    
C29   H4    S    
C16   H8    S    
