data_mof_unit_63331.cif
_audit_creation_date              2012-12-10T17:20:12-0500
_audit_creation_method            fapswitch 2.2
_symmetry_space_group_name_H-M    P1
_symmetry_Int_Tables_number       1
_space_group_crystal_system       triclinic
_cell_length_a                    10.174957
_cell_length_b                    10.62468
_cell_length_c                    14.16871
_cell_angle_alpha                 89.645276
_cell_angle_beta                  81.605898
_cell_angle_gamma                 94.761678
_cell_volume                      1509.81867515

loop_
_atom_site_label
_atom_site_type_symbol
_atom_type_description
_atom_site_fract_x
_atom_site_fract_y
_atom_site_fract_z
_atom_type_partial_charge
C1    C     C_R   0.555703 0.734095 0.492270 0.811115
C2    C     C_1   0.500031 0.500008 0.042606 0.026205
C3    C     C_2   0.587189 0.869569 0.479860 -0.204395
C4    C     C_2   0.412658 0.130718 0.493851 -0.206293
C5    C     C_2   0.501301 0.932568 0.437556 -0.104144
C6    C     C_2   0.503293 0.068831 0.437241 -0.095253
C7    C     C_2   0.930458 0.522180 0.498679 -0.025211
C8    C     C_2   0.075202 0.502565 0.482115 -0.028639
C9    C     C_2   0.287243 0.070587 0.549481 0.454061
C10   C     C_2   0.705173 0.928377 0.519423 0.445847
C11   C     C_R   0.444281 0.265831 0.503085 0.814525
C12   C     C_R   0.499905 0.499988 0.670809 0.886408
C13   C     C_R   0.500094 0.500023 0.329184 0.874199
C14   C     C_1   0.499804 0.500065 0.772301 -0.175094
C15   C     C_1   0.500180 0.499967 0.227697 -0.183983
C16   C     C_1   0.499826 0.500083 0.857522 0.015459
C17   C     C_1   0.500141 0.499965 0.142479 0.009322
C18   C     C_1   0.499926 0.500053 0.957395 0.027809
H1    H     H_    0.591012 0.119814 0.397009 0.206416
H2    H     H_    0.418549 0.881837 0.409459 0.197178
H3    H     H_    0.115120 0.445141 0.423734 0.158316
H4    H     H_    0.895274 0.600139 0.541313 0.153785
H5    H     H_    0.226141 0.127006 0.599016 0.080396
H6    H     H_    0.768243 0.868363 0.551761 0.076349
I1    I     I_    0.097050 0.658287 0.654522 -0.218880
I2    I     I_    0.892364 0.295803 0.378904 -0.235250
N1    N     N_2   0.842710 0.448890 0.464580 -0.025787
N2    N     N_2   0.157290 0.551110 0.535420 -0.026451
O1    O     O_R   0.431050 0.692470 0.507130 -0.547746
O2    O     O_2   0.733082 0.042343 0.517673 -0.528087
O3    O     O_R   0.568950 0.307530 0.492870 -0.543645
O4    O     O_R   0.651120 0.659650 0.484400 -0.628567
O5    O     O_R   0.348880 0.340350 0.515600 -0.619178
O6    O     O_R   0.389940 0.516410 0.637650 -0.563326
O7    O     O_R   0.610060 0.483590 0.362350 -0.572379
O8    O     O_R   0.610010 0.483590 0.614920 -0.589165
O9    O     O_R   0.389990 0.516410 0.385080 -0.605408
O10   O     O_2   0.249674 0.959786 0.540581 -0.535530
Zn1   Zn    Zn3+2 0.353060 0.521920 0.515180 1.012450
Zn2   Zn    Zn3+2 0.646940 0.478080 0.484820 1.012569

loop_
_geom_bond_atom_site_label_1
_geom_bond_atom_site_label_2
_ccdc_geom_bond_type
C13   O7    A    
C2    C18   T    
C7    H4    S    
C10   O2    D    
C13   O9    A    
C2    C17   S    
C11   O5    A    
N1    Zn2   S    
C3    C5    D    
O1    Zn1   S    
C1    O1    A    
O7    Zn2   S    
C11   O3    A    
C7    C8    S    
O9    Zn1   S    
C5    H2    S    
C4    C11   S    
C6    H1    S    
I2    N1    S    
O5    Zn1   S    
C4    C6    D    
C9    O10   D    
C12   C14   S    
C8    H3    S    
C13   C15   S    
C5    C6    S    
C8    N2    D    
C14   C16   T    
C12   O8    A    
C12   O6    A    
O6    Zn1   S    
I1    N2    S    
O8    Zn2   S    
O4    Zn2   S    
C7    N1    D    
O3    Zn2   S    
C16   C18   S    
C3    C10   S    
C9    H5    S    
N2    Zn1   S    
C10   H6    S    
C4    C9    S    
C15   C17   T    
C1    O4    A    
C1    C3    S    
