data_mof_unit_38182.cif
_audit_creation_date              2013-03-05T15:41:54-0500
_audit_creation_method            fapswitch 2.2
_symmetry_space_group_name_H-M    P1
_symmetry_Int_Tables_number       1
_space_group_crystal_system       triclinic
_cell_length_a                    23.543724
_cell_length_b                    8.776946
_cell_length_c                    7.52945
_cell_angle_alpha                 104.156043
_cell_angle_beta                  94.621447
_cell_angle_gamma                 93.800097
_cell_volume                      1497.78558973

loop_
_atom_site_label
_atom_site_type_symbol
_atom_site_description
_atom_site_fract_x
_atom_site_fract_y
_atom_site_fract_z
_atom_type_partial_charge
O1    O     O_R   0.504120 0.286130 0.619770 -0.595785
O2    O     O_R   0.495880 0.713870 0.380230 -0.595009
O3    O     O_R   0.493410 0.256770 0.308360 -0.587629
O4    O     O_R   0.506590 0.743230 0.691640 -0.586636
C1    C     C_R   0.497202 0.200054 0.453465 0.863266
C2    C     C_R   0.502797 0.799946 0.546536 0.866488
O5    O     O_R   0.423230 0.514630 0.655730 -0.597447
O6    O     O_R   0.576770 0.485370 0.344270 -0.596893
O7    O     O_R   0.412530 0.485280 0.344320 -0.594101
O8    O     O_R   0.587470 0.514720 0.655680 -0.594766
C3    C     C_R   0.391432 0.507748 0.502708 0.814756
C4    C     C_R   0.608438 0.490700 0.496887 0.821853
Cu1   Cu    Cu3+1 0.506340 0.517380 0.684380 0.929787
Cu2   Cu    Cu3+1 0.493660 0.482620 0.315620 0.928880
C5    C     C_R   0.881363 0.620296 0.540121 0.682238
C6    C     C_R   0.116808 0.368421 0.434628 0.723012
N1    N     N_R   0.851086 0.475290 0.496835 -0.451704
N2    N     N_R   0.147626 0.512844 0.482917 -0.453961
C7    C     C_R   0.877140 0.340230 0.437394 0.645174
C8    C     C_R   0.121591 0.648519 0.539666 0.593066
C9    C     C_R   0.936142 0.347154 0.424673 -0.090212
C10   C     C_R   0.062271 0.642809 0.546326 -0.073758
C11   C     C_R   0.969101 0.492973 0.486304 -0.065475
C12   C     C_R   0.029205 0.497206 0.483965 -0.055868
C13   C     C_R   0.941931 0.633900 0.548211 -0.147090
C14   C     C_R   0.056234 0.356317 0.420534 -0.133699
C15   C     C_R   0.962220 0.210610 0.349594 -0.129082
C16   C     C_R   0.035900 0.780671 0.613950 -0.101425
C17   C     C_R   0.021430 0.211516 0.346012 0.424791
C18   C     C_R   0.976599 0.780028 0.614628 0.420512
O9    O     O_2   0.852141 0.749069 0.571221 -0.401557
O10   O     O_2   0.145375 0.238431 0.405267 -0.412104
O11   O     O_2   0.845870 0.199215 0.391052 -0.461411
O12   O     O_2   0.153205 0.789024 0.589914 -0.498278
H1    H     H_    0.935777 0.101734 0.289909 0.256474
H2    H     H_    0.062080 0.890847 0.668005 0.271216
C19   C     C_R   0.243176 0.593086 0.648064 -0.056788
C20   C     C_R   0.754502 0.395391 0.340898 -0.077889
H3    H     H_    0.222791 0.647622 0.768872 0.212136
H4    H     H_    0.773689 0.340176 0.217803 0.212813
C21   C     C_R   0.302950 0.601052 0.657956 0.136510
C22   C     C_R   0.694929 0.390104 0.336451 0.138002
C23   C     C_R   0.329154 0.519791 0.503315 -0.099063
C24   C     C_R   0.670338 0.473498 0.493666 -0.117605
C25   C     C_R   0.294829 0.451806 0.337622 -0.348473
C26   C     C_R   0.705931 0.538604 0.657573 -0.323175
H5    H     H_    0.314271 0.394739 0.215845 0.185846
H6    H     H_    0.687614 0.596042 0.781491 0.198599
C27   C     C_R   0.235694 0.457684 0.323589 0.402623
C28   C     C_R   0.764983 0.529720 0.665976 0.475046
C29   C     C_R   0.209046 0.521176 0.483568 0.166297
C30   C     C_R   0.789945 0.466095 0.502692 0.159136
C31   C     C_2   0.487698 0.032683 0.434054 -0.030047
C32   C     C_2   0.512302 0.967321 0.565948 -0.032868
N3    N     N_2   0.484110 0.456420 0.038520 -0.063758
N4    N     N_2   0.515890 0.543580 0.961480 -0.065642
S1    S     S_3+6 0.047362 0.031413 0.229046 0.083462
O13   O     O_2   0.999046 0.905491 0.153873 -0.274674
O14   O     O_2   0.078539 0.059739 0.072237 -0.176031
O15   O     O_3   0.092175 0.965139 0.371955 -0.462868
H7    H     H_    0.110403 0.879783 0.290543 0.393966
S2    S     S_3+6 0.950144 0.965227 0.708808 0.093610
O16   O     O_2   0.909640 0.006243 0.567015 -0.221262
O17   O     O_2   0.919055 0.955443 0.872718 -0.180598
O18   O     O_3   0.003658 0.110221 0.774749 -0.501681
H8    H     H_    0.984612 0.207830 0.819059 0.379491
C33   C     C_3   0.335305 0.706338 0.830338 -0.820530
H9    H     H_    0.380824 0.735441 0.815803 0.242308
H10   H     H_    0.316292 0.821209 0.864567 0.230153
H11   H     H_    0.331481 0.651722 0.947497 0.250067
C34   C     C_3   0.661029 0.285261 0.166667 -0.802575
H12   H     H_    0.615686 0.258149 0.185205 0.240322
H13   H     H_    0.664224 0.338790 0.048422 0.245238
H14   H     H_    0.679304 0.169369 0.131427 0.239685
S3    S     S_3+6 0.198207 0.388427 0.101446 0.047105
O19   O     O_2   0.141622 0.457167 0.090559 -0.255025
O20   O     O_2   0.233639 0.433641 0.962158 -0.331919
O21   O     O_3   0.187566 0.190699 0.049767 -0.399571
H15   H     H_    0.226388 0.153817 0.054830 0.340200
S4    S     S_3+6 0.805111 0.594381 0.884255 0.041536
O22   O     O_2   0.819575 0.769582 0.926639 -0.180163
O23   O     O_2   0.769526 0.558941 0.028470 -0.329831
O24   O     O_3   0.865645 0.503166 0.888909 -0.529887
H16   H     H_    0.885191 0.548167 0.014214 0.381069
C35   C     C_3   0.443728 0.943759 0.277202 -0.833837
H17   H     H_    0.419615 0.025295 0.214373 0.223046
H18   H     H_    0.465188 0.868491 0.166154 0.262235
H19   H     H_    0.411440 0.871221 0.328356 0.236963
C36   C     C_3   0.556267 0.056256 0.722814 -0.827174
H20   H     H_    0.580374 0.974732 0.785680 0.227122
H21   H     H_    0.588560 0.128785 0.671667 0.238409
H22   H     H_    0.534804 0.131537 0.833845 0.260489
C37   C     C_3   0.429338 0.382656 0.947876 -0.342871
H23   H     H_    0.412172 0.302239 0.027427 0.154508
H24   H     H_    0.398702 0.472696 0.947976 0.183131
H25   H     H_    0.432261 0.306604 0.810106 0.190615
C38   C     C_3   0.570619 0.617658 0.052216 -0.336073
H26   H     H_    0.601347 0.527898 0.052285 0.182230
H27   H     H_    0.587731 0.698114 0.972623 0.159178
H28   H     H_    0.567654 0.693696 0.189944 0.191108

loop_
_geom_bond_atom_site_label_1
_geom_bond_atom_site_label_2
_geom_bond_distance
_ccdc_geom_bond_type
N3    N4    1.301021 D    
C37   H23   1.108277 S    
C15   C17   1.395997 A    
N3    C37   1.441952 S    
C38   H26   1.104423 S    
C21   C33   1.509823 S    
C31   C32   1.371456 D    
O5    C3    1.308661 A    
O1    C1    1.285832 A    
C1    C31   1.440681 S    
C7    C9    1.398439 A    
C12   C14   1.423590 A    
C20   C22   1.397680 A    
C19   C29   1.402888 A    
S1    O14   1.501217 D    
C20   C30   1.401158 A    
O4    Cu1   1.969221 S    
S2    O17   1.501777 D    
C27   C29   1.412409 A    
C28   C30   1.411693 A    
C11   C12   1.414739 A    
C27   S3    1.771935 S    
C3    C23   1.477321 S    
C36   H21   1.111105 S    
Cu1   N4    2.034557 S    
C8    O12   1.350068 S    
C35   H18   1.110387 S    
Cu2   N3    2.034557 S    
C9    C15   1.398165 A    
C37   H24   1.104602 S    
C10   C16   1.399295 A    
Cu1   Cu2   2.707674 S    
C21   C23   1.418772 A    
O2    C2    1.285837 A    
C22   C24   1.419519 A    
N4    C38   1.442079 S    
C2    C32   1.440716 S    
S4    O24   1.682351 S    
N1    C30   1.441233 S    
C38   H27   1.108291 S    
C24   C26   1.405979 A    
N2    C29   1.442618 S    
C25   H5    1.083750 S    
C9    C11   1.405452 A    
C6    C14   1.416497 A    
C26   H6    1.083635 S    
C33   H9    1.105455 S    
C32   C36   1.523380 S    
S4    O23   1.501676 D    
C7    O11   1.349888 S    
C34   H13   1.108945 S    
O7    Cu2   1.940541 S    
O21   H15   0.990588 S    
S1    O15   1.677482 S    
C15   H1    1.081085 S    
C35   H17   1.111041 S    
O15   H7    0.990730 S    
C33   H10   1.111128 S    
S3    O19   1.502884 D    
S2    O16   1.499402 D    
S3    O20   1.501314 D    
O24   H16   0.990754 S    
C25   C27   1.393088 A    
O6    C4    1.307511 A    
C6    N2    1.369516 A    
C36   H22   1.110388 S    
C23   C25   1.405375 A    
O3    Cu2   1.969221 S    
O8    C4    1.305094 A    
O4    C2    1.306001 A    
C17   S1    1.783469 S    
C37   H25   1.097843 S    
O7    C3    1.304332 A    
C10   C12   1.405484 A    
O1    Cu1   1.964136 S    
C38   H28   1.097726 S    
C35   H19   1.111098 S    
C13   C18   1.429326 A    
C5    N1    1.368787 A    
O6    Cu2   1.949110 S    
S2    O18   1.682586 S    
C8    C10   1.399574 A    
S4    O22   1.501815 D    
O3    C1    1.306002 A    
O8    Cu1   1.940541 S    
C28   S4    1.771528 S    
C34   H14   1.111113 S    
C5    O9    1.343569 S    
C6    O10   1.343577 S    
C26   C28   1.394856 A    
C33   H11   1.109046 S    
C18   S2    1.781729 S    
C34   H12   1.105604 S    
C19   H3    1.083830 S    
C20   H4    1.083845 S    
S1    O13   1.503155 D    
C16   C18   1.396229 A    
C22   C34   1.510266 S    
N1    C7    1.364898 A    
N2    C8    1.366163 A    
C11   C13   1.423847 A    
C19   C21   1.399458 A    
O2    Cu2   1.964136 S    
S3    O21   1.679978 S    
C5    C13   1.418192 A    
O5    Cu1   1.949110 S    
C16   H2    1.081089 S    
C14   C17   1.428473 A    
C4    C24   1.476593 S    
O18   H8    0.990734 S    
C31   C35   1.523361 S    
C36   H20   1.111029 S    
