data_mof_unit_6889.cif
_audit_creation_date              2012-12-10T18:10:18-0500
_audit_creation_method            fapswitch 2.2
_symmetry_space_group_name_H-M    P1
_symmetry_Int_Tables_number       1
_space_group_crystal_system       triclinic
_cell_length_a                    10.741972
_cell_length_b                    9.421752
_cell_length_c                    15.869377
_cell_angle_alpha                 89.895095
_cell_angle_beta                  90.453508
_cell_angle_gamma                 89.674006
_cell_volume                      1606.03188682

loop_
_atom_site_label
_atom_site_type_symbol
_atom_type_description
_atom_site_fract_x
_atom_site_fract_y
_atom_site_fract_z
_atom_type_partial_charge
C1    C     C_R   0.260170 0.500651 0.505680 0.748882
C2    C     C_3   0.611660 0.564578 0.951156 -0.399540
C3    C     C_3   0.608516 0.574687 0.048289 -0.391676
C4    C     C_1   0.490676 0.500310 0.824453 -0.050823
C5    C     C_1   0.493686 0.500891 0.174874 -0.095728
C6    C     C_1   0.496403 0.500555 0.250479 -0.219160
C7    C     C_3   0.068679 0.653060 0.535241 0.025457
C8    C     C_3   0.071110 0.382782 0.570738 0.019284
C9    C     C_3   0.925258 0.650721 0.528437 -0.371672
C10   C     C_3   0.926875 0.394310 0.574134 -0.394822
C11   C     C_3   0.073190 0.468208 0.420322 -0.466594
C12   C     C_3   0.122044 0.502228 0.510830 0.049981
C13   C     C_3   0.877901 0.499991 0.505913 0.097000
C14   C     C_R   0.499185 0.500141 0.340209 0.842853
C15   C     C_3   0.930178 0.457535 0.419128 -0.411682
C16   C     C_3   0.609842 0.083097 0.547764 -0.190633
C17   C     C_3   0.609063 0.915541 0.548617 -0.189183
C18   C     C_3   0.388150 0.084068 0.543326 -0.193542
C19   C     C_3   0.387302 0.916706 0.542039 -0.193541
C20   C     C_3   0.503304 0.083738 0.415173 -0.183021
C21   C     C_3   0.504691 0.916676 0.415191 -0.185362
C22   C     C_R   0.740006 0.499744 0.502304 0.780727
C23   C     C_R   0.499127 0.499879 0.659714 0.815482
C24   C     C_3   0.374360 0.581315 0.049256 -0.453099
C25   C     C_3   0.488599 0.346659 0.049338 -0.435050
C26   C     C_3   0.473014 0.345296 0.951523 -0.025088
C27   C     C_3   0.374895 0.590898 0.950778 -0.012995
C28   C     C_1   0.494855 0.499693 0.749042 -0.222903
C29   C     C_3   0.490979 0.500872 0.082599 0.300891
C30   C     C_3   0.488107 0.501085 0.916572 0.278769
Cu1   Cu    Cu3+1 0.499860 0.642410 0.500040 0.885582
Cu2   Cu    Cu3+1 0.499860 0.357590 0.500040 0.890506
H1    H     H_    0.287380 0.540578 0.927790 0.127265
H2    H     H_    0.374901 0.313031 0.938981 0.146646
H3    H     H_    0.895244 0.728001 0.478983 0.148089
H4    H     H_    0.886889 0.286925 0.563960 0.152718
H5    H     H_    0.102670 0.552460 0.375514 0.163203
H6    H     H_    0.113464 0.366457 0.397137 0.168369
H7    H     H_    0.891389 0.528187 0.368987 0.156977
H8    H     H_    0.902264 0.346934 0.403641 0.168198
H9    H     H_    0.612110 0.123428 0.613588 0.143647
H10   H     H_    0.609083 0.876715 0.614852 0.138877
H11   H     H_    0.697374 0.119108 0.517834 0.135812
H12   H     H_    0.697194 0.877156 0.520265 0.138033
H13   H     H_    0.384010 0.121879 0.609565 0.150481
H14   H     H_    0.378908 0.875448 0.607440 0.156677
H15   H     H_    0.420836 0.122028 0.378657 0.138435
H16   H     H_    0.423855 0.878064 0.377624 0.138478
H17   H     H_    0.587058 0.122866 0.381704 0.138642
H18   H     H_    0.589918 0.878200 0.382786 0.138397
H19   H     H_    0.302266 0.122944 0.511182 0.139200
H20   H     H_    0.303506 0.881367 0.506746 0.147185
H21   H     H_    0.288934 0.525191 0.069995 0.145924
H22   H     H_    0.410521 0.287224 0.078394 0.146897
H23   H     H_    0.576333 0.292717 0.069604 0.162875
H24   H     H_    0.371117 0.688568 0.078579 0.162374
H25   H     H_    0.608781 0.688251 0.067534 0.160910
H26   H     H_    0.694032 0.524410 0.075260 0.158167
H27   H     H_    0.628696 0.671278 0.923752 0.162731
H28   H     H_    0.692246 0.497721 0.932346 0.154568
H29   H     H_    0.102310 0.729537 0.486918 0.152420
H30   H     H_    0.093415 0.279951 0.539382 0.165608
H31   H     H_    0.880875 0.685277 0.588210 0.163798
H32   H     H_    0.894887 0.430559 0.637088 0.152526
N1    N     N_3   0.500250 0.143650 0.501830 -0.110650
N2    N     N_3   0.500250 0.856350 0.501830 -0.112499
O1    O     O_R   0.317570 0.620260 0.500050 -0.598408
O2    O     O_R   0.317570 0.379740 0.500050 -0.591475
O3    O     O_R   0.499890 0.620310 0.379470 -0.585152
O4    O     O_R   0.499890 0.379690 0.379470 -0.585416
O5    O     O_R   0.682190 0.620260 0.500020 -0.598354
O6    O     O_R   0.682190 0.379740 0.500020 -0.595025
O7    O     O_R   0.499870 0.620210 0.620600 -0.589137
O8    O     O_R   0.499870 0.379790 0.620600 -0.582591
C31   C     C_3   0.558803 0.231027 0.910013 -0.378229
C32   C     C_3   0.491535 0.146476 0.841204 -0.892968
H33   H     H_    0.411840 0.088463 0.868681 0.249843
H34   H     H_    0.456439 0.216746 0.790143 0.268228
H35   H     H_    0.556595 0.067759 0.813386 0.240990
H36   H     H_    0.643257 0.279620 0.882752 0.204884
H37   H     H_    0.591549 0.152099 0.957489 0.198791
C33   C     C_3   0.368007 0.749524 0.922712 -0.374186
C34   C     C_3   0.336153 0.772673 0.829392 -0.865155
H38   H     H_    0.421779 0.770034 0.790862 0.260665
H39   H     H_    0.268933 0.692243 0.806231 0.247343
H40   H     H_    0.293180 0.879172 0.820559 0.231960
H41   H     H_    0.292219 0.801767 0.958857 0.193738
H42   H     H_    0.454873 0.806756 0.939035 0.207365
C35   C     C_3   0.110908 0.711251 0.622419 -0.399479
C36   C     C_3   0.085083 0.870277 0.631459 -0.924380
H43   H     H_    0.124271 0.931101 0.578219 0.239088
H44   H     H_    0.983496 0.891884 0.633923 0.251772
H45   H     H_    0.127723 0.908174 0.691186 0.254800
H46   H     H_    0.059367 0.659456 0.673795 0.204093
H47   H     H_    0.211657 0.691823 0.633325 0.212870
C37   C     C_3   0.131063 0.374604 0.660371 -0.409581
C38   C     C_3   0.125186 0.225136 0.697139 -0.903283
H48   H     H_    0.027174 0.188785 0.700581 0.260040
H49   H     H_    0.179265 0.151010 0.657521 0.247809
H50   H     H_    0.166229 0.224289 0.761608 0.245091
H51   H     H_    0.230209 0.406595 0.659158 0.203646
H52   H     H_    0.082915 0.444423 0.705619 0.199524

loop_
_geom_bond_atom_site_label_1
_geom_bond_atom_site_label_2
_ccdc_geom_bond_type
Cu1   N2    S    
C37   H52   S    
C21   N2    S    
C8    C37   S    
C32   H35   S    
C38   H48   S    
C19   H14   S    
Cu2   O6    S    
C27   H1    S    
C18   N1    S    
Cu1   O1    S    
C17   N2    S    
C32   H34   S    
Cu2   O8    S    
C5    C6    T    
C2    H28   S    
Cu1   O7    S    
C33   H41   S    
C7    C35   S    
C1    O2    A    
C19   N2    S    
C11   H5    S    
C18   C19   S    
C35   H46   S    
C3    C29   S    
C9    C13   S    
C24   C29   S    
C7    H29   S    
C38   H49   S    
C17   H10   S    
C11   C15   S    
C19   H20   S    
C26   H2    S    
C34   H38   S    
C16   C17   S    
C24   C27   S    
C31   H36   S    
Cu2   O2    S    
C21   H16   S    
Cu1   O5    S    
C37   H51   S    
C27   C30   S    
C14   O4    A    
C1    C12   S    
C23   O7    A    
C22   O6    A    
C21   H18   S    
C4    C28   T    
C18   H19   S    
C5    C29   S    
C25   C29   S    
C7    C12   S    
C20   N1    S    
C25   H22   S    
C2    H27   S    
C31   H37   S    
Cu2   O4    S    
C24   H21   S    
C35   H47   S    
C11   H6    S    
C31   C32   S    
C20   H17   S    
C6    C14   S    
C36   H44   S    
Cu1   Cu2   S    
C8    C12   S    
C37   C38   S    
C26   C31   S    
C23   C28   S    
C32   H33   S    
C16   H11   S    
C15   H7    S    
C3    H25   S    
C34   H39   S    
C26   C30   S    
C13   C15   S    
C14   O3    A    
C23   O8    A    
C18   H13   S    
C22   O5    A    
C38   H50   S    
C36   H45   S    
C7    C9    S    
C9    H31   S    
C27   C33   S    
C10   H32   S    
C25   H23   S    
C10   C13   S    
C11   C12   S    
C24   H24   S    
C2    C30   S    
C2    C3    S    
C25   C26   S    
C17   H12   S    
C36   H43   S    
C33   H42   S    
C1    O1    A    
C13   C22   S    
C15   H8    S    
C20   H15   S    
C3    H26   S    
Cu1   O3    S    
C34   H40   S    
C20   C21   S    
C8    C10   S    
C33   C34   S    
C9    H3    S    
C10   H4    S    
C16   N1    S    
C35   C36   S    
C16   H9    S    
C4    C30   S    
C8    H30   S    
Cu2   N1    S    
