data_mof_unit_21421.cif
_audit_creation_date              2012-12-10T17:13:40-0500
_audit_creation_method            fapswitch 2.2
_symmetry_space_group_name_H-M    P1
_symmetry_Int_Tables_number       1
_space_group_crystal_system       triclinic
_cell_length_a                    27.189354
_cell_length_b                    10.587085
_cell_length_c                    9.995871
_cell_angle_alpha                 90.493884
_cell_angle_beta                  89.838645
_cell_angle_gamma                 90.264316
_cell_volume                      2877.22285718

loop_
_atom_site_label
_atom_site_type_symbol
_atom_type_description
_atom_site_fract_x
_atom_site_fract_y
_atom_site_fract_z
_atom_type_partial_charge
C1    C     C_R   0.498962 0.261975 0.499281 1.027470
C2    C     C_R   0.285296 0.332137 0.550107 0.401100
C3    C     C_R   0.251309 0.414374 0.472164 -0.166939
C4    C     C_R   0.099820 0.294437 0.449326 -0.110771
C5    C     C_R   0.123196 0.302961 0.575181 -0.137736
C6    C     C_R   0.096495 0.269830 0.690912 0.422920
C7    C     C_R   0.126835 0.320017 0.332146 -0.050932
C8    C     C_R   0.352499 0.479011 0.499487 -0.332811
C9    C     C_R   0.644597 0.450183 0.498492 -0.174622
C10   C     C_R   0.971131 0.209840 0.549166 -0.071818
C11   C     C_R   0.972502 0.274893 0.312866 0.067541
C12   C     C_R   0.405658 0.499094 0.500183 1.001420
C13   C     C_R   0.946128 0.245757 0.431353 0.027158
C14   C     C_R   0.942982 0.157161 0.655628 0.432925
C15   C     C_R   0.892224 0.173517 0.658665 -0.214967
C16   C     C_R   0.868108 0.230085 0.551728 -0.119568
C17   C     C_R   0.894411 0.258244 0.434379 -0.063086
C18   C     C_R   0.869145 0.303625 0.322080 -0.048920
C19   C     C_R   0.818770 0.329415 0.333115 0.614152
C20   C     C_R   0.818169 0.260020 0.559334 0.566965
C21   C     C_R   0.698494 0.267005 0.520048 -0.254215
C22   C     C_R   0.652096 0.322090 0.534382 0.474819
C23   C     C_R   0.493683 0.736596 0.500421 0.833743
C24   C     C_R   0.682178 0.530628 0.452783 -0.427154
C25   C     C_R   0.730882 0.490363 0.441650 0.591225
C26   C     C_R   0.741356 0.353966 0.469320 -0.107038
C27   C     C_R   0.022354 0.233969 0.557756 -0.017099
C28   C     C_R   0.048958 0.265578 0.440632 0.086625
C29   C     C_R   0.024626 0.274892 0.315599 0.044428
C30   C     C_R   0.046971 0.238326 0.681549 -0.240811
C31   C     C_R   0.103591 0.314397 0.207931 -0.073312
C32   C     C_R   0.945703 0.311312 0.198403 -0.202001
C33   C     C_R   0.894919 0.325888 0.203409 -0.136259
C34   C     C_R   0.594263 0.496413 0.499813 0.951506
C35   C     C_R   0.053321 0.292648 0.199312 -0.204257
C36   C     C_2   0.474191 0.932778 0.389387 0.412196
C37   C     C_2   0.475105 0.864333 0.502790 0.231177
C38   C     C_2   0.471121 0.069734 0.400833 -0.258636
C39   C     C_2   0.496754 0.128641 0.496506 -0.334016
C40   C     C_2   0.524394 0.421529 0.923994 -0.126185
C41   C     C_2   0.521659 0.416599 0.074073 -0.137604
C42   C     C_R   0.171848 0.349320 0.579912 0.675850
C43   C     C_R   0.176591 0.352747 0.341993 0.590777
C44   C     C_R   0.272668 0.536145 0.404122 -0.001453
C45   C     C_R   0.322613 0.558334 0.420860 0.267631
C46   C     C_R   0.333834 0.372218 0.568087 0.297717
H1    H     H_    0.256128 0.475916 0.434223 0.172753
H2    H     H_    0.123981 0.332111 0.117079 0.243830
H3    H     H_    0.963160 0.336530 0.105416 0.148210
H4    H     H_    0.673194 0.626478 0.425001 0.163678
H5    H     H_    0.876174 0.359043 0.114974 0.192083
H6    H     H_    0.037875 0.290728 0.100081 0.167307
H7    H     H_    0.452191 0.122041 0.323468 0.176952
H8    H     H_    0.517372 0.079152 0.572207 0.188314
H9    H     H_    0.546970 0.351638 0.873314 0.171970
H10   H     H_    0.476539 0.562220 0.898527 0.162428
H11   H     H_    0.539203 0.337687 0.122959 0.162579
H12   H     H_    0.486433 0.580126 0.103083 0.185704
H13   H     H_    0.724271 0.301594 0.493955 0.208525
H14   H     H_    0.871857 0.140883 0.745168 0.211573
H15   H     H_    0.027867 0.225350 0.774958 0.225613
N1    N     N_R   0.197885 0.367424 0.464494 -0.310431
N2    N     N_R   0.795206 0.314168 0.452915 -0.313141
N3    N     N_2   0.500520 0.501330 0.852150 -0.198004
N4    N     N_2   0.500540 0.501360 0.147810 -0.183878
O1    O     O_R   0.499990 0.319060 0.613040 -0.603032
O2    O     O_2   0.792966 0.238606 0.673412 -0.559286
O3    O     O_2   0.203481 0.371637 0.230251 -0.507748
O4    O     O_2   0.793569 0.369740 0.225743 -0.520049
O5    O     O_R   0.500010 0.319100 0.386900 -0.629364
O6    O     O_R   0.428750 0.500000 0.613050 -0.633998
O7    O     O_R   0.428760 0.500040 0.386920 -0.569712
O8    O     O_R   0.499990 0.680900 0.613100 -0.614608
O9    O     O_R   0.500010 0.680940 0.386960 -0.576909
O10   O     O_R   0.571240 0.499960 0.613080 -0.582301
O11   O     O_R   0.571250 0.500000 0.386950 -0.606112
O12   O     O_2   0.192729 0.380951 0.697659 -0.457168
Zn1   Zn    Zn3+2 0.499990 0.499970 0.650990 0.953715
Zn2   Zn    Zn3+2 0.500010 0.500030 0.349010 0.988655
O13   O     O_3   0.365217 0.298989 0.643610 -0.620530
C47   C     C_3   0.359325 0.333079 0.779875 0.161169
H16   H     H_    0.322327 0.304159 0.816875 0.197715
H17   H     H_    0.363660 0.437127 0.794707 0.140881
C48   C     C_3   0.398312 0.266401 0.863047 -0.357230
H18   H     H_    0.392473 0.162520 0.856978 0.228009
H19   H     H_    0.435350 0.288111 0.822058 0.256337
C49   C     C_3   0.396197 0.308954 0.009327 -0.892518
H20   H     H_    0.401412 0.412878 0.017443 0.268223
H21   H     H_    0.425959 0.262833 0.066416 0.258752
H22   H     H_    0.360231 0.282654 0.054357 0.286541
O14   O     O_3   0.767721 0.570611 0.397714 -0.601774
C50   C     C_3   0.777734 0.661942 0.497925 0.061523
H23   H     H_    0.787744 0.615448 0.593745 0.147841
H24   H     H_    0.745338 0.724199 0.514594 0.144391
C51   C     C_3   0.821033 0.743881 0.452585 -0.304181
H25   H     H_    0.854053 0.683593 0.438479 0.226378
H26   H     H_    0.812057 0.787904 0.355131 0.238164
C52   C     C_3   0.832686 0.848068 0.554416 -0.957564
H27   H     H_    0.800359 0.910590 0.568827 0.280857
H28   H     H_    0.863942 0.906130 0.517531 0.260399
H29   H     H_    0.843037 0.806407 0.651926 0.266770
O15   O     O_3   0.472776 0.873041 0.264510 -0.615796
C53   C     C_3   0.505218 0.928896 0.170527 0.083560
H30   H     H_    0.530695 0.854189 0.134355 0.161859
H31   H     H_    0.528971 0.006072 0.211661 0.120743
C54   C     C_3   0.475651 0.976425 0.051278 -0.318957
H32   H     H_    0.455321 0.895916 0.005159 0.230092
H33   H     H_    0.448353 0.046876 0.086495 0.222664
C55   C     C_3   0.508807 0.036595 0.945781 -0.960580
H34   H     H_    0.528998 0.118541 0.989220 0.249450
H35   H     H_    0.486104 0.070265 0.861221 0.289366
H36   H     H_    0.535620 0.966477 0.906630 0.271523
O16   O     O_3   0.461558 0.917629 0.625332 -0.671947
C56   C     C_3   0.416602 0.864654 0.670413 0.061828
H37   H     H_    0.414871 0.878053 0.780603 0.166234
H38   H     H_    0.413774 0.761007 0.651907 0.148824
C57   C     C_3   0.372534 0.931857 0.608351 -0.339671
H39   H     H_    0.373918 0.033997 0.634530 0.274015
H40   H     H_    0.373985 0.922379 0.497722 0.264465
C58   C     C_3   0.324225 0.875162 0.658489 -0.769919
H41   H     H_    0.292911 0.918363 0.605066 0.315868
H42   H     H_    0.319933 0.893323 0.767500 0.261830
H43   H     H_    0.323220 0.771667 0.639316 0.251179
Cl1   Cl    Cl    0.266631 0.182544 0.608454 -0.559722
Cl2   Cl    Cl    0.122867 0.259134 0.851180 -0.562118
O17   O     O_3   0.610899 0.251846 0.573754 -0.658268
C59   C     C_3   0.621683 0.135948 0.637279 0.097172
H44   H     H_    0.590680 0.115714 0.706604 0.161113
H45   H     H_    0.655022 0.141071 0.701674 0.160206
C60   C     C_3   0.625282 0.027696 0.534243 -0.369356
H46   H     H_    0.594779 0.034402 0.461037 0.220873
H47   H     H_    0.660420 0.034722 0.477938 0.232773
C61   C     C_3   0.622738 0.898876 0.601456 -0.956157
H48   H     H_    0.653387 0.888890 0.673781 0.271476
H49   H     H_    0.625779 0.823044 0.524485 0.253144
H50   H     H_    0.587082 0.887353 0.654678 0.273505
O18   O     O_3   0.963752 0.087840 0.757302 -0.658984
C62   C     C_3   0.975275 0.966335 0.707329 0.068248
H51   H     H_    0.002422 0.972148 0.623810 0.156887
H52   H     H_    0.941370 0.917265 0.671341 0.143965
C63   C     C_3   0.997807 0.888843 0.819632 -0.304352
H53   H     H_    0.031741 0.936735 0.856201 0.248404
H54   H     H_    0.971276 0.882571 0.904168 0.230215
C64   C     C_3   0.010648 0.755681 0.771780 -0.921881
H55   H     H_    0.977070 0.705320 0.736767 0.260145
H56   H     H_    0.026868 0.701919 0.855595 0.276842
H57   H     H_    0.037861 0.759608 0.688792 0.273686
Cl3   Cl    Cl    0.347108 0.691448 0.339429 -0.589887

loop_
_geom_bond_atom_site_label_1
_geom_bond_atom_site_label_2
_ccdc_geom_bond_type
C10   C27   A    
C21   C26   A    
O17   C59   S    
N4    Zn2   S    
C45   Cl3   S    
C15   H14   S    
C20   O2    S    
C51   H25   S    
C48   C49   S    
C49   H20   S    
C57   H40   S    
C47   H16   S    
C51   C52   S    
C2    C46   A    
C35   H6    S    
C28   C29   A    
C48   H19   S    
C21   H13   S    
O7    Zn2   S    
C63   H54   S    
C5    C6    A    
C9    C22   A    
C22   O17   S    
C39   H8    S    
C37   O16   S    
C54   H32   S    
C15   C16   A    
C36   O15   S    
C18   C19   A    
C8    C45   A    
C47   H17   S    
C49   H22   S    
C19   N2    A    
C16   C17   A    
C61   H50   S    
O8    Zn1   S    
O11   Zn2   S    
C7    C43   A    
C42   N1    A    
C58   H43   S    
C16   C20   A    
C34   O10   A    
C12   O7    A    
C21   C22   A    
C27   C30   A    
C23   O8    A    
C64   H57   S    
C4    C28   A    
C58   H42   S    
C17   C18   A    
C24   H4    S    
C31   H2    S    
O1    Zn1   S    
C3    C44   A    
C25   O14   S    
C7    C31   A    
C38   C39   D    
C24   C25   A    
C64   H56   S    
C10   C14   A    
C57   C58   S    
O14   C50   S    
C43   O3    S    
C41   N4    D    
C4    C7    A    
C25   C26   A    
C23   C37   S    
C10   C13   A    
C50   C51   S    
C60   H47   S    
C26   N2    S    
C59   H45   S    
H12   N4    S    
C14   O18   S    
C8    C12   S    
C40   H9    S    
C50   H24   S    
C1    O1    A    
C53   H31   S    
C48   H18   S    
C62   H52   S    
C40   C41   S    
C6    C30   A    
C12   O6    A    
C11   C32   A    
C52   H28   S    
O9    Zn2   S    
C49   H21   S    
C61   H48   S    
C31   C35   A    
C55   H36   S    
C60   C61   S    
C18   C33   A    
C23   O9    A    
C59   H44   S    
C27   C28   A    
C47   C48   S    
C58   H41   S    
C5    C42   A    
O16   C56   S    
C3    N1    S    
C51   H26   S    
C36   C37   D    
O5    Zn2   S    
N3    Zn1   S    
C44   C45   A    
C6    Cl2   S    
O13   C47   S    
C62   C63   S    
C56   H38   S    
C44   H1    S    
C9    C24   A    
C56   H37   S    
C63   C64   S    
C2    Cl1   S    
C33   H5    S    
C52   H29   S    
O18   C62   S    
C29   C35   A    
C57   H39   S    
C1    O5    A    
C40   N3    D    
C13   C17   A    
C64   H55   S    
C32   C33   A    
C20   N2    A    
C55   H35   S    
C60   H46   S    
C59   C60   S    
C41   H11   S    
C63   H53   S    
C46   O13   S    
C11   C13   A    
H10   N3    S    
C9    C34   S    
C38   H7    S    
C54   H33   S    
C36   C38   S    
C50   H23   S    
C2    C3    A    
C53   C54   S    
O15   C53   S    
O10   Zn1   S    
C8    C46   A    
C32   H3    S    
C56   C57   S    
C19   O4    S    
C62   H51   S    
C1    C39   S    
C4    C5    A    
C11   C29   A    
C42   O12   S    
C52   H27   S    
C30   H15   S    
C53   H30   S    
C61   H49   S    
C14   C15   A    
C55   H34   S    
O6    Zn1   S    
C43   N1    A    
C34   O11   A    
C54   C55   S    
