data_mof_unit_38729.cif
_audit_creation_date              2012-10-26T21:00:14-0400
_audit_creation_method            fapswitch 2.2
_symmetry_space_group_name_H-M    P1
_symmetry_Int_Tables_number       1
_space_group_crystal_system       triclinic
_cell_length_a                    19.267675
_cell_length_b                    8.659564
_cell_length_c                    7.501273
_cell_angle_alpha                 102.779553
_cell_angle_beta                  95.042701
_cell_angle_gamma                 93.044005
_cell_volume                      1212.46175022

loop_
_atom_site_label
_atom_site_type_symbol
_atom_type_description
_atom_site_fract_x
_atom_site_fract_y
_atom_site_fract_z
_atom_type_partial_charge
C1    C     C_R   0.497812 0.199928 0.453395 0.558799
C2    C     C_R   0.808933 0.348947 0.421564 0.272538
C3    C     C_R   0.147633 0.498403 0.523037 -0.028783
C4    C     C_R   0.852867 0.489028 0.493753 -0.010725
C5    C     C_R   0.177938 0.358888 0.444372 -0.176634
C6    C     C_R   0.823329 0.631332 0.566526 -0.191046
C7    C     C_R   0.249880 0.357808 0.437382 -0.089751
C8    C     C_R   0.751345 0.636132 0.570217 -0.087640
C9    C     C_R   0.292522 0.498838 0.506839 -0.033793
C10   C     C_R   0.707490 0.498065 0.494741 -0.022433
C11   C     C_R   0.929571 0.490006 0.496798 0.360799
C12   C     C_R   0.502174 0.800070 0.546608 0.554595
C13   C     C_R   0.070888 0.496089 0.514331 0.338885
C14   C     C_3   0.326114 0.812584 0.834706 -0.071014
C15   C     C_3   0.685172 0.199831 0.143215 -0.073993
C16   C     C_3   0.148196 0.765188 0.866171 -0.089222
C17   C     C_3   0.833323 0.105719 0.468173 -0.068325
C18   C     C_1   0.278929 0.209935 0.360863 0.201499
C19   C     C_1   0.723404 0.785444 0.646464 0.172924
C20   C     C_3   0.385179 0.290735 0.966178 -0.035128
C21   C     C_3   0.614803 0.709299 0.033711 -0.031543
C22   C     C_2   0.496670 0.031863 0.427345 -0.113701
C23   C     C_2   0.503284 0.968129 0.572672 -0.120059
C24   C     C_R   0.368005 0.499774 0.501447 0.573063
C25   C     C_R   0.632010 0.500382 0.498685 0.579069
C26   C     C_R   0.263428 0.638742 0.591569 0.268718
C27   C     C_R   0.735763 0.356394 0.412508 0.245268
C28   C     C_R   0.191003 0.638051 0.604108 0.290665
Cu1   Cu    Cu3+1 0.507710 0.517380 0.684380 1.058296
Cu2   Cu    Cu3+1 0.492290 0.482620 0.315620 1.066351
H1    H     H_    0.145304 0.250570 0.385216 0.170147
H2    H     H_    0.734828 0.164856 0.086237 0.170483
H3    H     H_    0.192292 0.722956 0.944444 0.092440
H4    H     H_    0.100386 0.685967 0.859886 0.142582
H5    H     H_    0.138155 0.884949 0.944604 0.162213
H6    H     H_    0.856475 0.164293 0.609973 0.129379
H7    H     H_    0.863727 0.002217 0.418807 0.154690
H8    H     H_    0.778644 0.059381 0.470426 0.175308
H9    H     H_    0.385645 0.237213 0.087179 0.158483
H10   H     H_    0.356902 0.202782 0.848402 0.121009
H11   H     H_    0.355656 0.399430 0.986006 0.115690
H12   H     H_    0.856576 0.739100 0.623682 0.153162
H13   H     H_    0.643127 0.797177 0.151492 0.116847
H14   H     H_    0.614243 0.762905 0.912784 0.164017
H15   H     H_    0.644336 0.600630 0.013622 0.114328
H16   H     H_    0.490335 0.960325 0.287357 0.155777
H17   H     H_    0.509604 0.039659 0.712663 0.153846
H18   H     H_    0.378712 0.876735 0.860446 0.149443
H19   H     H_    0.330003 0.704582 0.892092 0.106790
H20   H     H_    0.290067 0.892849 0.909818 0.154183
H21   H     H_    0.668083 0.307500 0.098680 0.125425
H22   H     H_    0.644633 0.101739 0.083865 0.146771
N1    N     N_R   0.032052 0.358643 0.505025 -0.230654
N2    N     N_R   0.968437 0.627212 0.504575 -0.241216
N3    N     N_R   0.962779 0.355795 0.496791 -0.169548
N4    N     N_R   0.037713 0.630074 0.512362 -0.166375
N5    N     N_2   0.480680 0.456420 0.038530 0.095688
N6    N     N_2   0.519320 0.543580 0.961470 0.094134
N7    N     N_1   0.302100 0.091281 0.300252 -0.323448
N8    N     N_1   0.701070 0.905140 0.707063 -0.353735
O1    O     O_R   0.505010 0.286130 0.619770 -0.460583
O2    O     O_3   0.691590 0.222170 0.336201 -0.574141
O3    O     O_3   0.163452 0.776759 0.688431 -0.521769
O4    O     O_3   0.837248 0.208413 0.346517 -0.551650
O5    O     O_3   0.453470 0.320309 0.924145 -0.479851
O6    O     O_3   0.546548 0.679648 0.075902 -0.481103
O7    O     O_R   0.494990 0.713870 0.380230 -0.458802
O8    O     O_R   0.491990 0.256780 0.308370 -0.507053
O9    O     O_R   0.508010 0.743220 0.691630 -0.514398
O10   O     O_R   0.406650 0.514660 0.655750 -0.491883
O11   O     O_R   0.593350 0.485340 0.344250 -0.484195
O12   O     O_R   0.393640 0.485310 0.344340 -0.533466
O13   O     O_R   0.606360 0.514690 0.655660 -0.535926
O14   O     O_3   0.305126 0.779834 0.644128 -0.540718

loop_
_geom_bond_atom_site_label_1
_geom_bond_atom_site_label_2
_ccdc_geom_bond_type
C10   C27   A    
C3    C13   S    
Cu2   O12   S    
C12   O9    A    
Cu2   N5    S    
C9    C24   S    
Cu2   O11   S    
C2    C27   A    
C25   O11   A    
C17   H6    S    
C15   H21   S    
C21   O6    S    
C21   H14   S    
C5    C7    A    
C20   O5    S    
C26   C28   A    
Cu2   O7    S    
C27   O2    S    
C13   N4    A    
C16   H4    S    
C7    C18   S    
C23   H17   S    
C6    C8    A    
C20   H11   S    
C24   O10   A    
C15   H2    S    
C16   H5    S    
C17   H7    S    
C15   H22   S    
C4    C11   S    
Cu1   O9    S    
C12   C23   S    
N5    N6    D    
Cu1   Cu2   S    
C11   N2    A    
C20   H10   S    
C2    C4    A    
C14   O14   S    
C10   C25   S    
C8    C10   A    
C3    C28   A    
C16   O3    S    
C15   O2    S    
C2    O4    S    
C9    C26   A    
C25   O13   A    
C21   H15   S    
C17   H8    S    
N1    N3    A    
C17   O4    S    
C16   H3    S    
C12   O7    A    
Cu1   O1    S    
C5    H1    S    
C8    C19   S    
Cu1   O13   S    
C13   N1    A    
C14   H20   S    
C14   H19   S    
C28   O3    S    
C18   N7    T    
C1    C22   S    
C1    O8    A    
C11   N3    A    
Cu1   N6    S    
C24   O12   A    
C4    C6    A    
Cu1   O10   S    
C6    H12   S    
C7    C9    A    
C20   H9    S    
C22   C23   D    
C26   O14   S    
C19   N8    T    
C14   H18   S    
C22   H16   S    
C21   H13   S    
N6    O6    S    
Cu2   O8    S    
N5    O5    S    
N2    N4    A    
C3    C5    A    
C1    O1    A    
