data_mof_unit_29744.cif
_audit_creation_date              2012-12-10T18:47:04-0500
_audit_creation_method            fapswitch 2.2
_symmetry_space_group_name_H-M    P1
_symmetry_Int_Tables_number       1
_space_group_crystal_system       triclinic
_cell_length_a                    10.695512
_cell_length_b                    9.840401
_cell_length_c                    14.901121
_cell_angle_alpha                 90.532823
_cell_angle_beta                  89.78086
_cell_angle_gamma                 89.286338
_cell_volume                      1568.11343129

loop_
_atom_site_label
_atom_site_type_symbol
_atom_type_description
_atom_site_fract_x
_atom_site_fract_y
_atom_site_fract_z
_atom_type_partial_charge
C1    C     C_R   0.260085 0.501158 0.500739 1.033218
C2    C     C_R   0.739914 0.498852 0.499128 1.031229
C3    C     C_R   0.282018 0.585575 0.044180 0.527205
C4    C     C_R   0.723819 0.427223 0.955799 0.547137
C5    C     C_R   0.065786 0.404875 0.552308 0.349788
C6    C     C_R   0.934206 0.595246 0.447519 0.350881
C7    C     C_R   0.937135 0.395963 0.545776 0.354461
C8    C     C_R   0.062883 0.604091 0.453995 0.355156
C9    C     C_R   0.872400 0.496126 0.497308 -0.425168
C10   C     C_R   0.127601 0.503930 0.502493 -0.424839
C11   C     C_R   0.556648 0.072106 0.567376 -0.068827
C12   C     C_R   0.443364 0.927890 0.432616 -0.071414
C13   C     C_R   0.443107 0.071759 0.432711 -0.078087
C14   C     C_R   0.556899 0.928238 0.567285 -0.076072
C15   C     C_R   0.498635 0.499258 0.327128 0.936850
C16   C     C_R   0.501577 0.500767 0.672887 0.935435
C17   C     C_R   0.616810 0.471493 0.812620 0.481348
C18   C     C_R   0.385499 0.533092 0.187217 0.460824
C19   C     C_R   0.505539 0.503763 0.768082 -0.174006
C20   C     C_R   0.495463 0.496860 0.231954 -0.171424
C21   C     C_R   0.397972 0.544237 0.813334 -0.321642
C22   C     C_R   0.603254 0.456714 0.186821 -0.319819
C23   C     C_R   0.396263 0.545587 0.905817 0.099334
C24   C     C_R   0.606598 0.459955 0.094326 0.096083
C25   C     C_R   0.504374 0.505646 0.953273 -0.051570
C26   C     C_R   0.499637 0.502907 0.046890 -0.046443
C27   C     C_R   0.616362 0.467363 0.906924 -0.103621
C28   C     C_R   0.387602 0.540934 0.093176 -0.103959
C29   C     C_R   0.286848 0.584620 0.950853 -0.329906
C30   C     C_R   0.716147 0.421234 0.049412 -0.326615
H1    H     H_    0.315300 0.573855 0.776016 0.145187
H2    H     H_    0.685024 0.424597 0.224270 0.146110
H3    H     H_    0.204144 0.614215 0.913564 0.146475
H4    H     H_    0.795653 0.384723 0.087472 0.151679
H5    H     H_    0.601863 0.126698 0.621305 0.161436
H6    H     H_    0.398172 0.873296 0.378675 0.156080
H7    H     H_    0.397360 0.126048 0.378986 0.122587
H8    H     H_    0.602651 0.873946 0.621006 0.125112
N1    N     N_R   0.500000 0.857200 0.500000 -0.079404
N2    N     N_R   0.500000 0.142800 0.500000 -0.079871
O1    O     O_R   0.316770 0.614620 0.499990 -0.597156
O2    O     O_R   0.683230 0.385380 0.500010 -0.597602
O3    O     O_R   0.683230 0.614620 0.500010 -0.594265
O4    O     O_R   0.316770 0.385380 0.499990 -0.593310
O5    O     O_R   0.499980 0.614680 0.367850 -0.597395
O6    O     O_R   0.500020 0.385320 0.632150 -0.595212
O7    O     O_R   0.500020 0.614680 0.632150 -0.657356
O8    O     O_R   0.499980 0.385320 0.367850 -0.656875
Zn1   Zn    Zn3+2 0.500000 0.653120 0.500000 0.978793
Zn2   Zn    Zn3+2 0.500000 0.346880 0.500000 0.980323
O9    O     O_3   0.723789 0.441058 0.763313 -0.538138
C31   C     C_3   0.786508 0.563470 0.745511 -0.244066
H9    H     H_    0.803346 0.623942 0.807749 0.136052
H10   H     H_    0.734225 0.626139 0.696306 0.140981
H11   H     H_    0.879110 0.538534 0.715628 0.179647
O10   O     O_3   0.278312 0.563797 0.236196 -0.554039
C32   C     C_3   0.212865 0.442091 0.250645 -0.224383
H12   H     H_    0.265778 0.372598 0.295447 0.130327
H13   H     H_    0.190723 0.389136 0.186378 0.152264
H14   H     H_    0.122798 0.467095 0.284232 0.179425
O11   O     O_3   0.170906 0.621476 0.086401 -0.596736
C33   C     C_3   0.160765 0.764414 0.089417 -0.261774
H15   H     H_    0.151566 0.807304 0.020911 0.137611
H16   H     H_    0.241588 0.810341 0.124953 0.174528
H17   H     H_    0.074963 0.792967 0.127552 0.183749
O12   O     O_3   0.830864 0.381336 0.911195 -0.559980
C34   C     C_3   0.937651 0.450403 0.942305 -0.289147
H18   H     H_    0.975133 0.401801 0.003711 0.176917
H19   H     H_    0.919295 0.560801 0.954555 0.149323
H20   H     H_    0.011516 0.442259 0.890014 0.175072
O13   O     O_3   0.132142 0.315260 0.605892 -0.574389
C35   C     C_3   0.124665 0.361118 0.695763 -0.254038
H21   H     H_    0.143245 0.471869 0.702473 0.102712
H22   H     H_    0.196715 0.306441 0.735361 0.185434
H23   H     H_    0.031954 0.337564 0.725223 0.224144
O14   O     O_3   0.867832 0.685017 0.394053 -0.576832
C36   C     C_3   0.874838 0.639164 0.304159 -0.253770
H24   H     H_    0.802583 0.693874 0.264770 0.183257
H25   H     H_    0.856180 0.528428 0.297506 0.109561
H26   H     H_    0.967381 0.662697 0.274415 0.216070
O15   O     O_3   0.873854 0.298170 0.593781 -0.543935
C37   C     C_3   0.886520 0.172076 0.548381 -0.198181
H27   H     H_    0.847555 0.177141 0.479305 0.145167
H28   H     H_    0.833079 0.094936 0.585723 0.162262
H29   H     H_    0.985386 0.136079 0.545760 0.171690
O16   O     O_3   0.126209 0.701675 0.405828 -0.549998
C38   C     C_3   0.113654 0.827947 0.451013 -0.210354
H30   H     H_    0.166978 0.904930 0.413437 0.158646
H31   H     H_    0.152820 0.823159 0.520037 0.150849
H32   H     H_    0.014799 0.863966 0.453722 0.173197

loop_
_geom_bond_atom_site_label_1
_geom_bond_atom_site_label_2
_ccdc_geom_bond_type
C38   H30   S    
C17   O9    S    
C6    C9    A    
O15   C37   S    
O7    Zn1   S    
C36   H24   S    
C21   H1    S    
C22   H2    S    
C23   C29   A    
C3    C28   A    
C19   C21   A    
C24   C26   A    
C11   C14   A    
C32   H13   S    
C3    O11   S    
C29   H3    S    
O10   C32   S    
C18   C20   A    
C3    C29   A    
C13   N2    A    
C33   H16   S    
C14   N1    A    
C12   H6    S    
C13   H7    S    
C31   H11   S    
C18   O10   S    
O8    Zn2   S    
O12   C34   S    
C11   N2    A    
C15   O8    A    
C35   H23   S    
C16   O7    A    
O1    Zn1   S    
C31   H10   S    
C36   H25   S    
C15   C20   S    
C30   H4    S    
O9    C31   S    
C17   C27   A    
C18   C28   A    
O14   C36   S    
C35   H22   S    
C16   O6    A    
C5    C7    A    
O16   C38   S    
O3    Zn1   S    
C32   H14   S    
C6    C8    A    
C25   C26   A    
C34   H18   S    
C34   H19   S    
C33   H15   S    
C14   H8    S    
C1    O4    A    
O5    Zn1   S    
C2    O3    A    
O2    Zn2   S    
C1    O1    A    
N1    Zn1   S    
C20   C22   A    
C37   H28   S    
C21   C23   A    
C22   C24   A    
C15   O5    A    
C4    C27   A    
C31   H9    S    
C36   H26   S    
O4    Zn2   S    
C7    C9    A    
C33   H17   S    
C7    O15   S    
C1    C10   S    
C35   H21   S    
C6    O14   S    
C25   C27   A    
C37   H29   S    
O6    Zn2   S    
C26   C28   A    
C34   H20   S    
C12   N1    A    
C11   H5    S    
O13   C35   S    
C5    O13   S    
C4    O12   S    
C32   H12   S    
C2    O2    A    
C16   C19   S    
N2    Zn2   S    
C17   C19   A    
C8    O16   S    
C23   C25   A    
O11   C33   S    
C24   C30   A    
C5    C10   A    
C12   C13   A    
C8    C10   A    
C37   H27   S    
C38   H32   S    
C38   H31   S    
C2    C9    S    
C4    C30   A    
