data_mof_unit_62999.cif
_audit_creation_date              2012-12-10T18:53:53-0500
_audit_creation_method            fapswitch 2.2
_symmetry_space_group_name_H-M    P1
_symmetry_Int_Tables_number       1
_space_group_crystal_system       triclinic
_cell_length_a                    19.43155
_cell_length_b                    19.45723
_cell_length_c                    19.450541
_cell_angle_alpha                 85.004346
_cell_angle_beta                  95.217555
_cell_angle_gamma                 89.872259
_cell_volume                      7295.26922646

loop_
_atom_site_label
_atom_site_type_symbol
_atom_type_description
_atom_site_fract_x
_atom_site_fract_y
_atom_site_fract_z
_atom_type_partial_charge
C1    C     C_R   0.311695 0.492347 0.491904 0.510899
C2    C     C_2   0.465485 0.980161 0.497320 -0.128146
C3    C     C_2   0.520018 0.021229 0.488923 0.126627
C4    C     C_R   0.688234 0.506827 0.508342 0.516285
C5    C     C_R   0.509431 0.237749 0.507793 -0.030448
C6    C     C_R   0.763818 0.503907 0.516435 -0.013576
C7    C     C_R   0.798402 0.451672 0.487504 -0.104807
C8    C     C_R   0.869932 0.446894 0.496091 0.091277
C9    C     C_R   0.908113 0.495285 0.532933 0.039753
C10   C     C_R   0.873721 0.546187 0.563935 0.105261
C11   C     C_R   0.801810 0.550583 0.555537 -0.112928
C12   C     C_R   0.471712 0.905477 0.496147 0.046829
C13   C     C_R   0.124545 0.528302 0.429432 0.064623
C14   C     C_R   0.196817 0.527336 0.432815 -0.119761
C15   C     C_R   0.203112 0.452324 0.539512 -0.120484
C16   C     C_R   0.508399 0.492149 0.688798 0.509323
C17   C     C_R   0.131555 0.452424 0.536774 -0.128757
C18   C     C_R   0.091848 0.490429 0.482485 0.011902
C19   C     C_2   0.983731 0.494829 0.536991 -0.096622
C20   C     C_2   0.016449 0.487086 0.480491 -0.069231
C21   C     C_R   0.236192 0.490194 0.487904 0.010221
C22   C     C_R   0.493622 0.516240 0.235453 0.034279
C23   C     C_R   0.422257 0.870031 0.456509 -0.110431
C24   C     C_R   0.548676 0.488061 0.204353 0.114992
C25   C     C_R   0.549882 0.495945 0.132974 -0.069606
C26   C     C_R   0.496065 0.530984 0.091400 0.019655
C27   C     C_R   0.442641 0.561497 0.121958 -0.121807
C28   C     C_R   0.492371 0.508512 0.310996 0.518964
C29   C     C_R   0.441190 0.553910 0.193741 -0.143182
C30   C     C_R   0.537769 0.540418 0.871913 -0.127091
C31   C     C_R   0.538309 0.543106 0.800276 -0.119053
C32   C     C_R   0.484652 0.430523 0.800923 -0.118624
C33   C     C_R   0.484923 0.427501 0.872546 -0.099208
C34   C     C_R   0.429110 0.799057 0.453828 -0.117585
C35   C     C_R   0.510276 0.482856 0.908221 0.041441
C36   C     C_2   0.495189 0.534799 0.015881 -0.123869
C37   C     C_2   0.509044 0.478869 0.983579 0.095316
C38   C     C_R   0.510959 0.488513 0.764312 0.041219
C39   C     C_R   0.508291 0.312366 0.508198 0.599306
C40   C     C_R   0.491211 0.688208 0.491950 0.504478
C41   C     C_R   0.484893 0.763089 0.491911 0.037258
C42   C     C_R   0.533400 0.798822 0.532791 -0.121266
C43   C     C_R   0.526685 0.869493 0.535104 -0.084582
C44   C     C_2   0.085457 0.571397 0.371729 0.570278
C45   C     C_R   0.454682 0.132836 0.473925 -0.161122
C46   C     C_2   0.384670 0.240436 0.452797 0.592797
C47   C     C_2   0.634184 0.234645 0.561212 0.594637
C48   C     C_R   0.450476 0.203677 0.479594 0.017458
C49   C     C_R   0.571533 0.200688 0.530074 0.019010
C50   C     C_R   0.573991 0.129709 0.523306 0.146363
C51   C     C_R   0.515819 0.095776 0.495531 -0.011283
F1    F     F_    0.632269 0.092816 0.546600 -0.132517
F2    F     F_    0.909800 0.592933 0.600288 -0.169750
F3    F     F_    0.901669 0.394378 0.469299 -0.172092
F4    F     F_    0.601944 0.453544 0.242523 -0.155116
F5    F     F_    0.517577 0.415817 0.019882 -0.171649
F6    F     F_    0.581444 0.993876 0.475250 -0.153314
H1    H     H_    0.576429 0.772215 0.563278 0.141857
H2    H     H_    0.463882 0.387462 0.774243 0.145029
H3    H     H_    0.401279 0.589512 0.090206 0.127476
H4    H     H_    0.559309 0.582940 0.898911 0.113335
H5    H     H_    0.398787 0.576869 0.216472 0.150113
H6    H     H_    0.479915 0.583233 0.986265 0.103144
H7    H     H_    0.592950 0.474405 0.110045 0.145469
H8    H     H_    0.464137 0.382485 0.899952 0.139430
H9    H     H_    0.379161 0.897437 0.426918 0.123157
H10   H     H_    0.410702 0.107021 0.449807 0.153286
H11   H     H_    0.390560 0.772357 0.422645 0.142840
H12   H     H_    0.770142 0.413825 0.458793 0.166713
H13   H     H_    0.415432 0.001017 0.505905 0.108235
H14   H     H_    0.564157 0.896038 0.567697 0.142500
H15   H     H_    0.000970 0.629698 0.338157 0.351269
H16   H     H_    0.336940 0.327708 0.408431 0.338753
H17   H     H_    0.738338 0.237592 0.574708 0.345789
H18   H     H_    0.222534 0.556815 0.392937 0.169938
H19   H     H_    0.232481 0.423015 0.582305 0.148966
H20   H     H_    0.987165 0.481997 0.430913 0.180987
H21   H     H_    0.776014 0.590724 0.579070 0.152429
H22   H     H_    0.012667 0.506810 0.584898 0.139267
H23   H     H_    0.106997 0.422057 0.576879 0.129353
H24   H     H_    0.559119 0.588179 0.773026 0.138438
O1    O     O_3   0.500000 0.500000 0.500000 -0.457363
O2    O     O_R   0.467830 0.341070 0.546160 -0.506161
O3    O     O_R   0.450560 0.655630 0.450550 -0.548016
O4    O     O_R   0.545840 0.347670 0.467560 -0.509242
O5    O     O_R   0.535760 0.655640 0.535740 -0.550499
O6    O     O_2   0.109938 0.582396 0.316094 -0.508046
O7    O     O_R   0.021856 0.601279 0.381198 -0.694321
O8    O     O_2   0.329819 0.209779 0.453879 -0.506825
O9    O     O_R   0.385002 0.309083 0.424657 -0.690751
O10   O     O_2   0.628483 0.283135 0.596385 -0.526200
O11   O     O_R   0.699998 0.210471 0.550978 -0.652328
O12   O     O_R   0.545870 0.536170 0.656040 -0.545346
O13   O     O_R   0.450550 0.545430 0.340370 -0.552210
O14   O     O_R   0.347960 0.451240 0.536460 -0.535662
O15   O     O_R   0.655630 0.467150 0.467130 -0.536838
O16   O     O_R   0.340780 0.536140 0.450970 -0.547876
O17   O     O_R   0.655640 0.545460 0.545430 -0.544222
O18   O     O_R   0.467850 0.451260 0.656340 -0.546587
O19   O     O_R   0.535740 0.467130 0.347260 -0.508098
Zn1   Zn    Zn3+2 0.558310 0.558310 0.558290 0.947306
Zn2   Zn    Zn3+2 0.446830 0.436990 0.558720 0.986927
Zn3   Zn    Zn3+2 0.558290 0.446420 0.446420 1.012234
Zn4   Zn    Zn3+2 0.436570 0.558290 0.436570 0.949802

loop_
_geom_bond_atom_site_label_1
_geom_bond_atom_site_label_2
_ccdc_geom_bond_type
C1    C21   S    
O2    Zn2   S    
C4    O17   A    
C27   C29   A    
C47   O11   S    
C40   O3    A    
C19   C20   D    
C2    C12   S    
C42   H1    S    
C33   H8    S    
C7    C8    A    
C47   C49   S    
C46   O8    D    
C24   F4    S    
C12   C23   A    
C16   O12   A    
C13   C18   A    
C14   C21   A    
C36   C37   D    
C22   C29   A    
H16   O9    S    
C12   C43   A    
C27   H3    S    
C30   C31   A    
C45   C51   A    
C40   O5    A    
C28   O13   A    
C41   C42   A    
H17   O11   S    
C10   F2    S    
C4    O15   A    
C37   F5    S    
C9    C19   S    
C8    C9    A    
C45   H10   S    
C50   F1    S    
O1    Zn3   S    
C32   C38   A    
C36   H6    S    
C9    C10   A    
O4    Zn3   S    
O14   Zn2   S    
C28   O19   A    
C15   H19   S    
O13   Zn4   S    
C22   C28   S    
C13   C14   A    
C5    C49   A    
C34   C41   A    
H15   O7    S    
C50   C51   A    
O1    Zn2   S    
C5    C48   A    
C46   C48   S    
C24   C25   A    
C4    C6    S    
C1    O16   A    
C6    C11   A    
O12   Zn1   S    
C25   C26   A    
C17   H23   S    
C25   H7    S    
C11   H21   S    
C1    O14   A    
C23   C34   A    
C17   C18   A    
C26   C27   A    
C19   H22   S    
C20   H20   S    
C26   C36   S    
C40   C41   S    
C5    C39   S    
O3    Zn4   S    
C22   C24   A    
C30   H4    S    
C42   C43   A    
C39   O4    A    
C34   H11   S    
C44   O6    D    
C3    F6    S    
C23   H9    S    
C45   C48   A    
C15   C17   A    
C29   H5    S    
C43   H14   S    
C35   C37   S    
C47   O10   D    
C7    H12   S    
C16   O18   A    
C6    C7    A    
C46   O9    S    
O17   Zn1   S    
C30   C35   A    
C31   H24   S    
C31   C38   A    
C8    F3    S    
C32   C33   A    
C2    C3    D    
C39   O2    A    
C2    H13   S    
C14   H18   S    
C33   C35   A    
O1    Zn1   S    
C3    C51   S    
C18   C20   S    
O19   Zn3   S    
O16   Zn4   S    
C10   C11   A    
C15   C21   A    
O18   Zn2   S    
C49   C50   A    
O15   Zn3   S    
O1    Zn4   S    
C32   H2    S    
C44   O7    S    
O5    Zn1   S    
C13   C44   S    
C16   C38   S    
