data_mof_unit_20253.cif
_audit_creation_date              2012-10-26T20:42:58-0400
_audit_creation_method            fapswitch 2.2
_symmetry_space_group_name_H-M    P1
_symmetry_Int_Tables_number       1
_space_group_crystal_system       triclinic
_cell_length_a                    10.834044
_cell_length_b                    9.50908
_cell_length_c                    15.081298
_cell_angle_alpha                 89.951955
_cell_angle_beta                  90.19252
_cell_angle_gamma                 90.006407
_cell_volume                      1553.693006

loop_
_atom_site_label
_atom_site_type_symbol
_atom_type_description
_atom_site_fract_x
_atom_site_fract_y
_atom_site_fract_z
_atom_type_partial_charge
C1    C     C_R   0.262030 0.499996 0.499939 0.550809
C2    C     C_R   0.128202 0.499995 0.499934 0.019913
C3    C     C_R   0.424040 0.074514 0.444232 0.011135
C4    C     C_R   0.575960 0.925486 0.555767 0.011135
C5    C     C_R   0.575958 0.074392 0.555769 0.010680
C6    C     C_R   0.424041 0.925608 0.444230 0.010680
C7    C     C_R   0.499970 0.500046 0.328577 0.548898
C8    C     C_R   0.500030 0.499954 0.671423 0.548899
C9    C     C_R   0.527962 0.376618 0.814645 -0.136230
C10   C     C_R   0.472039 0.623382 0.185355 -0.136230
C11   C     C_R   0.499505 0.499929 0.768201 -0.025877
C12   C     C_R   0.737970 0.500004 0.500061 0.550809
C13   C     C_R   0.500495 0.500071 0.231798 -0.025877
C14   C     C_R   0.470477 0.623396 0.814198 -0.130290
C15   C     C_R   0.529523 0.376604 0.185802 -0.130290
C16   C     C_R   0.467979 0.624746 0.906928 0.043911
C17   C     C_R   0.532021 0.375254 0.093072 0.043911
C18   C     C_R   0.499232 0.500286 0.953489 0.019050
C19   C     C_R   0.500769 0.499714 0.046511 0.019050
C20   C     C_R   0.529069 0.376217 0.906972 -0.013418
C21   C     C_R   0.470932 0.623783 0.093028 -0.013418
C22   C     C_R   0.436141 0.747741 0.954139 0.134497
C23   C     C_R   0.439291 0.746343 0.046871 -0.127366
C24   C     C_R   0.563860 0.252259 0.045861 0.134498
C25   C     C_3   0.271935 0.877673 0.883894 -0.312847
C26   C     C_3   0.728065 0.122327 0.116107 -0.312847
C27   C     C_R   0.560710 0.253657 0.953129 -0.127366
C28   C     C_R   0.063831 0.372198 0.499570 -0.140746
C29   C     C_R   0.936169 0.627801 0.500430 -0.140746
C30   C     C_R   0.936136 0.372202 0.499655 -0.141923
C31   C     C_R   0.063864 0.627798 0.500345 -0.141923
C32   C     C_R   0.871798 0.500004 0.500066 0.019913
Cu1   Cu    Cu3+1 0.500000 0.640660 0.500000 0.934562
Cu2   Cu    Cu3+1 0.500000 0.359340 0.500000 0.934562
H1    H     H_    0.551087 0.281267 0.778942 0.124940
H2    H     H_    0.111909 0.727711 0.500620 0.126280
H3    H     H_    0.363202 0.130758 0.399594 0.108330
H4    H     H_    0.636798 0.869242 0.600406 0.108330
H5    H     H_    0.636785 0.130540 0.600416 0.104181
H6    H     H_    0.363215 0.869459 0.399584 0.104181
H7    H     H_    0.427622 0.963844 0.941183 0.244066
H8    H     H_    0.212839 0.879003 0.944004 0.141966
H9    H     H_    0.247246 0.785355 0.842375 0.155655
H10   H     H_    0.253781 0.974496 0.844761 0.145712
H11   H     H_    0.572379 0.036156 0.058816 0.244066
H12   H     H_    0.448914 0.718733 0.221058 0.124940
H13   H     H_    0.787162 0.120999 0.055998 0.141967
H14   H     H_    0.746219 0.025503 0.155239 0.145712
H15   H     H_    0.752752 0.214643 0.157627 0.155655
H16   H     H_    0.449201 0.718144 0.777301 0.163707
H17   H     H_    0.550799 0.281856 0.222699 0.163707
H18   H     H_    0.414899 0.840879 0.082941 0.105121
H19   H     H_    0.585102 0.159121 0.917059 0.105121
H20   H     H_    0.111850 0.272284 0.499212 0.126738
H21   H     H_    0.888150 0.727716 0.500788 0.126738
H22   H     H_    0.888091 0.272289 0.499380 0.126280
N1    N     N_R   0.500000 0.852070 0.500000 -0.225107
N2    N     N_R   0.500000 0.147930 0.500000 -0.225107
N3    N     N_2   0.400852 0.873147 0.909020 -0.535994
N4    N     N_2   0.599148 0.126853 0.090980 -0.535994
O1    O     O_R   0.319640 0.618740 0.499990 -0.509926
O2    O     O_R   0.680360 0.381260 0.500010 -0.509926
O3    O     O_R   0.680360 0.618740 0.500010 -0.507732
O4    O     O_R   0.319640 0.381260 0.499990 -0.507732
O5    O     O_R   0.499970 0.618800 0.370260 -0.503962
O6    O     O_R   0.500030 0.381200 0.629740 -0.503962
O7    O     O_R   0.500030 0.618800 0.629740 -0.508733
O8    O     O_R   0.499970 0.381200 0.370260 -0.508733

loop_
_geom_bond_atom_site_label_1
_geom_bond_atom_site_label_2
_ccdc_geom_bond_type
C4    N1    A    
C25   H8    S    
C2    C28   A    
C27   H19   S    
H11   N4    S    
C8    O6    A    
C25   N3    S    
C20   C27   A    
C15   H17   S    
C7    O5    A    
C12   O2    A    
C9    C20   A    
C24   C27   A    
C26   H14   S    
C24   N4    S    
C3    C6    A    
Cu2   O6    S    
C28   C30   A    
Cu1   Cu2   S    
Cu1   O5    S    
C29   C31   A    
Cu2   O2    S    
C12   C32   S    
C30   C32   A    
C9    C11   A    
C6    N1    A    
C25   H9    S    
C23   H18   S    
C14   H16   S    
C26   N4    S    
C26   H13   S    
C8    C11   S    
C5    N2    A    
C25   H10   S    
Cu1   O1    S    
C17   C19   A    
C4    H4    S    
Cu2   O4    S    
C1    C2    S    
C29   C32   A    
C18   C20   A    
C13   C15   A    
C21   C23   A    
C11   C14   A    
C14   C16   A    
Cu1   O3    S    
C17   C24   A    
H7    N3    S    
C9    H1    S    
C3    N2    A    
C5    H5    S    
C10   H12   S    
C7    C13   S    
C6    H6    S    
Cu1   O7    S    
C8    O7    A    
C16   C18   A    
C18   C19   A    
C26   H15   S    
Cu2   O8    S    
C22   N3    S    
Cu2   N2    S    
C12   O3    A    
C28   H20   S    
C31   H2    S    
C2    C31   A    
Cu1   N1    S    
C29   H21   S    
C19   C21   A    
C7    O8    A    
C15   C17   A    
C30   H22   S    
C1    O4    A    
C10   C21   A    
C22   C23   A    
C3    H3    S    
C16   C22   A    
C4    C5    A    
C10   C13   A    
C1    O1    A    
