data_mof_unit_40616.cif
_audit_creation_date              2012-12-10T17:38:16-0500
_audit_creation_method            fapswitch 2.2
_symmetry_space_group_name_H-M    P1
_symmetry_Int_Tables_number       1
_space_group_crystal_system       triclinic
_cell_length_a                    12.00299
_cell_length_b                    12.818313
_cell_length_c                    19.218976
_cell_angle_alpha                 91.045793
_cell_angle_beta                  85.53835
_cell_angle_gamma                 93.546267
_cell_volume                      2942.12063757

loop_
_atom_site_label
_atom_site_type_symbol
_atom_type_description
_atom_site_fract_x
_atom_site_fract_y
_atom_site_fract_z
_atom_type_partial_charge
C1    C     C_R   0.522464 0.700197 0.497320 0.891091
C2    C     C_R   0.541564 0.131298 0.532743 0.421947
C3    C     C_R   0.459243 0.975444 0.478746 0.013429
C4    C     C_R   0.542642 0.024807 0.518751 0.010785
C5    C     C_R   0.954277 0.388906 0.443829 0.278436
C6    C     C_R   0.043761 0.601651 0.563636 0.300214
C7    C     C_R   0.837174 0.402381 0.446482 0.516011
C8    C     C_R   0.161838 0.593258 0.557026 0.491533
C9    C     C_R   0.858297 0.547141 0.524496 -0.140926
C10   C     C_R   0.141867 0.453849 0.474653 -0.137898
C11   C     C_R   0.975459 0.538148 0.521846 -0.129835
C12   C     C_R   0.477686 0.299793 0.501781 0.912207
C13   C     C_R   0.024300 0.460679 0.478973 -0.130096
C14   C     C_R   0.499076 0.497687 0.634309 0.956314
C15   C     C_R   0.500920 0.502276 0.365489 0.921067
C16   C     C_R   0.403545 0.453254 0.750151 0.372706
C17   C     C_R   0.603576 0.532644 0.248705 0.360326
C18   C     C_R   0.400140 0.462942 0.823126 0.340648
C19   C     C_R   0.603270 0.530918 0.176074 0.324397
C20   C     C_R   0.495690 0.505740 0.854611 -0.219065
C21   C     C_R   0.501756 0.512740 0.145015 -0.203786
C22   C     C_R   0.591690 0.542206 0.813388 0.471479
C23   C     C_R   0.463015 0.188539 0.502075 -0.150087
C24   C     C_R   0.400778 0.494830 0.185839 0.462878
C25   C     C_R   0.590200 0.541354 0.741436 -0.393096
C26   C     C_R   0.402044 0.490988 0.257991 -0.386677
C27   C     C_R   0.497302 0.497079 0.709824 -0.259504
C28   C     C_R   0.502797 0.508628 0.289745 -0.281865
C29   C     C_R   0.500947 0.510944 0.069869 0.350660
C30   C     C_R   0.498421 0.507073 0.930187 0.322003
C31   C     C_3   0.223376 0.428386 0.716635 0.150371
C32   C     C_3   0.158024 0.369649 0.661887 -0.829916
C33   C     C_3   0.732427 0.653897 0.286730 0.157025
C34   C     C_R   0.538029 0.811493 0.496033 -0.165144
C35   C     C_3   0.843598 0.668055 0.319727 -0.821757
C36   C     C_3   0.993665 0.219448 0.455179 0.103044
C37   C     C_3   0.040048 0.124836 0.416776 -0.832379
C38   C     C_3   0.975759 0.625124 0.676216 0.063061
C39   C     C_3   0.916793 0.700770 0.726224 -0.790424
C40   C     C_3   0.242634 0.504546 0.889226 0.099212
C41   C     C_3   0.135906 0.458952 0.927952 -0.827810
C42   C     C_3   0.747743 0.450130 0.118565 0.155743
C43   C     C_3   0.873642 0.466323 0.103634 -0.846261
C44   C     C_3   0.755413 0.492244 0.850220 0.103440
C45   C     C_R   0.625892 0.967020 0.543777 -0.176317
C46   C     C_3   0.834613 0.517320 0.907050 -0.836914
C47   C     C_3   0.236053 0.563783 0.165104 0.110713
C48   C     C_3   0.156887 0.565819 0.107290 -0.837551
C49   C     C_3   0.576572 0.199504 0.639615 0.104555
C50   C     C_3   0.664589 0.256729 0.681439 -0.812636
C51   C     C_3   0.425704 0.801938 0.357650 0.113791
C52   C     C_3   0.335451 0.753071 0.313952 -0.831204
C53   C     C_3   0.232190 0.756730 0.590400 0.131905
C54   C     C_3   0.319743 0.811742 0.633722 -0.828242
C55   C     C_3   0.788277 0.320820 0.343765 0.143419
C56   C     C_R   0.375610 0.033136 0.454010 -0.192800
C57   C     C_3   0.686655 0.268737 0.311621 -0.803520
C58   C     C_R   0.623115 0.860337 0.532737 -0.298631
C59   C     C_R   0.377890 0.139721 0.465468 -0.301154
C60   C     C_R   0.460370 0.868956 0.464723 0.392478
H1    H     H_    0.663216 0.573013 0.710250 0.194882
H2    H     H_    0.668044 0.691191 0.321898 0.104834
H3    H     H_    0.741226 0.693926 0.235469 0.165542
H4    H     H_    0.866731 0.752627 0.326591 0.205658
H5    H     H_    0.836746 0.630346 0.371582 0.257430
H6    H     H_    0.910274 0.632042 0.285714 0.246110
H7    H     H_    0.905464 0.198256 0.474781 0.183307
H8    H     H_    0.044573 0.238263 0.500360 0.142440
H9    H     H_    0.038128 0.058154 0.453026 0.212305
H10   H     H_    0.988653 0.102059 0.372690 0.255831
H11   H     H_    0.127849 0.143414 0.396086 0.251883
H12   H     H_    0.324055 0.472972 0.288889 0.202465
H13   H     H_    0.056124 0.607713 0.697468 0.155634
H14   H     H_    0.921278 0.551727 0.673462 0.132997
H15   H     H_    0.834400 0.717204 0.707622 0.256172
H16   H     H_    0.903353 0.666357 0.778900 0.229732
H17   H     H_    0.968763 0.775173 0.729685 0.252100
H18   H     H_    0.219149 0.554134 0.846293 0.097371
H19   H     H_    0.288226 0.555323 0.926456 0.149707
H20   H     H_    0.156882 0.411048 0.972153 0.281558
H21   H     H_    0.084190 0.523079 0.948731 0.207241
H22   H     H_    0.086971 0.408927 0.892056 0.245272
H23   H     H_    0.181405 0.395627 0.441330 0.199015
H24   H     H_    0.710916 0.417025 0.071010 0.138242
H25   H     H_    0.732334 0.392166 0.161421 0.132455
H26   H     H_    0.911833 0.495279 0.151710 0.264884
H27   H     H_    0.909349 0.391176 0.086917 0.208835
H28   H     H_    0.893888 0.524365 0.061664 0.262251
H29   H     H_    0.805311 0.478255 0.800052 0.135810
H30   H     H_    0.705477 0.418581 0.865383 0.131656
H31   H     H_    0.785735 0.534774 0.956877 0.282798
H32   H     H_    0.884645 0.449052 0.914649 0.204840
H33   H     H_    0.892088 0.585941 0.892546 0.249647
H34   H     H_    0.818835 0.606205 0.557117 0.199205
H35   H     H_    0.287221 0.639607 0.163680 0.127479
H36   H     H_    0.186020 0.557062 0.216194 0.149459
H37   H     H_    0.110087 0.488856 0.103236 0.271384
H38   H     H_    0.096818 0.627583 0.118464 0.213647
H39   H     H_    0.205474 0.582511 0.056765 0.253861
H40   H     H_    0.549466 0.124426 0.665945 0.139182
H41   H     H_    0.503675 0.249251 0.639678 0.152388
H42   H     H_    0.694657 0.331236 0.655742 0.268700
H43   H     H_    0.627998 0.274474 0.734899 0.207726
H44   H     H_    0.736701 0.207373 0.685112 0.242861
H45   H     H_    0.232122 0.512814 0.703275 0.157805
H46   H     H_    0.493483 0.746780 0.357676 0.110672
H47   H     H_    0.459376 0.876521 0.332878 0.132835
H48   H     H_    0.267215 0.807211 0.311269 0.249147
H49   H     H_    0.372158 0.737080 0.260307 0.193348
H50   H     H_    0.300189 0.678423 0.337399 0.267839
H51   H     H_    0.316818 0.184779 0.442696 0.178309
H52   H     H_    0.683727 0.815316 0.556042 0.184366
H53   H     H_    0.690999 0.003262 0.573745 0.192808
H54   H     H_    0.310335 0.996875 0.424178 0.194239
H55   H     H_    0.151365 0.789958 0.607317 0.185425
H56   H     H_    0.173647 0.418233 0.767295 0.168638
H57   H     H_    0.252907 0.774900 0.534473 0.193696
H58   H     H_    0.401763 0.776945 0.623175 0.262749
H59   H     H_    0.329193 0.896124 0.620910 0.211572
H60   H     H_    0.293385 0.803534 0.690142 0.242538
H61   H     H_    0.858486 0.269865 0.330839 0.185194
H62   H     H_    0.808785 0.398420 0.319452 0.181490
H63   H     H_    0.612932 0.316132 0.322064 0.261844
H64   H     H_    0.704374 0.260104 0.254338 0.190387
H65   H     H_    0.666690 0.190010 0.334220 0.248848
H66   H     H_    0.139620 0.287016 0.677523 0.250526
H67   H     H_    0.077790 0.406351 0.656559 0.175989
H68   H     H_    0.207690 0.370882 0.610760 0.282234
N1    N     N_R   0.449854 0.426344 0.968309 -0.126315
N2    N     N_R   0.550453 0.591310 0.031933 -0.148041
N3    N     N_R   0.450773 0.428401 0.037239 -0.133826
N4    N     N_R   0.548795 0.589539 0.963005 -0.127290
N5    N     N_R   0.207800 0.519350 0.512860 -0.159712
N6    N     N_R   0.792200 0.480650 0.487140 -0.158830
O1    O     O_R   0.421690 0.658830 0.503430 -0.552150
O2    O     O_3   0.704717 0.546123 0.278521 -0.595944
O3    O     O_3   0.999564 0.304311 0.408902 -0.636103
O4    O     O_3   0.995038 0.672032 0.610194 -0.631412
O5    O     O_3   0.307422 0.421759 0.863103 -0.569846
O6    O     O_3   0.703293 0.547635 0.135935 -0.589205
O7    O     O_3   0.688153 0.577749 0.843436 -0.584719
O8    O     O_3   0.301665 0.476327 0.154282 -0.582905
O9    O     O_3   0.623266 0.180706 0.571113 -0.608262
O10   O     O_3   0.378910 0.819866 0.426099 -0.629448
O11   O     O_3   0.230147 0.647944 0.601872 -0.611085
O12   O     O_R   0.578310 0.341170 0.496570 -0.513513
O13   O     O_3   0.764689 0.328989 0.416794 -0.575652
O14   O     O_R   0.609320 0.646410 0.495180 -0.645105
O15   O     O_R   0.390680 0.353590 0.504820 -0.652644
O16   O     O_R   0.406160 0.506220 0.605990 -0.561475
O17   O     O_R   0.593840 0.493780 0.394010 -0.557699
O18   O     O_R   0.593780 0.493810 0.597740 -0.643726
O19   O     O_R   0.406220 0.506190 0.402260 -0.632673
O20   O     O_3   0.328084 0.384609 0.718711 -0.593273
Zn1   Zn    Zn3+2 0.374720 0.508290 0.505510 0.977490
Zn2   Zn    Zn3+2 0.625280 0.491710 0.494490 0.992677

loop_
_geom_bond_atom_site_label_1
_geom_bond_atom_site_label_2
_ccdc_geom_bond_type
C55   H61   S    
C50   H44   S    
C37   H9    S    
C26   H12   S    
N2    N4    A    
C8    O11   S    
C10   N5    A    
C41   H20   S    
C15   O17   A    
C36   H7    S    
C20   C30   S    
C53   C54   S    
C23   C59   A    
C48   H37   S    
C12   C23   S    
C58   H52   S    
C43   H28   S    
C39   H17   S    
C32   H67   S    
C36   C37   S    
C19   C21   A    
C24   C26   A    
C54   H60   S    
C57   H65   S    
C38   C39   S    
C53   H57   S    
C46   H32   S    
C35   H5    S    
C32   H66   S    
C40   O5    S    
C10   H23   S    
O1    Zn1   S    
C12   O12   A    
C17   C19   A    
N6    Zn2   S    
O18   Zn2   S    
C24   O8    S    
C33   H2    S    
C22   C25   A    
C59   H51   S    
C47   H36   S    
C35   H4    S    
C39   H15   S    
C14   C27   S    
O19   Zn1   S    
C36   O3    S    
C5    C13   A    
C9    N6    A    
C16   C27   A    
C55   H62   S    
C50   H43   S    
C37   H10   S    
C34   C60   A    
C2    O9    S    
C31   H45   S    
C44   C46   S    
C1    C34   S    
C7    O13   S    
C4    C45   A    
C45   C58   A    
C15   O19   A    
C42   O6    S    
C51   C52   S    
C42   H24   S    
C7    N6    A    
C6    C11   A    
C5    C7    A    
C19   O6    S    
C6    C8    A    
C46   H31   S    
C35   H6    S    
C51   O10   S    
C21   C29   S    
C6    O4    S    
C2    C4    A    
C55   C57   S    
C45   H53   S    
C57   H63   S    
C3    C56   A    
C55   O13   S    
C47   C48   S    
C47   O8    S    
C52   H50   S    
C33   H3    S    
C41   H21   S    
C14   O16   A    
C17   O2    S    
C53   O11   S    
C38   O4    S    
C40   H19   S    
C42   H25   S    
C25   H1    S    
C39   H16   S    
C9    C11   A    
C16   C18   A    
C40   C41   S    
C20   C22   A    
C50   H42   S    
O16   Zn1   S    
C37   H11   S    
C16   O20   S    
C40   H18   S    
C42   C43   S    
C3    C4    A    
C31   H56   S    
C31   O20   S    
C44   H30   S    
C38   H14   S    
C48   H39   S    
C47   H35   S    
C49   H40   S    
C8    N5    A    
N5    Zn1   S    
C17   C28   A    
C12   O15   A    
C31   C32   S    
C10   C13   A    
C36   H8    S    
C5    O3    S    
C25   C27   A    
C30   N1    A    
C48   H38   S    
C26   C28   A    
C56   C59   A    
C43   H27   S    
C32   H68   S    
C54   H58   S    
O15   Zn1   S    
C1    O1    A    
C3    C60   A    
C57   H64   S    
C49   H41   S    
C11   C13   A    
C33   O2    S    
C15   C28   S    
C29   N3    A    
C46   H33   S    
C52   H49   S    
C51   H46   S    
C30   N4    A    
C41   H22   S    
C49   O9    S    
C22   O7    S    
C33   C35   S    
C18   C20   A    
C18   O5    S    
C43   H26   S    
C29   N2    A    
O17   Zn2   S    
O12   Zn2   S    
C52   H48   S    
C51   H47   S    
C49   C50   S    
C21   C24   A    
C14   O18   A    
C2    C23   A    
C34   C58   A    
C56   H54   S    
C1    O14   A    
C44   O7    S    
O14   Zn2   S    
C54   H59   S    
C9    H34   S    
C60   O10   S    
C44   H29   S    
C53   H55   S    
N1    N3    A    
C38   H13   S    
