data_mof_unit_36428.cif
_audit_creation_date              2012-12-11T15:29:50-0500
_audit_creation_method            fapswitch 2.2
_symmetry_space_group_name_H-M    P1
_symmetry_Int_Tables_number       1
_space_group_crystal_system       triclinic
_cell_length_a                    13.484519
_cell_length_b                    13.492712
_cell_length_c                    27.556661
_cell_angle_alpha                 90.707808
_cell_angle_beta                  90.01389
_cell_angle_gamma                 60.037045
_cell_volume                      4343.20797466

loop_
_atom_site_label
_atom_site_type_symbol
_atom_type_description
_atom_site_fract_x
_atom_site_fract_y
_atom_site_fract_z
_atom_type_partial_charge
C1    C     C_R   0.620337 0.101389 0.569847 0.545867
C2    C     C_1   0.649645 0.704537 0.657785 -0.058821
C3    C     C_3   0.090757 0.132907 0.737289 -0.101862
C4    C     C_R   0.599726 0.779301 0.568448 0.546653
C5    C     C_3   0.182998 0.059061 0.775009 -0.100248
C6    C     C_1   0.098124 0.199516 0.900326 -0.014220
C7    C     C_1   0.229268 0.138120 0.617031 -0.016647
C8    C     C_3   0.055603 0.241140 0.769053 -0.101602
C9    C     C_3   0.148278 0.167125 0.805912 0.052607
C10   C     C_3   0.144173 0.262200 0.742297 -0.099122
C11   C     C_3   0.178928 0.154257 0.711311 0.052686
C12   C     C_1   0.631217 0.731834 0.615895 -0.016091
C13   C     C_3   0.236374 0.188448 0.779863 -0.101847
C14   C     C_3   0.271634 0.080194 0.748145 -0.102847
C15   C     C_1   0.125957 0.180212 0.858232 -0.058972
C16   C     C_R   0.277582 0.121819 0.569342 0.547223
C17   C     C_1   0.201299 0.146922 0.659054 -0.059045
C18   C     C_3   0.628691 0.276942 0.739211 -0.101674
C19   C     C_3   0.554796 0.257994 0.777036 -0.099970
C20   C     C_1   0.691615 0.206207 0.901458 -0.016450
C21   C     C_1   0.635454 0.133760 0.617768 -0.016183
C22   C     C_3   0.736811 0.204266 0.770030 -0.101497
C23   C     C_3   0.699269 0.560832 0.766821 -0.101581
C24   C     C_3   0.662756 0.185046 0.807011 0.052883
C25   C     C_3   0.758605 0.094586 0.742353 -0.099318
C26   C     C_3   0.650738 0.167409 0.712311 0.052625
C27   C     C_3   0.684795 0.075585 0.780058 -0.102091
C28   C     C_R   0.622093 0.100115 0.431515 0.539964
C29   C     C_3   0.576646 0.148193 0.749267 -0.102967
C30   C     C_1   0.674530 0.195325 0.859360 -0.058964
C31   C     C_1   0.643751 0.152744 0.659940 -0.058983
C32   C     C_R   0.617267 0.757934 0.377445 0.037020
C33   C     C_R   0.725064 0.682556 0.357712 -0.132601
C34   C     C_3   0.679662 0.654346 0.804380 0.052738
C35   C     C_R   0.739600 0.673135 0.307386 -0.115616
C36   C     C_R   0.647297 0.742287 0.276858 0.029549
C37   C     C_R   0.541656 0.822154 0.297289 -0.127158
C38   C     C_R   0.526323 0.828333 0.347013 -0.114719
C39   C     C_R   0.565108 0.722998 0.199350 -0.117701
C40   C     C_R   0.599221 0.781196 0.429185 0.534060
C41   C     C_R   0.579018 0.684112 0.151771 -0.124683
C42   C     C_R   0.772940 0.651707 0.151456 -0.115146
C43   C     C_R   0.758645 0.691712 0.199190 -0.119845
C44   C     C_R   0.656377 0.722513 0.224131 0.033706
C45   C     C_3   0.590066 0.648546 0.739984 -0.099244
C46   C     C_R   0.685017 0.642258 0.128412 0.019985
C47   C     C_R   0.249702 0.128701 0.379434 0.023468
C48   C     C_R   0.191884 0.075174 0.360116 -0.141860
C49   C     C_R   0.173481 0.077749 0.310137 -0.120343
C50   C     C_R   0.215651 0.131229 0.279711 0.033500
C51   C     C_R   0.279573 0.177728 0.299048 -0.129067
C52   C     C_R   0.282321 0.118708 0.430161 0.535591
C53   C     C_R   0.294543 0.178385 0.348426 -0.124256
C54   C     C_R   0.139054 0.265090 0.212576 -0.120154
C55   C     C_R   0.106052 0.292266 0.164808 0.217808
C56   C     C_3   0.663619 0.683073 0.709933 0.052750
C57   C     C_R   0.149752 0.095105 0.149781 0.210885
C58   C     C_R   0.189644 0.068292 0.197565 -0.129441
C59   C     C_R   0.181025 0.154024 0.229096 -0.055203
C60   C     C_R   0.106131 0.208498 0.133392 0.038094
C61   C     C_R   0.641483 0.138433 0.384793 0.023388
C62   C     C_R   0.551161 0.234734 0.362929 -0.134273
C63   C     C_R   0.556026 0.254070 0.313865 -0.126015
C64   C     C_3   0.772700 0.595756 0.735983 -0.101532
C65   C     C_R   0.652708 0.179283 0.286259 0.037648
C66   C     C_R   0.747484 0.089445 0.309186 -0.119079
C67   C     C_3   0.570674 0.741596 0.778270 -0.101902
C68   C     C_R   0.741722 0.068731 0.358105 -0.123543
C69   C     C_R   0.706509 0.097243 0.202561 -0.122557
C70   C     C_R   0.720036 0.110233 0.153469 -0.135273
C71   C     C_R   0.618937 0.316340 0.164878 -0.131306
C72   C     C_R   0.607011 0.303399 0.214048 -0.127821
C73   C     C_R   0.654321 0.193598 0.233564 0.032906
C74   C     C_R   0.680147 0.219607 0.134785 0.023395
C75   C     C_R   0.050125 0.234618 0.948021 0.546085
C76   C     C_3   0.753340 0.688848 0.774404 -0.100400
C77   C     C_R   0.712030 0.561795 0.946415 0.545458
C78   C     C_3   0.644028 0.776599 0.747483 -0.102998
C79   C     C_R   0.722580 0.223917 0.949152 0.545033
C80   C     C_R   0.047832 0.244106 0.086455 0.585590
C81   C     C_R   0.708620 0.573316 0.084062 0.544258
C82   C     C_R   0.719352 0.233450 0.087351 0.537411
C83   C     C_1   0.697480 0.607279 0.898629 -0.016060
C84   C     C_3   0.152631 0.429476 0.145613 0.016968
C85   C     C_3   0.125903 0.534846 0.176592 -0.271228
C86   C     C_3   0.220919 0.564662 0.172527 -0.491486
C87   C     C_3   0.093379 0.964634 0.131150 0.023313
C88   C     C_3   0.109117 0.872451 0.094156 -0.239619
C89   C     C_1   0.688492 0.633470 0.856591 -0.059264
C90   C     C_3   0.027725 0.827162 0.104114 -0.494366
Cr1   Cr    Cr6+3 0.417550 0.169090 0.500530 1.018901
Cr2   Cr    Cr6+3 0.669180 0.913420 0.499920 1.025266
Cr3   Cr    Cr6+3 0.413260 0.917540 0.499520 1.022207
Cr4   Cr    Cr6+3 0.909770 0.175810 0.018240 1.024887
Cr5   Cr    Cr6+3 0.913300 0.427650 0.016090 1.031039
Cr6   Cr    Cr6+3 0.657770 0.431010 0.016900 1.017186
H1    H     H_    0.820075 0.705853 0.789190 0.103702
H2    H     H_    0.796727 0.630622 0.381056 0.108348
H3    H     H_    0.855465 0.535599 0.718104 0.103275
H4    H     H_    0.485416 0.745384 0.217638 0.101823
H5    H     H_    0.509328 0.679038 0.134645 0.132511
H6    H     H_    0.821767 0.609942 0.292439 0.110903
H7    H     H_    0.829156 0.693385 0.217244 0.098817
H8    H     H_    0.855022 0.621485 0.133807 0.155599
H9    H     H_    0.443830 0.891112 0.361871 0.140064
H10   H     H_    0.160338 0.033037 0.383575 0.114665
H11   H     H_    0.130405 0.332382 0.237118 0.125693
H12   H     H_    0.296461 0.210829 0.797810 0.103090
H13   H     H_    0.621230 0.865698 0.738895 0.100555
H14   H     H_    0.123649 0.041677 0.295487 0.104113
H15   H     H_    0.227918 0.981047 0.210029 0.111124
H16   H     H_    0.314960 0.216998 0.275926 0.107400
H17   H     H_    0.344149 0.215415 0.362223 0.132328
H18   H     H_    0.473287 0.290880 0.382828 0.122510
H19   H     H_    0.739949 0.011752 0.216516 0.106488
H20   H     H_    0.765506 0.034965 0.130549 0.111713
H21   H     H_    0.481852 0.324163 0.297158 0.096903
H22   H     H_    0.566515 0.379119 0.237098 0.106275
H23   H     H_    0.127737 0.345844 0.728298 0.104192
H24   H     H_    0.487847 0.801751 0.796111 0.103442
H25   H     H_    0.588027 0.401814 0.151297 0.132722
H26   H     H_    0.824770 0.033093 0.288969 0.097959
H27   H     H_    0.813165 0.994701 0.374240 0.128614
H28   H     H_    0.721980 0.471755 0.775400 0.098706
H29   H     H_    0.199391 0.975505 0.789086 0.104036
H30   H     H_    0.030667 0.110602 0.719298 0.103031
H31   H     H_    0.360870 0.013734 0.738907 0.100652
H32   H     H_    0.470932 0.324788 0.791914 0.104033
H33   H     H_    0.470161 0.878900 0.274799 0.114697
H34   H     H_    0.966381 0.307692 0.778257 0.099333
H35   H     H_    0.157303 0.448955 0.106893 0.155915
H36   H     H_    0.239320 0.357776 0.155419 0.115995
H37   H     H_    0.043864 0.608832 0.164574 0.157132
H38   H     H_    0.116271 0.518217 0.215205 0.156066
H39   H     H_    0.303193 0.492847 0.185629 0.148225
H40   H     H_    0.198637 0.641847 0.195088 0.139933
H41   H     H_    0.231472 0.582823 0.134252 0.148656
H42   H     H_    0.001826 0.033535 0.131786 0.166524
H43   H     H_    0.116842 0.924495 0.167494 0.104620
H44   H     H_    0.093204 0.908370 0.057021 0.181727
H45   H     H_    0.606132 0.359429 0.721937 0.102689
H46   H     H_    0.198821 0.800416 0.095702 0.159670
H47   H     H_    0.034221 0.800194 0.142431 0.138840
H48   H     H_    0.049750 0.752358 0.079988 0.144625
H49   H     H_    0.938416 0.894306 0.096619 0.155023
H50   H     H_    0.523284 0.631514 0.725267 0.104321
H51   H     H_    0.510479 0.125060 0.740092 0.100483
H52   H     H_    0.707423 0.993037 0.797295 0.102965
H53   H     H_    0.842541 0.027760 0.727538 0.104129
H54   H     H_    0.803063 0.227304 0.779170 0.099339
O1    O     O_R   0.301780 0.195490 0.553940 -0.505217
O2    O     O_R   0.636050 0.541380 0.962520 -0.506279
O3    O     O_R   0.666480 0.323610 0.968170 -0.494014
O4    O     O_R   0.522450 0.158840 0.550250 -0.493426
O5    O     O_R   0.817280 0.156800 0.072180 -0.531034
O6    O     O_R   0.005110 0.187160 0.067410 -0.478062
O7    O     O_R   0.026450 0.340060 0.069950 -0.479554
O8    O     O_R   0.808300 0.527240 0.065170 -0.493877
O9    O     O_R   0.634070 0.548770 0.069460 -0.525839
O10   O     O_R   0.664650 0.330470 0.067300 -0.503911
O11   O     O_3   0.826940 0.344820 0.017080 -0.251067
O12   O     O_R   0.658840 0.818280 0.449970 -0.496512
O13   O     O_R   0.694460 0.003360 0.553820 -0.507019
O14   O     O_R   0.657750 0.819520 0.549120 -0.494158
O15   O     O_R   0.501990 0.803120 0.552700 -0.505456
O16   O     O_R   0.318230 0.023430 0.549370 -0.493143
O17   O     O_R   0.302950 0.194150 0.446980 -0.520780
O18   O     O_R   0.523540 0.157600 0.451100 -0.509673
O19   O     O_R   0.695630 0.002030 0.446860 -0.516379
O20   O     O_3   0.062685 0.404532 0.150637 -0.555720
O21   O     O_3   0.164306 0.009210 0.117512 -0.561569
O22   O     O_R   0.503160 0.801780 0.445740 -0.518257
O23   O     O_R   0.319320 0.022190 0.450230 -0.506583
O24   O     O_3   0.499990 0.000010 0.499990 -0.248268
O25   O     O_R   0.819250 0.149410 0.965240 -0.509488
O26   O     O_R   0.006940 0.180310 0.968270 -0.493867
O27   O     O_R   0.028420 0.332670 0.963010 -0.513015
O28   O     O_R   0.810130 0.520390 0.966030 -0.497864

loop_
_geom_bond_atom_site_label_1
_geom_bond_atom_site_label_2
_ccdc_geom_bond_type
C66   C68   A    
C87   C88   S    
C63   C65   A    
Cr3   O22   S    
C1    C21   S    
C51   H16   S    
C23   C45   S    
C27   C29   S    
Cr5   O8    S    
C16   O1    A    
Cr3   O24   S    
C35   C36   A    
C18   C26   S    
C24   C27   S    
C35   H6    S    
C2    C12   T    
C22   H54   S    
C80   O7    A    
C3    H30   S    
C56   C78   S    
C6    C75   S    
C39   C41   A    
C20   C30   T    
C85   C86   S    
C4    O15   A    
C40   O12   A    
C21   C31   T    
C72   H22   S    
C27   H52   S    
Cr4   O26   S    
C54   H11   S    
C81   O9    A    
C50   C59   S    
Cr1   O17   S    
C36   C37   A    
C76   C78   S    
C62   H18   S    
C90   H49   S    
C84   O20   S    
Cr5   O11   S    
C52   O17   A    
C63   H21   S    
C11   C14   S    
C77   C83   S    
Cr6   O2    S    
C19   H32   S    
C65   C73   S    
Cr6   O11   S    
C68   H27   S    
C25   H53   S    
C33   H2    S    
C42   C46   A    
C9    C13   S    
C88   H44   S    
C10   H23   S    
C86   H41   S    
C6    C15   T    
Cr5   O27   S    
C64   H3    S    
C48   H10   S    
Cr6   O3    S    
C45   C56   S    
C16   O16   A    
C8    C9    S    
C7    C17   T    
C22   C25   S    
C70   C74   A    
C41   C46   A    
C66   H26   S    
C69   C73   A    
C32   C38   A    
C4    C12   S    
C67   H24   S    
C55   O20   S    
C90   H47   S    
C85   H38   S    
C47   C53   A    
C28   C61   S    
Cr2   O14   S    
Cr3   O15   S    
C26   C31   S    
C18   C22   S    
C55   C60   A    
C1    O4    A    
C67   C78   S    
C74   C82   S    
C13   H12   S    
C77   O2    A    
C88   H46   S    
C53   H17   S    
C80   O6    A    
C43   H7    S    
C54   C59   A    
C83   C89   T    
C45   H50   S    
C79   O25   A    
Cr1   O18   S    
C84   C85   S    
Cr1   O4    S    
C3    C8    S    
C56   C64   S    
Cr4   O5    S    
C57   C60   A    
C70   H20   S    
C76   H1    S    
C84   H36   S    
C14   H31   S    
C58   H15   S    
Cr1   O24   S    
C51   C53   A    
C43   C44   A    
C5    C9    S    
C37   C38   A    
C79   O3    A    
C46   C81   S    
C82   O10   A    
C86   H39   S    
Cr5   O28   S    
C47   C48   A    
Cr2   O19   S    
C23   C34   S    
C87   O21   S    
C62   C63   A    
C4    O14   A    
C50   C51   A    
C64   C76   S    
Cr4   O11   S    
C5    C14   S    
C47   C52   S    
C82   O5    A    
Cr2   O13   S    
C86   H40   S    
C23   C64   S    
Cr6   O10   S    
C88   C90   S    
Cr3   O16   S    
C49   C50   A    
C8    H34   S    
C22   C24   S    
C36   C44   S    
C8    C10   S    
C42   C43   A    
C39   C44   A    
C5    H29   S    
C19   C29   S    
C40   O22   A    
Cr2   O12   S    
C54   C55   A    
C7    C16   S    
C81   O8    A    
C20   C79   S    
C60   C80   S    
C75   O26   A    
Cr5   O7    S    
C58   C59   A    
C71   H25   S    
C18   H45   S    
C11   C17   S    
C87   H43   S    
C72   C73   A    
C3    C5    S    
C10   C13   S    
C42   H8    S    
C34   C67   S    
C29   H51   S    
C71   C74   A    
C45   C67   S    
C25   C27   S    
C69   H19   S    
Cr4   O25   S    
C84   H35   S    
C77   O28   A    
Cr2   O24   S    
C32   C33   A    
C38   H9    S    
C61   C62   A    
C19   C24   S    
C25   C26   S    
C34   C89   S    
C71   C72   A    
C2    C56   S    
Cr1   O1    S    
C61   C68   A    
C39   H4    S    
C48   C49   A    
Cr3   O23   S    
C33   C35   A    
C41   H5    S    
C78   H13   S    
C32   C40   S    
C9    C15   S    
C69   C70   A    
C75   O27   A    
C24   C30   S    
C3    C11   S    
C10   C11   S    
C28   O18   A    
C28   O19   A    
Cr6   O9    S    
C1    O13   A    
C26   C29   S    
Cr4   O6    S    
C65   C66   A    
C34   C76   S    
C18   C19   S    
C87   H42   S    
C57   C58   A    
C13   C14   S    
C23   H28   S    
C52   O23   A    
C37   H33   S    
C90   H48   S    
C85   H37   S    
C49   H14   S    
C57   O21   S    
