data_mof_unit_61934.cif
_audit_creation_date              2013-03-05T16:11:28-0500
_audit_creation_method            fapswitch 2.2
_symmetry_space_group_name_H-M    P1
_symmetry_Int_Tables_number       1
_space_group_crystal_system       triclinic
_cell_length_a                    37.280121
_cell_length_b                    30.258301
_cell_length_c                    21.673163
_cell_angle_alpha                 89.999172
_cell_angle_beta                  125.64301
_cell_angle_gamma                 90.004691
_cell_volume                      19868.0356028

loop_
_atom_site_label
_atom_site_type_symbol
_atom_site_description
_atom_site_fract_x
_atom_site_fract_y
_atom_site_fract_z
_atom_type_partial_charge
O1    O     O_R   0.434530 0.536960 0.934530 -0.617918
O2    O     O_R   0.565470 0.536960 0.065470 -0.617904
O3    O     O_R   0.934530 0.036960 0.934530 -0.617919
O4    O     O_R   0.065470 0.036960 0.065470 -0.617930
O5    O     O_R   0.434530 0.463040 0.934530 -0.596716
O6    O     O_R   0.565470 0.463040 0.065470 -0.596701
O7    O     O_R   0.934530 0.963040 0.934530 -0.596717
O8    O     O_R   0.065470 0.963040 0.065470 -0.596707
C1    C     C_R   0.413679 0.499964 0.913904 0.944986
C2    C     C_R   0.586324 0.499970 0.086082 0.944983
C3    C     C_R   0.913678 0.999964 0.913904 0.945011
C4    C     C_R   0.086322 0.999967 0.086095 0.945014
O9    O     O_R   0.500010 0.536960 0.909550 -0.566303
O10   O     O_R   0.499990 0.536960 0.090450 -0.566448
O11   O     O_R   0.000010 0.036960 0.909550 -0.566360
O12   O     O_R   0.999990 0.036960 0.090450 -0.566357
O13   O     O_R   0.500010 0.463040 0.909550 -0.590600
O14   O     O_R   0.499990 0.463040 0.090450 -0.590447
O15   O     O_R   0.000010 0.963040 0.909550 -0.590571
O16   O     O_R   0.999990 0.963040 0.090450 -0.590571
C5    C     C_R   0.503206 0.500224 0.884007 0.888220
C6    C     C_R   0.496794 0.500223 0.115993 0.888223
C7    C     C_R   0.003205 0.000224 0.884005 0.888244
C8    C     C_R   0.996796 0.000223 0.115995 0.888251
Zn1   Zn    Zn3+2 0.500000 0.549350 0.000000 1.152996
Zn2   Zn    Zn3+2 1.000000 0.049350 0.000000 1.152996
Zn3   Zn    Zn3+2 0.500000 0.450640 0.000000 1.163255
Zn4   Zn    Zn3+2 0.000000 0.950640 0.000000 1.163152
C9    C     C_R   0.000060 0.273834 0.500064 -0.209623
C10   C     C_R   0.500005 0.773836 0.500008 -0.209464
C11   C     C_R   0.029107 0.296482 0.490483 0.634125
C12   C     C_R   0.971003 0.296459 0.509638 0.634065
C13   C     C_R   0.529258 0.796479 0.490929 0.634025
C14   C     C_R   0.470751 0.796471 0.509085 0.634027
C15   C     C_R   0.000031 0.365644 0.500032 -0.428486
C16   C     C_R   0.500002 0.865649 0.500003 -0.428236
C17   C     C_R   0.029887 0.342530 0.491534 0.145124
C18   C     C_R   0.970196 0.342504 0.508554 0.144973
C19   C     C_R   0.530041 0.842529 0.491980 0.145014
C20   C     C_R   0.469964 0.842521 0.508029 0.145009
C21   C     C_2   0.533196 0.468581 0.748973 0.285837
C22   C     C_2   0.466803 0.468576 0.251027 0.285884
C23   C     C_2   0.033197 0.968586 0.748975 0.286086
C24   C     C_2   0.966801 0.968581 0.251024 0.286089
C25   C     C_2   0.498950 0.485913 0.683093 -0.386441
C26   C     C_2   0.501049 0.485913 0.316907 -0.386439
C27   C     C_2   0.998950 0.985914 0.683092 -0.386616
C28   C     C_2   0.001049 0.985912 0.316908 -0.386621
H1    H     H_    0.468463 0.493952 0.676516 0.171252
H2    H     H_    0.531537 0.493955 0.323485 0.171235
H3    H     H_    0.968461 0.993948 0.676512 0.171205
H4    H     H_    0.031539 0.993948 0.323489 0.171202
C29   C     C_2   0.530823 0.467588 0.814680 0.125252
C30   C     C_2   0.469177 0.467582 0.185322 0.125188
C31   C     C_2   0.030823 0.967592 0.814680 0.125131
C32   C     C_2   0.969175 0.967587 0.185320 0.125130
C33   C     C_2   0.513230 0.502427 0.828154 -0.048301
C34   C     C_2   0.486771 0.502424 0.171846 -0.048331
C35   C     C_2   0.013224 0.002427 0.828148 -0.048187
C36   C     C_2   0.986777 0.002424 0.171853 -0.048184
C37   C     C_R   0.296952 0.458469 0.801155 0.302883
C38   C     C_R   0.703056 0.458547 0.197393 0.302008
C39   C     C_R   0.796951 0.958471 0.801207 0.302875
C40   C     C_R   0.203046 0.958489 0.198773 0.302860
C41   C     C_R   0.342912 0.459363 0.844753 -0.194348
C42   C     C_R   0.657090 0.459407 0.153834 -0.193433
C43   C     C_R   0.842911 0.959364 0.844802 -0.194326
C44   C     C_R   0.157086 0.959377 0.155178 -0.194296
H5    H     H_    0.360903 0.428438 0.862019 0.231720
H6    H     H_    0.639080 0.428488 0.135506 0.232486
H7    H     H_    0.860903 0.928438 0.862104 0.231737
H8    H     H_    0.139092 0.928448 0.137862 0.231747
C45   C     C_R   0.365679 0.499703 0.867355 -0.194840
C46   C     C_R   0.634330 0.499732 0.132579 -0.195431
C47   C     C_R   0.865679 0.999704 0.867358 -0.194852
C48   C     C_R   0.134322 0.999714 0.132641 -0.194856
C49   C     C_R   0.342433 0.539615 0.846248 -0.224668
C50   C     C_R   0.657589 0.539668 0.154984 -0.225010
C51   C     C_R   0.842432 0.039617 0.846207 -0.224668
C52   C     C_R   0.157571 0.039630 0.153809 -0.224689
H9    H     H_    0.359496 0.571073 0.863331 0.221348
H10   H     H_    0.640537 0.571119 0.138987 0.221382
H11   H     H_    0.859495 0.071075 0.863253 0.221349
H12   H     H_    0.140510 0.071087 0.136777 0.221345
C53   C     C_R   0.296778 0.539327 0.802306 0.679502
C54   C     C_R   0.703245 0.539406 0.198909 0.679990
C55   C     C_R   0.796777 0.039330 0.802265 0.679493
C56   C     C_R   0.203227 0.039348 0.197752 0.679507
C57   C     C_R   0.273980 0.499060 0.779255 -0.068568
C58   C     C_R   0.726035 0.499148 0.220627 -0.068585
C59   C     C_R   0.773979 0.999063 0.779261 -0.068562
C60   C     C_R   0.226021 0.999083 0.220740 -0.068561
C61   C     C_R   0.202974 0.514632 0.757750 -0.177621
C62   C     C_R   0.797060 0.515198 0.242492 -0.177890
C63   C     C_R   0.702972 0.014666 0.757734 -0.177573
C64   C     C_R   0.297033 0.014699 0.242280 -0.177577
H13   H     H_    0.220348 0.525140 0.816343 0.233056
H14   H     H_    0.779701 0.526106 0.184108 0.232738
H15   H     H_    0.720346 0.025200 0.816314 0.233077
H16   H     H_    0.279661 0.025244 0.183707 0.233076
C65   C     C_R   0.157270 0.514989 0.711082 0.625121
C66   C     C_R   0.842767 0.515527 0.289197 0.625027
C67   C     C_R   0.657268 0.015024 0.711064 0.625035
C68   C     C_R   0.342736 0.015050 0.288949 0.625029
C69   C     C_R   0.134539 0.501022 0.635092 -0.449914
C70   C     C_R   0.865469 0.501066 0.364916 -0.449957
C71   C     C_R   0.634538 0.001025 0.635091 -0.449738
C72   C     C_R   0.365462 0.001033 0.364910 -0.449748
C73   C     C_R   0.158275 0.487449 0.606369 0.560272
C74   C     C_R   0.841715 0.487033 0.393365 0.560068
C75   C     C_R   0.658274 0.987419 0.606385 0.560484
C76   C     C_R   0.341723 0.987419 0.393608 0.560461
C77   C     C_R   0.204054 0.487063 0.653557 0.645186
C78   C     C_R   0.795934 0.486633 0.346122 0.645327
C79   C     C_R   0.704053 0.987033 0.653574 0.645158
C80   C     C_R   0.295944 0.987040 0.346420 0.645150
C81   C     C_R   0.226215 0.500282 0.729256 -0.165678
C82   C     C_R   0.773797 0.500352 0.270674 -0.165010
C83   C     C_R   0.726214 0.000283 0.729259 -0.165706
C84   C     C_R   0.273786 0.000307 0.270745 -0.165701
O17   O     O_R   0.536960 0.434530 0.536970 -0.614721
O18   O     O_R   0.463040 0.434530 0.463030 -0.614720
O19   O     O_R   0.036960 0.934530 0.536970 -0.614689
O20   O     O_R   0.963040 0.934530 0.463030 -0.614699
C85   C     C_R   0.499998 0.413709 0.499998 0.956666
C86   C     C_R   0.999998 0.913709 0.499998 0.956683
O21   O     O_R   0.536950 0.500000 0.627420 -0.557216
O22   O     O_R   0.463050 0.500000 0.372580 -0.557201
O23   O     O_R   0.036950 0.000000 0.627420 -0.556925
O24   O     O_R   0.963050 0.000000 0.372580 -0.556919
O25   O     O_R   0.463030 0.500000 0.553490 -0.618301
O26   O     O_R   0.536970 0.500000 0.446510 -0.618332
O27   O     O_R   0.963030 0.000000 0.553490 -0.618488
O28   O     O_R   0.036970 0.000000 0.446510 -0.618496
C87   C     C_R   0.499940 0.495651 0.618641 1.012299
C88   C     C_R   0.500060 0.495652 0.381359 1.012292
C89   C     C_R   0.999940 0.995655 0.618642 1.011888
C90   C     C_R   0.000060 0.995654 0.381358 1.011880
Zn5   Zn    Zn3+2 0.549360 0.500000 0.549360 1.163632
Zn6   Zn    Zn3+2 0.450640 0.500000 0.450640 1.163695
Zn7   Zn    Zn3+2 0.049360 0.000000 0.549360 1.163843
Zn8   Zn    Zn3+2 0.950640 0.000000 0.450640 1.163862
O29   O     O_R   0.536960 0.565470 0.536960 -0.586751
O30   O     O_R   0.463040 0.565470 0.463040 -0.586729
O31   O     O_R   0.036960 0.065470 0.536960 -0.586666
O32   O     O_R   0.963040 0.065470 0.463040 -0.586607
C91   C     C_R   0.500002 0.586089 0.500001 1.031582
C92   C     C_R   0.000002 0.086091 0.500003 1.031065
O33   O     O_R   0.000000 0.434540 0.448940 -0.593452
O34   O     O_R   0.000000 0.434540 0.551060 -0.593397
O35   O     O_R   0.500000 0.934540 0.448940 -0.593458
O36   O     O_R   0.500000 0.934540 0.551060 -0.593459
C93   C     C_R   0.000009 0.413655 0.500009 1.028290
C94   C     C_R   0.500000 0.913657 0.500000 1.029032
O37   O     O_R   0.065470 0.500010 0.514410 -0.562223
O38   O     O_R   0.934530 0.500010 0.485590 -0.562695
O39   O     O_R   0.565470 0.000010 0.514410 -0.562374
O40   O     O_R   0.434530 0.000010 0.485590 -0.562386
O41   O     O_R   0.065460 0.500010 0.616540 -0.562914
O42   O     O_R   0.934540 0.500010 0.383460 -0.563183
O43   O     O_R   0.565460 0.000010 0.616540 -0.562899
O44   O     O_R   0.434540 0.000010 0.383460 -0.562901
C95   C     C_R   0.086469 0.500389 0.586564 1.014574
C96   C     C_R   0.913534 0.500399 0.413440 1.014987
C97   C     C_R   0.586469 0.000392 0.586564 1.014979
C98   C     C_R   0.413531 0.000393 0.413436 1.014987
Zn9   Zn    Zn3+2 0.000010 0.500010 0.431810 1.233379
Zn10  Zn    Zn3+2 0.999990 0.500010 0.568190 1.233200
Zn11  Zn    Zn3+2 0.500010 0.000010 0.431810 1.233413
Zn12  Zn    Zn3+2 0.499990 0.000010 0.568190 1.233417
O45   O     O_R   0.000010 0.565480 0.448930 -0.566969
O46   O     O_R   0.999990 0.565480 0.551070 -0.567197
O47   O     O_R   0.500010 0.065480 0.448930 -0.567129
O48   O     O_R   0.499990 0.065480 0.551070 -0.567131
C99   C     C_R   0.999999 0.586454 0.499998 1.021172
C100  C     C_R   0.499999 0.086454 0.499999 1.020892
C101  C     C_R   0.459837 0.296881 0.458372 0.702202
C102  C     C_R   0.540145 0.296884 0.541602 0.702177
C103  C     C_R   0.959836 0.796881 0.458377 0.702208
C104  C     C_R   0.040144 0.796883 0.541593 0.702172
C105  C     C_R   0.459866 0.342654 0.458382 -0.225425
C106  C     C_R   0.540121 0.342657 0.541599 -0.225416
C107  C     C_R   0.959866 0.842654 0.458387 -0.225444
C108  C     C_R   0.040121 0.842657 0.541591 -0.225419
H17   H     H_    0.428559 0.359921 0.425982 0.232898
H18   H     H_    0.571430 0.359926 0.574002 0.232896
H19   H     H_    0.928558 0.859921 0.425993 0.232894
H20   H     H_    0.071430 0.859925 0.573988 0.232895
C109  C     C_R   0.499995 0.365728 0.499993 -0.230077
C110  C     C_R   0.999994 0.865728 0.499992 -0.230098
C111  C     C_R   0.499990 0.274053 0.499986 -0.050163
C112  C     C_R   0.999989 0.774053 0.499984 -0.050160
C113  C     C_R   0.015641 0.703460 0.567348 0.618462
C114  C     C_R   0.984335 0.703455 0.432625 0.618371
C115  C     C_R   0.515637 0.203460 0.567348 0.618452
C116  C     C_R   0.484343 0.203456 0.432629 0.618430
C117  C     C_R   0.015695 0.657664 0.567517 0.524357
C118  C     C_R   0.984288 0.657659 0.432465 0.524616
C119  C     C_R   0.515691 0.157664 0.567516 0.524430
C120  C     C_R   0.484296 0.157660 0.432469 0.524425
C121  C     C_R   0.999994 0.634484 0.499993 -0.548357
C122  C     C_R   0.499996 0.134485 0.499995 -0.548279
C123  C     C_R   0.999987 0.726248 0.499985 -0.326954
C124  C     C_R   0.499988 0.226248 0.499987 -0.326970
C125  C     C_R   0.520364 0.703014 0.569412 0.265947
C126  C     C_R   0.479648 0.703013 0.430600 0.265937
C127  C     C_R   0.020756 0.203015 0.569511 0.265880
C128  C     C_R   0.979339 0.203026 0.430571 0.265820
C129  C     C_R   0.520458 0.656752 0.569400 0.161700
C130  C     C_R   0.479554 0.656751 0.430609 0.161695
C131  C     C_R   0.020825 0.156754 0.569482 0.161912
C132  C     C_R   0.979222 0.156765 0.430565 0.161901
C133  C     C_R   0.500005 0.633944 0.500004 -0.339947
C134  C     C_R   0.000012 0.133949 0.500015 -0.340215
C135  C     C_R   0.500006 0.725792 0.500007 -0.064021
C136  C     C_R   0.000058 0.225795 0.500050 -0.063976
N1    N     N_R   0.570966 0.449568 0.756471 0.262449
O49   O     O_R   0.609796 0.452884 0.820608 -0.254096
O50   O     O_R   0.565555 0.422419 0.705083 -0.340542
N2    N     N_R   0.429031 0.449559 0.243529 0.262442
O51   O     O_R   0.390202 0.452868 0.179390 -0.254169
O52   O     O_R   0.434440 0.422413 0.294920 -0.340583
N3    N     N_R   0.070970 0.949578 0.756477 0.262478
O53   O     O_R   0.109800 0.952902 0.820612 -0.254107
O54   O     O_R   0.065563 0.922425 0.705096 -0.340533
N4    N     N_R   0.929025 0.949571 0.243521 0.262478
O55   O     O_R   0.890196 0.952890 0.179384 -0.254113
O56   O     O_R   0.934428 0.922422 0.294903 -0.340551
F1    F     F_    0.135509 0.529460 0.740183 -0.555957
F2    F     F_    0.864569 0.530466 0.260432 -0.555949
F3    F     F_    0.635505 0.029527 0.740144 -0.555935
F4    F     F_    0.364504 0.029561 0.259879 -0.555932
F5    F     F_    0.137388 0.473723 0.533406 -0.516901
F6    F     F_    0.862594 0.472861 0.466091 -0.516668
F7    F     F_    0.637386 0.973659 0.533439 -0.516956
F8    F     F_    0.362607 0.973642 0.466543 -0.516956
F9    F     F_    0.226865 0.473673 0.625815 -0.553771
F10   F     F_    0.773097 0.472748 0.373558 -0.553813
F11   F     F_    0.726865 0.973610 0.625851 -0.553771
F12   F     F_    0.273129 0.973607 0.374134 -0.553772
F13   F     F_    0.057923 0.273521 0.483545 -0.544756
F14   F     F_    0.942196 0.273480 0.516582 -0.544815
F15   F     F_    0.558259 0.773514 0.484479 -0.544795
F16   F     F_    0.441751 0.773498 0.515536 -0.544789
F17   F     F_    0.420805 0.274811 0.418658 -0.568095
F18   F     F_    0.579175 0.274817 0.581314 -0.568107
F19   F     F_    0.920804 0.774812 0.418669 -0.568084
F20   F     F_    0.079174 0.774817 0.581298 -0.568114
F21   F     F_    0.030494 0.725677 0.632591 -0.522585
F22   F     F_    0.969480 0.725667 0.367379 -0.522567
F23   F     F_    0.530484 0.225677 0.632588 -0.522544
F24   F     F_    0.469493 0.225669 0.367386 -0.522568
F25   F     F_    0.031778 0.636166 0.633852 -0.521247
F26   F     F_    0.968209 0.636156 0.366133 -0.520951
F27   F     F_    0.531768 0.136166 0.633849 -0.521184
F28   F     F_    0.468223 0.136157 0.366139 -0.521185
N5    N     N_R   0.062251 0.365334 0.487365 0.276189
O57   O     O_R   0.070921 0.352154 0.440205 -0.193016
O58   O     O_R   0.086860 0.395758 0.536852 -0.325010
N6    N     N_R   0.937810 0.365281 0.512682 0.276287
O59   O     O_R   0.913140 0.395630 0.463080 -0.324049
O60   O     O_R   0.929179 0.352136 0.559909 -0.192978
N7    N     N_R   0.562581 0.865331 0.488286 0.276166
O61   O     O_R   0.587016 0.895814 0.537793 -0.326014
O62   O     O_R   0.571575 0.852103 0.441577 -0.192605
N8    N     N_R   0.437423 0.865314 0.511721 0.276159
O63   O     O_R   0.412989 0.895795 0.462219 -0.325964
O64   O     O_R   0.428427 0.852081 0.558427 -0.192610
N9    N     N_R   0.539809 0.726814 0.639524 0.255662
O65   O     O_R   0.568511 0.757970 0.658149 -0.299849
O66   O     O_R   0.528993 0.717219 0.685220 -0.218677
N10   N     N_R   0.460203 0.726812 0.360491 0.255666
O67   O     O_R   0.431500 0.757962 0.341866 -0.299831
O68   O     O_R   0.471020 0.717224 0.314795 -0.218665
N11   N     N_R   0.040572 0.226810 0.639716 0.255567
O69   O     O_R   0.069209 0.257957 0.657871 -0.299647
O70   O     O_R   0.030169 0.217215 0.685978 -0.218815
N12   N     N_R   0.959543 0.226831 0.360382 0.255579
O71   O     O_R   0.930923 0.257990 0.342239 -0.299632
O72   O     O_R   0.969940 0.217228 0.314117 -0.218797
N13   N     N_R   0.541267 0.632976 0.639769 0.254669
O73   O     O_R   0.581653 0.642107 0.696217 -0.238171
O74   O     O_R   0.519495 0.602974 0.648317 -0.317905
N14   N     N_R   0.458744 0.632974 0.360239 0.254669
O75   O     O_R   0.418359 0.642100 0.303790 -0.238112
O76   O     O_R   0.480515 0.602976 0.351690 -0.317910
N15   N     N_R   0.041969 0.132978 0.639908 0.254837
O77   O     O_R   0.082481 0.142067 0.695890 -0.238332
O78   O     O_R   0.020384 0.103019 0.648986 -0.317340
N16   N     N_R   0.958055 0.133001 0.360122 0.254836
O79   O     O_R   0.917552 0.142121 0.304149 -0.238260
O80   O     O_R   0.979611 0.103026 0.351016 -0.317347
N17   N     N_R   0.548159 0.429443 0.863510 0.246542
O81   O     O_R   0.542299 0.390287 0.834221 -0.266541
O82   O     O_R   0.576862 0.434458 0.936419 -0.330911
N18   N     N_R   0.451842 0.429433 0.136496 0.246473
O83   O     O_R   0.457701 0.390279 0.165788 -0.266632
O84   O     O_R   0.423141 0.434441 0.063586 -0.330327
N19   N     N_R   0.048165 0.929450 0.863516 0.246458
O85   O     O_R   0.042311 0.890293 0.834233 -0.266649
O86   O     O_R   0.076866 0.934468 0.936424 -0.330369
N20   N     N_R   0.951831 0.929442 0.136484 0.246454
O87   O     O_R   0.957681 0.890286 0.165767 -0.266656
O88   O     O_R   0.923132 0.934457 0.063576 -0.330367
N21   N     N_R   0.508007 0.544834 0.793219 0.210368
O89   O     O_R   0.473030 0.568644 0.768634 -0.295876
O90   O     O_R   0.540418 0.561839 0.794226 -0.260851
N22   N     N_R   0.491994 0.544831 0.206781 0.210361
O91   O     O_R   0.526972 0.568647 0.231366 -0.295974
O92   O     O_R   0.459582 0.561832 0.205771 -0.260850
N23   N     N_R   0.007991 0.044833 0.793204 0.210208
O93   O     O_R   0.973009 0.068635 0.768616 -0.296219
O94   O     O_R   0.040400 0.061848 0.794211 -0.260923
N24   N     N_R   0.992014 0.044830 0.206801 0.210205
O95   O     O_R   0.026998 0.068636 0.231390 -0.296222
O96   O     O_R   0.959606 0.061841 0.205793 -0.260933
N25   N     N_R   0.274427 0.416522 0.780470 0.258877
O97   O     O_R   0.238057 0.411831 0.775279 -0.311019
O98   O     O_R   0.292651 0.381619 0.774601 -0.267125
N26   N     N_R   0.725565 0.416635 0.216681 0.258801
O99   O     O_R   0.762087 0.412520 0.222216 -0.311422
O100  O     O_R   0.707198 0.381282 0.220890 -0.267104
N27   N     N_R   0.774427 0.916525 0.780571 0.258890
O101  O     O_R   0.738055 0.911853 0.775381 -0.310923
O102  O     O_R   0.792652 0.881607 0.774749 -0.267128
N28   N     N_R   0.225566 0.916546 0.219389 0.258886
O103  O     O_R   0.261936 0.911885 0.224570 -0.310936
O104  O     O_R   0.207340 0.881621 0.225200 -0.267102
F29   F     F_    0.274651 0.578369 0.780743 -0.593898
F30   F     F_    0.725384 0.578443 0.221764 -0.593911
F31   F     F_    0.774650 0.078372 0.780658 -0.593903
F32   F     F_    0.225357 0.078393 0.219377 -0.593900

loop_
_geom_bond_atom_site_label_1
_geom_bond_atom_site_label_2
_geom_bond_distance
_ccdc_geom_bond_type
O27   C89   1.280657 A    
C101  C111  1.399269 A    
C31   C35   1.360161 D    
Zn8   O32   2.016283 S    
N3    O53   1.301012 A    
O9    Zn1   1.996083 S    
C51   C55   1.383769 A    
C1    C45   1.454621 S    
N14   O75   1.301169 A    
C17   N5    1.437663 S    
C22   N2    1.439975 S    
C63   H15   1.083795 S    
O33   C93   1.274350 A    
O25   Zn6   1.995542 S    
O39   Zn11  2.017068 S    
C10   C135  1.453730 S    
C102  F18   1.358062 S    
C63   C67   1.384808 A    
N10   O67   1.301177 A    
N15   O78   1.300915 A    
N28   O103  1.301338 A    
C116  C124  1.398074 A    
O46   C99   1.276077 A    
Zn7   O31   2.016351 S    
C128  N12   1.438483 S    
C39   C43   1.393714 A    
C55   C59   1.400516 A    
N27   O101  1.301345 A    
C54   C58   1.400462 A    
C61   C65   1.384807 A    
C10   C14   1.395494 A    
O19   C86   1.284812 A    
Zn9   O45   2.015465 S    
O16   Zn4   1.996138 S    
C63   C83   1.394404 A    
N24   O95   1.301399 A    
O13   C5    1.289744 A    
O7    Zn4   2.018704 S    
C11   C17   1.393560 A    
C92   C134  1.448108 S    
O15   C7    1.289740 A    
O36   Zn12  2.015545 S    
C50   H10   1.083131 S    
O4    Zn2   2.018647 S    
C44   H8    1.083124 S    
O34   Zn10  2.015545 S    
O19   Zn7   2.016287 S    
O9    C5    1.277948 A    
C102  C106  1.385020 A    
C104  F20   1.358061 S    
N18   O83   1.301059 A    
N9    O66   1.301206 A    
O8    Zn4   2.018637 S    
O24   C90   1.285000 A    
C58   C82   1.448237 S    
O31   C92   1.281839 A    
Zn12  O48   2.015455 S    
N7    O62   1.301198 A    
C72   C98   1.456457 S    
C12   F14   1.359318 S    
O3    Zn2   2.018581 S    
C9    C136  1.453563 S    
C18   N6    1.437605 S    
C6    C34   1.461700 S    
C113  C123  1.398076 A    
C28   C90   1.448962 S    
C52   C56   1.383778 A    
C56   F32   1.358421 S    
O28   Zn7   1.995541 S    
C79   F11   1.358236 S    
C119  F27   1.358310 S    
C42   H6    1.083024 S    
O44   Zn11  2.018514 S    
O37   Zn9   2.017068 S    
C128  C132  1.399782 A    
C127  C136  1.408227 A    
O3    C3    1.285358 A    
C37   C41   1.393706 A    
C28   H4    1.087415 S    
O23   C89   1.284996 A    
C62   C66   1.384912 A    
C120  C122  1.406358 A    
C39   C59   1.411964 A    
C66   F2    1.357987 S    
C21   C25   1.348787 D    
C67   C71   1.408003 A    
C47   C51   1.398889 A    
O43   C97   1.276193 A    
C24   C28   1.348779 D    
C30   N18   1.439737 S    
C73   F5    1.358066 S    
C71   C97   1.456466 S    
C54   F30   1.358382 S    
O26   Zn5   1.995541 S    
C7    C35   1.461680 S    
O27   Zn8   1.995542 S    
C40   C44   1.393706 A    
C106  H18   1.083133 S    
C126  N10   1.438473 S    
O38   Zn10  2.017063 S    
C42   C46   1.401980 A    
C129  N13   1.437537 S    
N5    O57   1.301271 A    
C86   C110  1.451827 S    
O5    Zn3   2.018704 S    
Zn5   O29   2.016351 S    
N21   O90   1.301701 A    
C119  C122  1.406355 A    
C114  F22   1.358450 S    
C74   C78   1.387376 A    
O8    C4    1.283536 A    
C78   F10   1.358242 S    
C118  F26   1.358313 S    
C49   C53   1.383765 A    
C127  C131  1.399777 A    
C61   C81   1.394391 A    
O42   Zn9   2.018514 S    
O30   C91   1.281825 A    
N2    O51   1.301012 A    
N22   O92   1.301689 A    
C115  C119  1.385706 A    
C67   F3    1.357979 S    
N20   O88   1.301646 A    
C25   C87   1.448973 S    
C38   C42   1.393886 A    
O13   Zn3   1.996130 S    
C100  C122  1.453315 S    
C15   C18   1.414486 A    
O39   C97   1.277372 A    
O40   Zn12  2.017063 S    
O37   C95   1.277378 A    
N1    O49   1.301011 A    
C80   C84   1.398040 A    
N27   O102  1.301510 A    
N26   O100  1.301603 A    
C23   N3    1.439968 S    
O17   C85   1.284811 A    
N17   O81   1.301062 A    
C126  C130  1.399826 A    
O26   C88   1.280653 A    
C113  F21   1.358454 S    
C116  F24   1.358454 S    
O15   Zn4   1.996130 S    
C21   C29   1.477663 S    
N8    O64   1.301202 A    
C120  F28   1.358312 S    
C77   C81   1.398033 A    
C55   F31   1.358417 S    
C57   C81   1.448294 S    
C79   C83   1.398037 A    
N23   O94   1.301697 A    
C59   C83   1.448301 S    
C13   F15   1.359282 S    
C43   C47   1.401977 A    
C61   H13   1.083794 S    
C76   C80   1.387265 A    
O20   C86   1.284822 A    
C31   N19   1.439740 S    
C69   C73   1.407579 A    
C45   C49   1.398889 A    
O14   C6    1.289748 A    
C71   C75   1.407573 A    
C16   C19   1.414495 A    
C15   C93   1.452719 S    
N6    O59   1.301002 A    
C91   C133  1.448023 S    
C29   C33   1.360162 D    
C21   N1    1.439970 S    
N3    O54   1.301591 A    
C23   C31   1.477657 S    
C40   N28   1.441573 S    
C44   C48   1.401978 A    
C130  C133  1.408253 A    
O35   Zn11  2.015534 S    
O17   Zn5   2.016287 S    
O18   C85   1.284820 A    
N14   O76   1.300912 A    
C60   C84   1.448305 S    
O18   Zn6   2.016353 S    
C3    C47   1.454628 S    
C62   C82   1.394394 A    
C114  C118  1.385715 A    
C23   C27   1.348784 D    
C101  C105  1.385032 A    
C64   H16   1.083798 S    
O48   C100  1.276081 A    
O41   C95   1.276195 A    
O24   Zn8   1.997116 S    
C49   H9    1.083141 S    
C39   N27   1.441573 S    
C104  C108  1.385023 A    
C131  C134  1.408328 A    
N10   O68   1.301202 A    
N4    O55   1.301011 A    
Zn11  O47   2.015465 S    
N12   O71   1.301176 A    
N28   O104  1.301519 A    
C24   N4    1.439975 S    
C20   N8    1.437736 S    
C126  C135  1.408273 A    
N11   O69   1.301181 A    
O33   Zn9   2.015534 S    
C52   H12   1.083140 S    
C16   C94   1.452628 S    
N7    O61   1.300986 A    
O5    C1    1.283539 A    
O42   C96   1.276169 A    
O21   C87   1.284999 A    
C9    C12   1.395428 A    
O22   C88   1.285002 A    
C30   C34   1.360169 D    
O23   Zn7   1.997119 S    
C62   H14   1.083760 S    
N24   O96   1.301683 A    
N16   O79   1.301159 A    
C22   C26   1.348781 D    
N25   O98   1.301518 A    
O44   C98   1.276191 A    
C105  C109  1.402219 A    
C101  F17   1.358061 S    
C32   N20   1.439738 S    
O34   C93   1.274361 A    
C75   F7    1.358070 S    
C69   C95   1.456484 S    
C70   C96   1.456342 S    
O4    C4    1.285361 A    
C36   N24   1.444260 S    
N18   O84   1.301647 A    
N9    O65   1.301182 A    
O32   C92   1.281870 A    
O12   Zn2   1.996070 S    
C14   F16   1.359286 S    
C48   C52   1.398890 A    
O1    C1    1.285355 A    
C53   C57   1.400513 A    
C127  N11   1.438483 S    
C115  C124  1.398073 A    
C76   F8    1.358072 S    
C72   C76   1.407573 A    
O7    C3    1.283542 A    
N19   O85   1.301062 A    
C107  H19   1.083129 S    
C75   C79   1.387267 A    
C24   C32   1.477660 S    
N15   O77   1.301165 A    
C25   H1    1.087412 S    
C132  C134  1.408323 A    
C4    C48   1.454635 S    
N13   O74   1.300913 A    
C111  C124  1.446498 S    
C40   C60   1.411964 A    
C107  C110  1.402218 A    
C68   C72   1.408000 A    
O40   C98   1.277370 A    
C26   H2    1.087414 S    
C38   N26   1.441709 S    
N11   O70   1.301211 A    
C11   F13   1.359302 S    
Zn6   O30   2.016283 S    
O6    C2    1.283649 A    
C27   H3    1.087411 S    
C130  N14   1.437536 S    
C22   C30   1.477663 S    
C51   H11   1.083142 S    
O10   C6    1.277949 A    
C41   H5    1.083118 S    
C112  C123  1.446498 S    
O2    Zn1   2.018647 S    
C43   H7    1.083117 S    
O10   Zn1   1.996070 S    
O22   Zn6   1.997116 S    
C129  C133  1.408252 A    
C32   C36   1.360168 D    
Zn10  O46   2.015455 S    
C125  C135  1.408273 A    
N17   O82   1.301646 A    
N21   O89   1.301386 A    
C46   C50   1.398926 A    
C65   F1    1.357979 S    
C74   F6    1.358057 S    
N23   O93   1.301386 A    
C53   F29   1.358415 S    
C116  C120  1.385712 A    
N2    O52   1.301590 A    
O29   C91   1.281831 A    
C13   C19   1.393601 A    
C14   C20   1.393607 A    
C15   C17   1.414552 A    
O25   C87   1.280660 A    
C68   F4    1.357980 S    
C41   C45   1.401976 A    
O41   Zn10  2.018518 S    
O35   C94   1.274326 A    
C34   N22   1.444264 S    
C103  C112  1.399271 A    
O16   C8    1.289743 A    
C115  F23   1.358455 S    
C117  C121  1.406353 A    
C106  C109  1.402216 A    
C12   C18   1.393479 A    
C73   C77   1.387266 A    
C50   C54   1.383798 A    
O11   C7    1.277944 A    
C117  F25   1.358311 S    
C128  C136  1.408234 A    
O1    Zn1   2.018581 S    
O20   Zn8   2.016353 S    
O21   Zn5   1.997119 S    
C29   N17   1.439739 S    
C37   C57   1.411958 A    
C103  C107  1.385029 A    
C65   C69   1.408014 A    
C125  N9    1.438472 S    
C56   C60   1.400514 A    
C16   C20   1.414504 A    
C131  N15   1.437526 S    
C99   C121  1.453312 S    
N6    O60   1.301243 A    
C104  C112  1.399269 A    
C105  H17   1.083129 S    
O11   Zn2   1.996083 S    
N13   O73   1.301173 A    
O45   C99   1.276078 A    
C108  H20   1.083133 S    
N5    O58   1.301022 A    
C5    C33   1.461705 S    
O6    Zn3   2.018637 S    
C125  C129  1.399824 A    
C8    C36   1.461674 S    
C27   C89   1.448964 S    
C118  C121  1.406353 A    
C37   N25   1.441574 S    
C33   N21   1.444261 S    
N19   O86   1.301647 A    
C78   C82   1.398036 A    
O43   Zn12  2.018518 S    
O36   C94   1.274325 A    
N4    O56   1.301591 A    
N12   O72   1.301210 A    
O2    C2    1.285337 A    
C132  N16   1.437522 S    
N22   O91   1.301397 A    
C70   C74   1.407466 A    
O47   C100  1.276078 A    
N20   O87   1.301060 A    
C108  C110  1.402218 A    
C10   C13   1.395494 A    
C64   C84   1.394406 A    
O14   Zn3   1.996138 S    
O28   C90   1.280651 A    
C103  F19   1.358061 S    
N1    O50   1.301591 A    
C80   F12   1.358236 S    
N26   O99   1.301286 A    
C64   C68   1.384813 A    
C9    C11   1.395467 A    
C19   N7    1.437742 S    
C35   N23   1.444256 S    
C102  C111  1.399269 A    
C2    C46   1.454833 S    
C113  C117  1.385706 A    
C114  C123  1.398077 A    
C38   C58   1.412030 A    
C77   F9    1.358234 S    
C66   C70   1.407895 A    
N16   O80   1.300913 A    
N25   O97   1.301338 A    
N8    O63   1.300988 A    
C26   C88   1.448965 S    
O38   C96   1.277314 A    
O12   C8    1.277944 A    
C85   C109  1.451827 S    
