data_mof_unit_54704.cif
_audit_creation_date              2012-12-10T20:02:26-0500
_audit_creation_method            fapswitch 2.2
_symmetry_space_group_name_H-M    P1
_symmetry_Int_Tables_number       1
_space_group_crystal_system       triclinic
_cell_length_a                    10.859119
_cell_length_b                    14.968363
_cell_length_c                    14.394701
_cell_angle_alpha                 90.352602
_cell_angle_beta                  91.75571
_cell_angle_gamma                 92.507754
_cell_volume                      2336.35732829

loop_
_atom_site_label
_atom_site_type_symbol
_atom_type_description
_atom_site_fract_x
_atom_site_fract_y
_atom_site_fract_z
_atom_type_partial_charge
C1    C     C_R   0.498047 0.328774 0.499633 1.034173
C2    C     C_R   0.531940 0.817946 0.425904 0.410716
C3    C     C_R   0.493373 0.233578 0.498943 -0.201330
C4    C     C_R   0.478294 0.767300 0.497391 -0.308575
C5    C     C_R   0.597114 0.189279 0.471705 0.298303
C6    C     C_R   0.411340 0.809421 0.566828 0.315479
C7    C     C_R   0.598875 0.096763 0.483252 0.360672
C8    C     C_R   0.424578 0.901538 0.577715 0.453131
C9    C     C_R   0.489180 0.049589 0.508935 -0.054583
C10   C     C_R   0.480745 0.952313 0.506811 -0.118019
C11   C     C_R   0.417818 0.440255 0.103427 0.345708
C12   C     C_R   0.494008 0.671682 0.499625 0.919483
C13   C     C_R   0.510955 0.573272 0.901091 0.319743
C14   C     C_R   0.424174 0.438877 0.202190 0.099951
C15   C     C_R   0.523063 0.576555 0.802845 0.041862
C16   C     C_R   0.259995 0.496474 0.498527 0.928202
C17   C     C_R   0.740137 0.503483 0.502218 0.955742
C18   C     C_R   0.585213 0.550936 0.204200 0.500295
C19   C     C_R   0.474617 0.420739 0.792979 0.502430
C20   C     C_R   0.597342 0.540754 0.107441 0.372866
C21   C     C_R   0.491733 0.412900 0.890439 0.335191
C22   C     C_R   0.508555 0.488653 0.053727 -0.232475
C23   C     C_R   0.873938 0.509497 0.507677 -0.193222
C24   C     C_R   0.505684 0.490685 0.947292 -0.226822
C25   C     C_R   0.181287 0.585446 0.180995 0.412680
C26   C     C_R   0.786905 0.372517 0.796177 0.441721
C27   C     C_R   0.166781 0.590821 0.278108 0.092153
C28   C     C_R   0.825823 0.383428 0.704228 0.103632
C29   C     C_R   0.101228 0.520239 0.323068 0.038435
C30   C     C_R   0.886689 0.464891 0.678781 0.035511
C31   C     C_R   0.047472 0.448756 0.270226 -0.215574
C32   C     C_R   0.920832 0.528775 0.747930 -0.228480
C33   C     C_R   0.052429 0.447279 0.173492 0.133854
C34   C     C_R   0.126638 0.494247 0.497122 -0.181283
C35   C     C_R   0.892413 0.514387 0.841004 0.114715
C36   C     C_R   0.121833 0.514732 0.129487 -0.249075
C37   C     C_R   0.819907 0.438398 0.863682 -0.342106
C38   C     C_R   0.934691 0.542330 0.429793 0.407707
C39   C     C_R   0.067727 0.467006 0.578761 0.427411
C40   C     C_3   0.348948 0.365295 0.249168 -0.279078
C41   C     C_3   0.415390 0.276276 0.253316 -0.365661
C42   C     C_3   0.393077 0.217975 0.166609 -0.762291
C43   C     C_3   0.555545 0.668783 0.764037 -0.238727
C44   C     C_3   0.684639 0.676210 0.723797 -0.369502
C45   C     C_R   0.941205 0.477899 0.585921 -0.174479
C46   C     C_3   0.723164 0.772474 0.699925 -0.880159
C47   C     C_3   0.218429 0.672857 0.331098 -0.323281
C48   C     C_3   0.141785 0.754790 0.311165 -0.359754
C49   C     C_3   0.201353 0.839014 0.356482 -0.831304
C50   C     C_3   0.815247 0.303653 0.638747 -0.320721
C51   C     C_3   0.915153 0.237381 0.664092 -0.393472
C52   C     C_3   0.895554 0.149419 0.611203 -0.765031
C53   C     C_3   0.974510 0.378059 0.118316 -0.430322
C54   C     C_3   0.050656 0.321079 0.054729 -0.305773
C55   C     C_3   0.972243 0.244579 0.009939 -0.861662
C56   C     C_R   0.059079 0.526597 0.420069 -0.178157
C57   C     C_3   0.954532 0.572144 0.916969 -0.435764
C58   C     C_3   0.917826 0.669836 0.915100 -0.351275
C59   C     C_3   0.984654 0.723850 0.993157 -0.760665
C60   C     C_R   0.382564 0.095159 0.526955 -0.320866
C61   C     C_R   0.524903 0.910050 0.428569 -0.336024
C62   C     C_R   0.385508 0.187970 0.526096 0.376963
H1    H     H_    0.129143 0.512807 0.054901 0.130915
H2    H     H_    0.453610 0.642740 0.004994 0.363076
H3    H     H_    0.292868 0.204767 0.152672 0.258046
H4    H     H_    0.435296 0.250140 0.105676 0.297161
H5    H     H_    0.436399 0.152880 0.177591 0.236864
H6    H     H_    0.516381 0.288764 0.265003 0.252919
H7    H     H_    0.380419 0.237217 0.313174 0.215230
H8    H     H_    0.326642 0.384671 0.319570 0.218500
H9    H     H_    0.257276 0.354474 0.214441 0.211281
H10   H     H_    0.657702 0.799626 0.647840 0.268101
H11   H     H_    0.726271 0.815313 0.763307 0.272186
H12   H     H_    0.794990 0.427486 0.934971 0.125000
H13   H     H_    0.816520 0.774313 0.670397 0.257522
H14   H     H_    0.750875 0.651553 0.775619 0.217232
H15   H     H_    0.691869 0.634735 0.661466 0.279507
H16   H     H_    0.480859 0.690615 0.718493 0.256785
H17   H     H_    0.556637 0.721657 0.818215 0.248387
H18   H     H_    0.645938 0.614640 0.313362 0.422477
H19   H     H_    0.363558 0.368559 0.701836 0.386892
H20   H     H_    0.711940 0.556814 0.007703 0.333728
H21   H     H_    0.532262 0.329811 0.987815 0.329612
H22   H     H_    0.250783 0.638142 0.070001 0.323088
H23   H     H_    0.992688 0.397305 0.304753 0.161950
H24   H     H_    0.709179 0.294586 0.887057 0.343784
H25   H     H_    0.210173 0.830623 0.432931 0.263878
H26   H     H_    0.293827 0.853566 0.327919 0.274401
H27   H     H_    0.143112 0.896737 0.341865 0.256615
H28   H     H_    0.131967 0.765941 0.235117 0.267376
H29   H     H_    0.048295 0.743743 0.339111 0.225531
H30   H     H_    0.220965 0.661404 0.407186 0.169638
H31   H     H_    0.315319 0.686835 0.310933 0.262783
H32   H     H_    0.805203 0.117144 0.628381 0.279742
H33   H     H_    0.899731 0.161153 0.535334 0.286101
H34   H     H_    0.977928 0.586972 0.729998 0.169263
H35   H     H_    0.969396 0.103740 0.631650 0.242583
H36   H     H_    0.007165 0.266870 0.647208 0.240169
H37   H     H_    0.915540 0.222722 0.739704 0.258893
H38   H     H_    0.721863 0.270745 0.643160 0.256488
H39   H     H_    0.825621 0.324351 0.565516 0.214021
H40   H     H_    0.934898 0.199169 0.064002 0.263230
H41   H     H_    0.894898 0.271294 0.968359 0.263303
H42   H     H_    0.029623 0.205661 0.963192 0.268522
H43   H     H_    0.089397 0.363198 0.998544 0.241786
H44   H     H_    0.126854 0.291929 0.095653 0.259296
H45   H     H_    0.297421 0.058375 0.542072 0.193632
H46   H     H_    0.923012 0.332981 0.166115 0.207406
H47   H     H_    0.904520 0.412843 0.076132 0.197016
H48   H     H_    0.962721 0.694791 0.061881 0.281660
H49   H     H_    0.085888 0.724513 0.984168 0.258167
H50   H     H_    0.954786 0.793835 0.991491 0.252875
H51   H     H_    0.941896 0.700723 0.847683 0.225467
H52   H     H_    0.817086 0.673342 0.924462 0.263674
H53   H     H_    0.932802 0.544280 0.986067 0.217054
H54   H     H_    0.055933 0.569884 0.909384 0.201408
H55   H     H_    0.923711 0.616885 0.318028 0.352179
H56   H     H_    0.560421 0.949417 0.371548 0.203069
H57   H     H_    0.085861 0.404230 0.699619 0.334607
H58   H     H_    0.216034 0.192931 0.565882 0.342793
H59   H     H_    0.624618 0.822499 0.311644 0.352075
H60   H     H_    0.755523 0.198267 0.410798 0.377962
H61   H     H_    0.303519 0.706476 0.593465 0.322611
H62   H     H_    0.709619 0.000718 0.508472 0.347414
H63   H     H_    0.427754 0.995777 0.671099 0.341254
H64   H     H_    0.302812 0.421551 0.998416 0.344947
N1    N     N_R   0.500000 0.499980 0.252470 -0.239393
N2    N     N_R   0.500000 0.500020 0.747530 -0.213504
O1    O     O_R   0.500010 0.369070 0.579480 -0.586653
O2    O     O_3   0.380537 0.938902 0.657423 -0.707546
O3    O     O_3   0.322353 0.392288 0.058177 -0.774704
O4    O     O_3   0.505696 0.652601 0.950485 -0.737850
O5    O     O_3   0.666544 0.611312 0.247896 -0.651918
O6    O     O_3   0.427281 0.346676 0.745716 -0.653747
O7    O     O_3   0.696805 0.585066 0.068223 -0.691731
O8    O     O_3   0.486566 0.328029 0.927241 -0.679287
O9    O     O_3   0.250959 0.651351 0.137567 -0.789361
O10   O     O_3   0.723595 0.294190 0.819488 -0.743288
O11   O     O_3   0.868150 0.586160 0.361825 -0.721485
O12   O     O_R   0.499990 0.630930 0.420520 -0.599154
O13   O     O_3   0.136958 0.427578 0.648989 -0.757268
O14   O     O_3   0.283828 0.235436 0.548226 -0.756066
O15   O     O_3   0.592009 0.776772 0.355148 -0.719045
O16   O     O_3   0.696080 0.238825 0.437497 -0.799884
O17   O     O_3   0.331617 0.763445 0.624290 -0.722443
O18   O     O_R   0.500010 0.369060 0.420520 -0.642377
O19   O     O_R   0.499990 0.630940 0.579480 -0.650179
O20   O     O_R   0.316760 0.500010 0.579480 -0.567382
O21   O     O_R   0.683240 0.499990 0.420520 -0.563198
O22   O     O_R   0.316760 0.500000 0.420520 -0.673173
O23   O     O_R   0.683240 0.500000 0.579480 -0.659626
O24   O     O_3   0.707684 0.054778 0.469199 -0.804202
Zn1   Zn    Zn3+2 0.500000 0.500010 0.606140 0.969512
Zn2   Zn    Zn3+2 0.500000 0.499990 0.393860 0.960605

loop_
_geom_bond_atom_site_label_1
_geom_bond_atom_site_label_2
_ccdc_geom_bond_type
O1    Zn1   S    
C37   H12   S    
C34   C56   A    
C31   H23   S    
C40   H9    S    
C27   C29   A    
C47   H30   S    
C49   H25   S    
C30   C45   S    
C25   O9    S    
H60   O16   S    
C43   C44   S    
C59   H48   S    
H19   O6    S    
C57   H53   S    
C17   O23   A    
C53   C54   S    
C43   H16   S    
C55   H40   S    
C17   C23   S    
C40   H8    S    
C18   O5    S    
C23   C45   A    
C12   O19   A    
C44   H15   S    
C35   C37   A    
C1    O1    A    
C11   C14   A    
C27   C47   S    
C55   H41   S    
C19   N2    A    
C33   C36   A    
C52   H33   S    
C60   C62   A    
C41   C42   S    
H20   O7    S    
C44   H14   S    
H59   O15   S    
C16   C34   S    
C28   C50   S    
H63   O2    S    
H2    O4    S    
C14   N1    A    
C48   H29   S    
C42   H3    S    
C59   H49   S    
C38   O11   S    
C12   O12   A    
C52   H32   S    
C4    C12   S    
C36   H1    S    
C9    C10   S    
C21   O8    S    
C46   H10   S    
C19   O6    S    
C2    C61   A    
C39   C45   A    
C51   H36   S    
H62   O24   S    
C48   H28   S    
C33   C53   S    
C2    O15   S    
C49   H26   S    
C1    O18   A    
H55   O11   S    
C62   O14   S    
N1    Zn2   S    
C46   H13   S    
C44   C46   S    
C59   H50   S    
C57   H54   S    
C51   H37   S    
C54   H44   S    
C51   C52   S    
C32   C35   A    
H61   O17   S    
H58   O14   S    
C4    C6    A    
C5    C7    A    
C6    O17   S    
C5    O16   S    
C6    C8    A    
C3    C5    A    
C58   C59   S    
C55   H42   S    
C41   H6    S    
H18   O5    S    
C34   C39   A    
C13   C24   A    
C1    C3    S    
C2    C4    A    
O21   Zn2   S    
C52   H35   S    
C18   N1    A    
C58   H51   S    
C47   C48   S    
O18   Zn2   S    
C31   C33   A    
C50   C51   S    
C47   H31   S    
H21   O8    S    
C60   H45   S    
N2    Zn1   S    
C39   O13   S    
C48   C49   S    
C32   H34   S    
C20   C22   A    
H22   O9    S    
C15   N2    A    
C13   C15   A    
C8    O2    S    
C42   H5    S    
H57   O13   S    
C22   C24   S    
C10   C61   A    
O20   Zn1   S    
C41   H7    S    
C3    C62   A    
C53   H47   S    
C7    C9    A    
C54   C55   S    
C40   C41   S    
C54   H43   S    
C19   C21   A    
C61   H56   S    
C50   H38   S    
C17   O21   A    
C49   H27   S    
C26   O10   S    
C11   O3    S    
C26   C37   A    
C29   C56   S    
C25   C27   A    
C23   C38   A    
C11   C22   A    
C26   C28   A    
C16   O20   A    
C35   C57   S    
C9    C60   A    
C28   C30   A    
C15   C43   S    
C29   C31   A    
C30   C32   A    
C53   H46   S    
C57   C58   S    
H64   O3    S    
C42   H4    S    
C13   O4    S    
C18   C20   A    
O23   Zn1   S    
C20   O7    S    
O19   Zn1   S    
H24   O10   S    
C25   C36   A    
C14   C40   S    
C7    O24   S    
C38   C56   A    
C50   H39   S    
C8    C10   A    
O22   Zn2   S    
C21   C24   A    
C58   H52   S    
C16   O22   A    
C43   H17   S    
C46   H11   S    
O12   Zn2   S    
