data_mof_unit_39575.cif
_audit_creation_date              2012-12-10T20:27:13-0500
_audit_creation_method            fapswitch 2.2
_symmetry_space_group_name_H-M    P1
_symmetry_Int_Tables_number       1
_space_group_crystal_system       triclinic
_cell_length_a                    10.772704
_cell_length_b                    10.680094
_cell_length_c                    9.870423
_cell_angle_alpha                 90.065025
_cell_angle_beta                  103.807209
_cell_angle_gamma                 89.991915
_cell_volume                      1102.8111352

loop_
_atom_site_label
_atom_site_type_symbol
_atom_type_description
_atom_site_fract_x
_atom_site_fract_y
_atom_site_fract_z
_atom_type_partial_charge
C1    C     C_R   0.506150 0.259914 0.501370 0.916480
C2    C     C_R   0.609102 0.521904 0.100140 -0.110399
C3    C     C_R   0.609138 0.521805 0.956415 -0.138058
C4    C     C_R   0.258962 0.504236 0.441974 0.935809
C5    C     C_R   0.388074 0.489435 0.899730 0.211092
C6    C     C_3   0.296147 0.382825 0.870298 -0.507124
C7    C     C_3   0.296845 0.382239 0.024327 -0.497778
C8    C     C_R   0.504410 0.739950 0.501267 0.900449
C9    C     C_R   0.741110 0.504259 0.558063 0.943394
C10   C     C_2   0.122406 0.520682 0.409247 -0.369555
C11   C     C_2   0.068188 0.552595 0.512137 -0.160638
C12   C     C_R   0.529651 0.128366 0.507825 -0.168850
C13   C     C_2   0.877736 0.521152 0.590867 -0.369740
C14   C     C_2   0.931988 0.551776 0.487675 -0.144427
C15   C     C_R   0.518819 0.063727 0.626954 0.068733
C16   C     C_R   0.567088 0.063834 0.398843 0.437201
C17   C     C_R   0.564710 0.933100 0.400077 -0.347752
C18   C     C_R   0.526791 0.870939 0.508448 -0.149592
C19   C     C_R   0.517428 0.936281 0.627205 0.135255
C20   C     C_3   0.418317 0.929991 0.710132 -0.458312
C21   C     C_3   0.420137 0.071895 0.710571 -0.470957
C22   C     C_R   0.388206 0.489077 0.042225 0.212925
H1    H     H_    0.876510 0.565289 0.381243 0.175245
H2    H     H_    0.933794 0.507207 0.697025 0.143645
H3    H     H_    0.066316 0.504884 0.303417 0.146385
H4    H     H_    0.584663 0.881214 0.313256 0.168451
H5    H     H_    0.326359 0.889659 0.650086 0.198739
H6    H     H_    0.456315 0.888562 0.815139 0.204900
H7    H     H_    0.328970 0.114372 0.651517 0.198807
H8    H     H_    0.621036 0.067952 0.223865 0.324003
H9    H     H_    0.459917 0.111913 0.815993 0.210349
H10   H     H_    0.697676 0.537913 0.176573 0.139623
H11   H     H_    0.697649 0.537547 0.925594 0.149523
H12   H     H_    0.202369 0.410690 0.802582 0.197117
H13   H     H_    0.338638 0.297430 0.835893 0.215732
H14   H     H_    0.203610 0.409974 0.044979 0.195874
H15   H     H_    0.340342 0.296462 0.079800 0.232819
H16   H     H_    0.123816 0.568536 0.618162 0.179829
N1    N     N_R   0.499160 0.499140 0.142600 -0.099005
N2    N     N_R   0.499160 0.499180 0.856960 -0.104570
O1    O     O_R   0.500020 0.316790 0.614700 -0.623456
O2    O     O_R   0.500000 0.316760 0.385350 -0.549552
O3    O     O_R   0.317820 0.500020 0.571850 -0.617195
O4    O     O_R   0.317800 0.499980 0.342510 -0.620916
O5    O     O_R   0.500000 0.683240 0.614650 -0.619325
O6    O     O_R   0.499980 0.683210 0.385300 -0.625783
O7    O     O_R   0.682200 0.500020 0.657490 -0.627413
O8    O     O_R   0.682180 0.499980 0.428150 -0.617347
O9    O     O_3   0.598365 0.128498 0.290333 -0.749126
Zn1   Zn    Zn3+2 0.500010 0.500020 0.653140 0.937651
Zn2   Zn    Zn3+2 0.499990 0.499980 0.346860 0.966841

loop_
_geom_bond_atom_site_label_1
_geom_bond_atom_site_label_2
_ccdc_geom_bond_type
C14   H1    S    
C11   H16   S    
N1    Zn2   S    
O3    Zn1   S    
C6    C7    S    
C4    O3    A    
C7    C22   S    
C4    O4    A    
C7    H14   S    
O1    Zn1   S    
C19   C20   S    
C12   C15   A    
O2    Zn2   S    
C2    C3    A    
C7    H15   S    
C13   C14   D    
C20   C21   S    
C15   C19   A    
C21   H9    S    
C1    C12   S    
C21   H7    S    
O5    Zn1   S    
N2    Zn1   S    
C17   H4    S    
C2    N1    A    
O4    Zn2   S    
C1    O1    A    
C20   H5    S    
H8    O9    S    
C3    N2    A    
C9    O7    A    
O7    Zn1   S    
C17   C18   A    
C5    C6    S    
C11   C14   S    
C8    O6    A    
C10   C11   D    
C3    H11   S    
C4    C10   S    
C16   O9    S    
C12   C16   A    
C1    O2    A    
C15   C21   S    
C6    H13   S    
C10   H3    S    
C9    O8    A    
C2    H10   S    
C18   C19   A    
C5    N2    A    
C9    C13   S    
C8    O5    A    
C20   H6    S    
C22   N1    A    
O6    Zn2   S    
O8    Zn2   S    
C8    C18   S    
C5    C22   A    
C6    H12   S    
C13   H2    S    
C16   C17   A    
