data_mof_unit_51448.cif
_audit_creation_date              2012-12-10T20:42:39-0500
_audit_creation_method            fapswitch 2.2
_symmetry_space_group_name_H-M    P1
_symmetry_Int_Tables_number       1
_space_group_crystal_system       triclinic
_cell_length_a                    8.903106
_cell_length_b                    10.688433
_cell_length_c                    9.884041
_cell_angle_alpha                 89.62167
_cell_angle_beta                  89.8852
_cell_angle_gamma                 90.06064
_cell_volume                      940.544899309

loop_
_atom_site_label
_atom_site_type_symbol
_atom_type_description
_atom_site_fract_x
_atom_site_fract_y
_atom_site_fract_z
_atom_type_partial_charge
C1    C     C_R   0.504660 0.259896 0.500282 0.869740
C2    C     C_R   0.553986 0.936096 0.377372 -0.228506
C3    C     C_R   0.530072 0.871193 0.499269 -0.101762
C4    C     C_R   0.535319 0.934836 0.621456 0.141459
C5    C     C_3   0.435037 0.925653 0.742465 -0.466803
C6    C     C_3   0.434954 0.067301 0.743465 -0.514512
C7    C     C_R   0.371314 0.475135 0.071838 0.166049
C8    C     C_R   0.623737 0.535328 0.071329 -0.138174
C9    C     C_R   0.623779 0.535266 0.927612 -0.153418
C10   C     C_R   0.371037 0.475140 0.929276 0.212987
C11   C     C_3   0.283134 0.356244 0.926433 0.269083
C12   C     C_R   0.218774 0.500158 0.500051 0.935671
C13   C     C_3   0.281838 0.357787 0.080443 -0.596376
C14   C     C_R   0.505120 0.739951 0.499567 0.870119
C15   C     C_R   0.781242 0.500575 0.499881 0.925699
C16   C     C_1   0.065443 0.500878 0.499959 -0.190476
C17   C     C_1   0.934603 0.501112 0.499633 -0.216285
C18   C     C_R   0.534868 0.062454 0.622071 0.138124
C19   C     C_R   0.529147 0.128412 0.500316 -0.100988
C20   C     C_R   0.553582 0.065546 0.377902 -0.235271
H1    H     H_    0.561507 0.115141 0.282203 0.170076
H2    H     H_    0.349010 0.279654 0.880143 0.085107
H3    H     H_    0.169049 0.374117 0.125453 0.221412
H4    H     H_    0.345722 0.279013 0.126468 0.182053
H5    H     H_    0.561995 0.888044 0.281470 0.173628
H6    H     H_    0.323307 0.884622 0.718871 0.205251
H7    H     H_    0.493193 0.883587 0.831176 0.206628
H8    H     H_    0.323083 0.108431 0.720741 0.203941
H9    H     H_    0.494151 0.106218 0.832696 0.195160
H10   H     H_    0.724520 0.562118 0.124714 0.159844
H11   H     H_    0.724605 0.561959 0.873484 0.171678
N1    N     N_R   0.499010 0.499140 0.142800 -0.103706
N2    N     N_R   0.499010 0.499180 0.857150 -0.141097
O1    O     O_R   0.500020 0.316790 0.614690 -0.620814
O2    O     O_R   0.500000 0.316760 0.385350 -0.623776
O3    O     O_R   0.285350 0.500020 0.614650 -0.583864
O4    O     O_R   0.285340 0.499980 0.385310 -0.613973
O5    O     O_R   0.500000 0.683240 0.614650 -0.616531
O6    O     O_R   0.499980 0.683210 0.385310 -0.621444
O7    O     O_R   0.714660 0.500020 0.614690 -0.626759
O8    O     O_R   0.714650 0.499980 0.385350 -0.622267
Zn1   Zn    Zn3+2 0.500010 0.500020 0.653130 0.953497
Zn2   Zn    Zn3+2 0.499990 0.499980 0.346870 0.941293
O9    O     O_3   0.139547 0.374998 0.869429 -0.605852
C21   C     C_3   0.056642 0.261664 0.871277 0.092845
H12   H     H_    0.964055 0.270747 0.946167 0.152241
H13   H     H_    0.123517 0.177351 0.900699 0.120495
C22   C     C_3   0.989227 0.240031 0.731384 -0.327804
H14   H     H_    0.909209 0.316623 0.707851 0.241961
H15   H     H_    0.080295 0.241080 0.654246 0.216959
C23   C     C_3   0.906310 0.115276 0.724527 -0.971436
H16   H     H_    0.984375 0.036687 0.746266 0.262874
H17   H     H_    0.859880 0.102804 0.621325 0.269927
H18   H     H_    0.812356 0.113229 0.798651 0.266095

loop_
_geom_bond_atom_site_label_1
_geom_bond_atom_site_label_2
_ccdc_geom_bond_type
O4    Zn2   S    
C7    C10   A    
C23   H16   S    
C12   O3    A    
C11   C13   S    
C11   H2    S    
O3    Zn1   S    
C19   C20   A    
O1    Zn1   S    
C23   H18   S    
C4    C18   A    
O7    Zn1   S    
C2    C3    A    
C8    H10   S    
C11   O9    S    
C21   H12   S    
O9    C21   S    
C9    N2    A    
C4    C5    S    
O8    Zn2   S    
C15   O8    A    
C2    H5    S    
C3    C14   S    
N2    Zn1   S    
C22   H15   S    
C22   H14   S    
N1    Zn2   S    
C1    O1    A    
O5    Zn1   S    
C10   N2    A    
C21   H13   S    
C5    C6    S    
C6    C18   S    
C15   O7    A    
C1    C19   S    
C14   O5    A    
C10   C11   S    
C9    H11   S    
C2    C20   A    
C5    H6    S    
C8    N1    A    
C7    C13   S    
C6    H9    S    
O2    Zn2   S    
C20   H1    S    
C13   H3    S    
C18   C19   A    
C21   C22   S    
C12   O4    A    
C15   C17   S    
C1    O2    A    
C16   C17   T    
O6    Zn2   S    
C7    N1    A    
C14   O6    A    
C5    H7    S    
C22   C23   S    
C6    H8    S    
C3    C4    A    
C12   C16   S    
C13   H4    S    
C8    C9    A    
C23   H17   S    
