data_mof_unit_50831.cif
_audit_creation_date              2012-12-10T20:31:59-0500
_audit_creation_method            fapswitch 2.2
_symmetry_space_group_name_H-M    P1
_symmetry_Int_Tables_number       1
_space_group_crystal_system       triclinic
_cell_length_a                    9.879142
_cell_length_b                    10.706065
_cell_length_c                    15.488679
_cell_angle_alpha                 89.989309
_cell_angle_beta                  68.229025
_cell_angle_gamma                 89.442784
_cell_volume                      1521.25916869

loop_
_atom_site_label
_atom_site_type_symbol
_atom_type_description
_atom_site_fract_x
_atom_site_fract_y
_atom_site_fract_z
_atom_type_partial_charge
C1    C     C_R   0.501202 0.740070 0.497324 0.882610
C2    C     C_R   0.742450 0.474871 0.029911 0.178629
C3    C     C_R   0.597302 0.440723 0.084489 0.096856
C4    C     C_R   0.409140 0.497628 0.675907 0.886003
C5    C     C_R   0.840110 0.507351 0.072621 -0.215509
C6    C     C_R   0.793171 0.512202 0.169128 -0.202376
C7    C     C_R   0.552819 0.447213 0.181036 -0.261438
C8    C     C_R   0.393165 0.937725 0.475363 0.124128
C9    C     C_R   0.510036 0.871507 0.482965 -0.075359
C10   C     C_R   0.639298 0.934253 0.472853 -0.216024
C11   C     C_R   0.639724 0.063455 0.473044 -0.199488
C12   C     C_R   0.429641 0.436296 0.906396 0.100255
C13   C     C_R   0.510803 0.128782 0.483635 -0.079001
C14   C     C_R   0.392955 0.065150 0.476603 0.040170
C15   C     C_3   0.231588 0.073099 0.530545 -0.215178
C16   C     C_R   0.502047 0.260096 0.497436 0.890568
C17   C     C_3   0.233040 0.930995 0.530094 -0.553604
C18   C     C_R   0.882690 0.528528 0.579066 0.244428
C19   C     C_R   0.972321 0.460650 0.424426 -0.146766
C20   C     C_R   0.116071 0.460551 0.424441 -0.117495
C21   C     C_R   0.024983 0.526994 0.579387 0.260973
C22   C     C_3   0.999578 0.645610 0.633164 -0.537881
C23   C     C_R   0.290189 0.386967 0.956725 0.175844
C24   C     C_3   0.847428 0.649307 0.631040 -0.514427
C25   C     C_R   0.590965 0.497675 0.324181 0.862876
C26   C     C_R   0.355809 0.474418 0.775782 -0.056689
C27   C     C_R   0.647984 0.485517 0.223254 -0.053451
C28   C     C_R   0.186242 0.378957 0.914909 -0.209427
C29   C     C_R   0.219754 0.421158 0.824024 -0.179835
C30   C     C_R   0.455296 0.487360 0.819209 -0.246838
C31   C     C_2   0.186451 0.129729 0.626534 0.988061
C32   C     C_R   0.538163 0.437650 0.945533 0.072242
C33   C     C_R   0.497476 0.412060 0.041236 0.070318
C34   C     C_R   0.357799 0.361358 0.090282 -0.231189
C35   C     C_R   0.257013 0.346881 0.047771 -0.236063
C36   C     C_R   0.686028 0.463190 0.891874 -0.222448
C37   C     C_R   0.786777 0.480048 0.933643 -0.244572
H1    H     H_    0.151433 0.307385 0.087132 0.149684
H2    H     H_    0.000892 0.631452 0.703969 0.204448
H3    H     H_    0.441485 0.429206 0.224878 0.146559
H4    H     H_    0.069518 0.721418 0.592713 0.217833
H5    H     H_    0.761425 0.640576 0.701109 0.197527
H6    H     H_    0.830099 0.727166 0.588581 0.217485
H7    H     H_    0.868594 0.540735 0.201157 0.156030
H8    H     H_    0.898127 0.502715 0.890713 0.144086
H9    H     H_    0.080658 0.337933 0.951720 0.146461
H10   H     H_    0.141687 0.409409 0.790883 0.148161
H11   H     H_    0.553911 0.537448 0.783144 0.143870
H12   H     H_    0.950960 0.533660 0.031503 0.149243
H13   H     H_    0.324958 0.328533 0.160886 0.139929
H14   H     H_    0.727296 0.468179 0.816969 0.152237
H15   H     H_    0.049068 0.247342 0.721053 0.328278
H16   H     H_    0.736353 0.884719 0.471255 0.166660
H17   H     H_    0.736959 0.110988 0.471401 0.172256
H18   H     H_    0.172005 0.113585 0.488499 0.150658
H19   H     H_    0.208960 0.887851 0.599486 0.218381
H20   H     H_    0.173333 0.890963 0.488421 0.194993
H21   H     H_    0.954282 0.430825 0.362872 0.143475
H22   H     H_    0.205551 0.430129 0.362844 0.139884
N1    N     N_R   0.856900 0.500860 0.500610 -0.108090
N2    N     N_R   0.142540 0.500820 0.500610 -0.101219
O1    O     O_R   0.385310 0.683210 0.499990 -0.613239
O2    O     O_R   0.073053 0.217816 0.654835 -0.815087
O3    O     O_R   0.614650 0.683240 0.500000 -0.624610
O4    O     O_R   0.319830 0.499970 0.632240 -0.609090
O5    O     O_R   0.549170 0.500000 0.632250 -0.610677
O6    O     O_R   0.385350 0.316760 0.500000 -0.615498
O7    O     O_R   0.614690 0.316790 0.500010 -0.615331
O8    O     O_R   0.450830 0.500000 0.367750 -0.625934
O9    O     O_R   0.680170 0.500030 0.367760 -0.624666
O10   O     O_2   0.247467 0.098818 0.679169 -0.633108
Zn1   Zn    Zn3+2 0.346870 0.499980 0.499990 0.959330
Zn2   Zn    Zn3+2 0.653130 0.500020 0.500010 0.950182

loop_
_geom_bond_atom_site_label_1
_geom_bond_atom_site_label_2
_ccdc_geom_bond_type
C18   C21   A    
C24   H5    S    
C19   C20   A    
C1    O1    A    
C12   C23   A    
C28   H9    S    
C29   H10   S    
C18   C24   S    
C32   C36   A    
C30   H11   S    
C36   C37   A    
C34   C35   A    
C3    C7    A    
C4    O4    A    
C22   H4    S    
C3    C33   A    
N1    Zn2   S    
C7    C27   A    
O6    Zn1   S    
C20   N2    A    
C10   H16   S    
C8    C9    A    
O3    Zn2   S    
C16   O7    A    
C9    C10   A    
C21   N2    A    
C31   O10   D    
C6    H7    S    
C13   C14   A    
C12   C32   A    
C5    H12   S    
C19   H21   S    
C34   H13   S    
C31   O2    S    
C35   H1    S    
C1    C9    S    
O7    Zn2   S    
O5    Zn2   S    
C15   H18   S    
O8    Zn1   S    
C6    C27   A    
C7    H3    S    
O9    Zn2   S    
C33   C34   A    
O1    Zn1   S    
C16   O6    A    
C23   C28   A    
C20   H22   S    
C36   H14   S    
C17   H19   S    
C11   H17   S    
N2    Zn1   S    
C18   N1    A    
C26   C30   A    
C23   C35   A    
C22   C24   S    
C2    C5    A    
C25   O8    A    
C37   H8    S    
C1    O3    A    
C15   C17   S    
C28   C29   A    
C8    C14   A    
C12   C30   A    
H15   O2    S    
C4    C26   S    
C15   C31   S    
C19   N1    A    
C25   C27   S    
O4    Zn1   S    
C8    C17   S    
C32   C33   A    
C2    C3    A    
C4    O5    A    
C11   C13   A    
C2    C37   A    
C5    C6    A    
C22   H2    S    
C10   C11   A    
C26   C29   A    
C13   C16   S    
C24   H6    S    
C14   C15   S    
C25   O9    A    
C21   C22   S    
C17   H20   S    
