data_mof_unit_16438.cif
_audit_creation_date              2012-12-10T18:06:00-0500
_audit_creation_method            fapswitch 2.2
_symmetry_space_group_name_H-M    P1
_symmetry_Int_Tables_number       1
_space_group_crystal_system       triclinic
_cell_length_a                    12.616065
_cell_length_b                    13.066225
_cell_length_c                    14.885023
_cell_angle_alpha                 90.654839
_cell_angle_beta                  103.1236
_cell_angle_gamma                 81.822158
_cell_volume                      2364.77341759

loop_
_atom_site_label
_atom_site_type_symbol
_atom_type_description
_atom_site_fract_x
_atom_site_fract_y
_atom_site_fract_z
_atom_type_partial_charge
C1    C     C_R   0.438379 0.691410 0.484940 0.861018
C2    C     C_R   0.469796 0.588728 0.808071 -0.251211
C3    C     C_R   0.505974 0.497542 0.768954 -0.193213
C4    C     C_R   0.501712 0.499212 0.672753 0.939093
C5    C     C_R   0.545361 0.405576 0.820387 0.477274
C6    C     C_R   0.699501 0.064331 0.429696 -0.130032
C7    C     C_R   0.597995 0.198912 0.501937 -0.146410
C8    C     C_R   0.295879 0.841465 0.487745 -0.166072
C9    C     C_R   0.264832 0.947757 0.488859 -0.169387
C10   C     C_R   0.339284 0.014098 0.480409 -0.078467
C11   C     C_R   0.445098 0.974311 0.467621 0.074711
C12   C     C_R   0.532082 0.405364 0.100172 -0.012290
C13   C     C_R   0.466678 0.869117 0.447840 -0.013147
C14   C     C_R   0.529782 0.035584 0.472397 -0.109790
C15   C     C_R   0.620872 0.999522 0.433456 -0.043415
C16   C     C_R   0.561464 0.308401 0.509819 0.969048
C17   C     C_R   0.631113 0.899789 0.398542 0.567681
C18   C     C_R   0.556133 0.834543 0.407474 -0.231973
C19   C     C_R   0.529175 0.130155 0.518166 0.489140
C20   C     C_R   0.685636 0.165217 0.460617 -0.257828
C21   C     C_R   0.398147 0.801532 0.469774 -0.049727
C22   C     C_R   0.088997 0.342523 0.375987 -0.406892
C23   C     C_R   0.437346 0.685398 0.035032 0.452113
C24   C     C_R   0.796750 0.635863 0.603151 -0.109256
C25   C     C_R   0.898352 0.671845 0.618937 0.509590
C26   C     C_R   0.981415 0.618752 0.581187 -0.267388
C27   C     C_R   0.961372 0.533666 0.523389 -0.034617
C28   C     C_R   0.498811 0.499651 0.327455 1.038494
C29   C     C_R   0.854911 0.504030 0.506136 0.206673
C30   C     C_R   0.041468 0.478419 0.480511 0.033439
C31   C     C_R   0.012318 0.397113 0.419802 0.117528
C32   C     C_R   0.906814 0.370696 0.403278 -0.243617
C33   C     C_R   0.829524 0.423412 0.445972 -0.168293
C34   C     C_R   0.436483 0.682920 0.941255 0.511516
C35   C     C_R   0.150162 0.499559 0.495786 -0.148000
C36   C     C_R   0.194619 0.369318 0.391519 0.679504
C37   C     C_R   0.530262 0.406440 0.192957 0.478519
C38   C     C_R   0.496312 0.498835 0.231829 -0.321413
C39   C     C_R   0.463726 0.591181 0.181211 0.548462
C40   C     C_R   0.466537 0.592609 0.088059 -0.195984
C41   C     C_R   0.500544 0.498400 0.047288 -0.138459
C42   C     C_3   0.505870 0.107384 0.662997 -0.257533
C43   C     C_3   0.245051 0.329137 0.255953 -0.268375
C44   C     C_3   0.855936 0.846115 0.630258 -0.282493
C45   C     C_R   0.470164 0.590145 0.901050 -0.044368
C46   C     C_3   0.493695 0.832809 0.098107 -0.114496
C47   C     C_3   0.698032 0.312645 0.788210 -0.243061
C48   C     C_3   0.512733 0.155878 0.917229 -0.249225
C49   C     C_R   0.503614 0.497186 0.953999 -0.081153
C50   C     C_R   0.539180 0.403128 0.913399 -0.058449
C51   C     C_R   0.565891 0.310001 0.966496 0.498394
C52   C     C_R   0.564913 0.312811 0.059911 -0.249472
F1    F     F_    0.561647 0.318322 0.245980 -0.691017
F2    F     F_    0.715787 0.863889 0.358973 -0.682735
F3    F     F_    0.430205 0.678398 0.223969 -0.648794
F4    F     F_    0.402963 0.771762 0.889687 -0.660412
H1    H     H_    0.768419 0.039019 0.398782 0.199802
H2    H     H_    0.059258 0.647694 0.596357 0.164706
H3    H     H_    0.749915 0.400013 0.429921 0.216845
H4    H     H_    0.441827 0.658473 0.765398 0.201609
H5    H     H_    0.589763 0.241690 0.100737 0.212319
H6    H     H_    0.740415 0.217636 0.448845 0.175285
H7    H     H_    0.453692 0.134941 0.711541 0.212695
H8    H     H_    0.506901 0.022322 0.657257 0.151195
H9    H     H_    0.590287 0.125119 0.692757 0.183301
H10   H     H_    0.317569 0.299830 0.227747 0.220359
H11   H     H_    0.221194 0.412457 0.235363 0.159105
H12   H     H_    0.240892 0.790649 0.502483 0.158251
H13   H     H_    0.178114 0.284161 0.224373 0.148217
H14   H     H_    0.767221 0.847223 0.628607 0.147889
H15   H     H_    0.867998 0.855806 0.559122 0.183463
H16   H     H_    0.882707 0.913813 0.670108 0.197223
H17   H     H_    0.521965 0.855255 0.036519 0.151797
H18   H     H_    0.563011 0.787541 0.148408 0.168167
H19   H     H_    0.467635 0.904965 0.132177 0.187671
H20   H     H_    0.728645 0.242184 0.754223 0.174406
H21   H     H_    0.741704 0.306816 0.862250 0.182740
H22   H     H_    0.719457 0.380046 0.754833 0.162852
H23   H     H_    0.311810 0.096179 0.481439 0.204377
H24   H     H_    0.434914 0.197032 0.873771 0.161549
H25   H     H_    0.499309 0.131879 0.984747 0.153535
H26   H     H_    0.536377 0.084371 0.881270 0.188708
H27   H     H_    0.184726 0.978721 0.500099 0.153995
H28   H     H_    0.567249 0.757622 0.380258 0.224866
H29   H     H_    0.883707 0.308868 0.356949 0.166235
H30   H     H_    0.067423 0.279193 0.331077 0.163320
H31   H     H_    0.180668 0.557774 0.542444 0.151530
H32   H     H_    0.732249 0.673798 0.634054 0.157366
N1    N     N_R   0.222190 0.444670 0.452360 -0.142205
N2    N     N_R   0.776970 0.554790 0.547140 -0.157305
O1    O     O_R   0.366740 0.627160 0.477250 -0.622530
O2    O     O_3   0.274580 0.314640 0.352683 -0.581315
O3    O     O_3   0.919805 0.755410 0.674581 -0.593555
O4    O     O_3   0.403153 0.777972 0.072907 -0.518567
O5    O     O_3   0.583221 0.317889 0.777356 -0.592969
O6    O     O_3   0.598537 0.216704 0.928902 -0.581892
O7    O     O_R   0.544830 0.662520 0.507680 -0.632331
O8    O     O_R   0.410940 0.482340 0.616930 -0.606402
O9    O     O_R   0.589030 0.517700 0.647360 -0.632797
O10   O     O_R   0.455170 0.337480 0.492320 -0.515432
O11   O     O_R   0.633260 0.372840 0.522750 -0.666789
O12   O     O_R   0.410970 0.482300 0.352640 -0.587585
O13   O     O_R   0.589060 0.517660 0.383070 -0.636419
O14   O     O_3   0.460112 0.158668 0.577226 -0.615740
Zn1   Zn    Zn3+2 0.381090 0.476390 0.479680 1.028490
Zn2   Zn    Zn3+2 0.618910 0.523610 0.520320 0.936237

loop_
_geom_bond_atom_site_label_1
_geom_bond_atom_site_label_2
_ccdc_geom_bond_type
C36   N1    A    
C25   O3    S    
C4    O8    A    
C27   C29   A    
O1    Zn1   S    
C1    C21   S    
O10   Zn1   S    
C37   C38   A    
O8    Zn1   S    
C13   C18   A    
O12   Zn1   S    
C47   H20   S    
C52   H5    S    
C30   C31   A    
C11   C14   A    
C2    H4    S    
C23   C40   A    
C29   C33   A    
C48   H25   S    
C44   H15   S    
C12   C37   A    
C49   C50   A    
C46   H19   S    
C44   O3    S    
C12   C52   A    
C6    C15   A    
C35   H31   S    
C39   F3    S    
C8    C9    A    
C42   H9    S    
C18   H28   S    
C44   H14   S    
C28   C38   S    
C9    C10   A    
C51   O6    S    
C37   F1    S    
C36   O2    S    
C33   H3    S    
C27   C30   A    
C6    H1    S    
C34   F4    S    
C41   C49   A    
C29   N2    A    
C5    O5    S    
C17   C18   A    
C2    C45   A    
C22   C31   A    
C51   C52   A    
C24   C25   A    
N2    Zn2   S    
C1    O7    A    
C39   C40   A    
C16   O10   A    
C50   C51   A    
C25   C26   A    
C42   O14   S    
C12   C41   A    
C26   H2    S    
C19   O14   S    
C31   C32   A    
C46   O4    S    
C45   C49   A    
C23   C34   A    
C8    C21   A    
C26   C27   A    
C13   C21   A    
C34   C45   A    
C24   H32   S    
C9    H27   S    
O7    Zn2   S    
C30   C35   A    
C7    C16   S    
C35   N1    A    
C8    H12   S    
C7    C19   A    
C5    C50   A    
C47   H21   S    
C3    C4    S    
C42   H8    S    
C46   H18   S    
C6    C20   A    
O11   Zn2   S    
C15   C17   A    
O9    Zn2   S    
C40   C41   A    
C48   O6    S    
C14   C19   A    
C3    C5    A    
C24   N2    A    
C10   H23   S    
C22   C36   A    
C43   O2    S    
C23   O4    S    
C32   C33   A    
C48   H24   S    
C2    C3    A    
C11   C13   A    
C28   O13   A    
C38   C39   A    
C43   H10   S    
C32   H29   S    
C42   H7    S    
C48   H26   S    
C44   H16   S    
O13   Zn2   S    
C22   H30   S    
C20   H6    S    
C10   C11   A    
C28   O12   A    
C16   O11   A    
C43   H11   S    
C7    C20   A    
C1    O1    A    
C4    O9    A    
N1    Zn1   S    
C47   O5    S    
C14   C15   A    
C47   H22   S    
C43   H13   S    
C17   F2    S    
C46   H17   S    
