data_mof_unit_32029.cif
_audit_creation_date              2012-12-10T16:49:25-0500
_audit_creation_method            fapswitch 2.2
_symmetry_space_group_name_H-M    P1
_symmetry_Int_Tables_number       1
_space_group_crystal_system       triclinic
_cell_length_a                    7.79215
_cell_length_b                    8.618815
_cell_length_c                    12.779324
_cell_angle_alpha                 89.870957
_cell_angle_beta                  86.896873
_cell_angle_gamma                 92.633028
_cell_volume                      856.075030878

loop_
_atom_site_label
_atom_site_type_symbol
_atom_type_description
_atom_site_fract_x
_atom_site_fract_y
_atom_site_fract_z
_atom_type_partial_charge
C1    C     C_R   0.456251 0.206190 0.497143 0.916856
C2    C     C_R   0.624224 0.347729 0.145973 0.045116
C3    C     C_R   0.500968 0.399139 0.871666 0.016456
C4    C     C_R   0.499030 0.600856 0.128333 0.016456
C5    C     C_R   0.528387 0.428515 0.977524 0.018550
C6    C     C_R   0.471605 0.571476 0.022477 0.018550
C7    C     C_2   0.440170 0.045140 0.480986 -0.107087
C8    C     C_2   0.559829 0.954859 0.519015 -0.107088
C9    C     C_R   0.543749 0.793810 0.502857 0.916857
C10   C     C_R   0.464288 0.504269 0.699324 0.872764
C11   C     C_R   0.535712 0.495731 0.300676 0.872764
C12   C     C_R   0.560358 0.483554 0.189633 -0.158694
C13   C     C_R   0.439641 0.516443 0.810368 -0.158693
C14   C     C_R   0.385582 0.678034 0.960322 0.136688
C15   C     C_R   0.614401 0.321953 0.039681 0.136680
C16   C     C_R   0.375766 0.652262 0.854029 0.045113
H1    H     H_    0.583982 0.790288 0.209224 0.190521
H2    H     H_    0.395137 0.895712 0.023799 0.211281
H3    H     H_    0.604802 0.104273 0.976208 0.211281
H4    H     H_    0.783437 0.220612 0.935944 0.196958
H5    H     H_    0.040281 0.590299 0.322696 0.176155
H6    H     H_    0.027903 0.742595 0.403885 0.171867
H7    H     H_    0.959723 0.409706 0.677305 0.176156
H8    H     H_    0.972092 0.257406 0.596118 0.171867
H9    H     H_    0.188451 0.013028 0.448757 0.193169
H10   H     H_    0.324231 0.045310 0.342108 0.171128
H11   H     H_    0.811547 0.986971 0.551245 0.193169
H12   H     H_    0.369983 0.743759 0.229891 0.207369
H13   H     H_    0.675766 0.954690 0.657892 0.171128
H14   H     H_    0.416015 0.209708 0.790778 0.190519
H15   H     H_    0.630010 0.256239 0.770105 0.207375
H16   H     H_    0.803775 0.279832 0.243991 0.211132
H17   H     H_    0.604119 0.193786 0.267498 0.172047
H18   H     H_    0.196214 0.720153 0.756011 0.211134
H19   H     H_    0.395864 0.806211 0.732508 0.172047
H20   H     H_    0.216530 0.779341 0.064066 0.196951
N1    N     N_2   0.054030 0.541640 0.471970 -0.005851
N2    N     N_3   0.015100 0.372728 0.605930 -0.318333
N3    N     N_3   0.308425 0.987209 0.414164 -0.452476
N4    N     N_3   0.691574 0.012791 0.585837 -0.452478
N5    N     N_2   0.945970 0.458360 0.528030 -0.005851
N6    N     N_3   0.472344 0.751164 0.173612 -0.486181
N7    N     N_3   0.527654 0.248833 0.826386 -0.486192
N8    N     N_3   0.695813 0.231172 0.209043 -0.430461
N9    N     N_3   0.304171 0.768818 0.790961 -0.430463
N10   N     N_3   0.303032 0.812103 0.001698 -0.429629
N11   N     N_3   0.696925 0.187867 0.998310 -0.429624
N12   N     N_3   0.984901 0.627273 0.394070 -0.318334
O1    O     O_R   0.609680 0.261530 0.506880 -0.601557
O2    O     O_R   0.390320 0.738470 0.493120 -0.601557
O3    O     O_R   0.323330 0.288220 0.488910 -0.622317
O4    O     O_R   0.676670 0.711780 0.511090 -0.622318
O5    O     O_R   0.619510 0.488830 0.661140 -0.628816
O6    O     O_R   0.380490 0.511170 0.338860 -0.628817
O7    O     O_R   0.333160 0.515520 0.643180 -0.616356
O8    O     O_R   0.666840 0.484480 0.356820 -0.616355
Zn1   Zn    Zn3+2 0.691200 0.482180 0.511990 0.949711
Zn2   Zn    Zn3+2 0.308800 0.517820 0.488010 0.949710

loop_
_geom_bond_atom_site_label_1
_geom_bond_atom_site_label_2
_ccdc_geom_bond_type
C16   N9    S    
H6    N12   S    
C11   C12   S    
H20   N10   S    
C2    C15   A    
C4    C12   A    
H7    N2    S    
H15   N7    S    
H8    N2    S    
N1    Zn2   S    
C3    C13   A    
C15   N11   S    
H11   N4    S    
H5    N12   S    
C2    C12   A    
H16   N8    S    
N5    Zn1   S    
C7    C8    D    
C14   N10   S    
H18   N9    S    
H9    N3    S    
N1    N12   S    
C10   O7    A    
C1    O3    A    
C3    N7    S    
O7    Zn2   S    
C9    O4    A    
C4    N6    S    
H2    N10   S    
H13   N4    S    
C11   O6    A    
C14   C16   A    
N1    N5    D    
C5    C6    A    
H14   N7    S    
H3    N11   S    
H10   N3    S    
C5    C15   A    
H4    N11   S    
C6    C14   A    
O4    Zn1   S    
C11   O8    A    
O2    Zn2   S    
O1    Zn1   S    
O8    Zn1   S    
N2    N5    S    
C4    C6    A    
O6    Zn2   S    
C13   C16   A    
H12   N6    S    
O3    Zn2   S    
C10   O5    A    
C7    N3    S    
H1    N6    S    
O5    Zn1   S    
C8    N4    S    
C1    C7    S    
H17   N8    S    
C1    O1    A    
C9    O2    A    
C2    N8    S    
C8    C9    S    
C3    C5    A    
C10   C13   S    
H19   N9    S    
