data_mof_unit_34951.cif
_audit_creation_date              2012-12-10T16:47:16-0500
_audit_creation_method            fapswitch 2.2
_symmetry_space_group_name_H-M    P1
_symmetry_Int_Tables_number       1
_space_group_crystal_system       triclinic
_cell_length_a                    12.124236
_cell_length_b                    12.328726
_cell_length_c                    7.831538
_cell_angle_alpha                 90.306251
_cell_angle_beta                  94.660501
_cell_angle_gamma                 88.394804
_cell_volume                      1166.29605643

loop_
_atom_site_label
_atom_site_type_symbol
_atom_type_description
_atom_site_fract_x
_atom_site_fract_y
_atom_site_fract_z
_atom_type_partial_charge
C1    C     C_R   0.357541 0.848966 0.456607 0.900443
C2    C     C_2   0.687927 0.735943 0.549727 -0.333827
C3    C     C_2   0.727137 0.228255 0.568771 -0.247674
C4    C     C_2   0.280051 0.764908 0.433023 -0.243534
C5    C     C_2   0.744013 0.700867 0.416490 -0.245260
C6    C     C_2   0.187925 0.235940 0.549730 -0.333822
C7    C     C_2   0.227212 0.728187 0.568798 -0.247607
C8    C     C_2   0.779998 0.264958 0.433004 -0.243364
C9    C     C_2   0.706374 0.724603 0.233364 0.574089
C10   C     C_2   0.172085 0.168029 0.701960 0.544622
C11   C     C_2   0.253373 0.758639 0.751238 0.480556
C12   C     C_R   0.644570 0.149073 0.543973 0.943000
C13   C     C_2   0.758853 0.229834 0.251554 0.456211
C14   C     C_2   0.206356 0.224585 0.233367 0.574086
C15   C     C_2   0.672082 0.668027 0.701949 0.544600
C16   C     C_2   0.753207 0.258791 0.751185 0.480621
C17   C     C_2   0.258895 0.729796 0.251570 0.456358
C18   C     C_2   0.644896 0.024796 0.998445 0.703934
C19   C     C_2   0.359229 0.962276 0.000070 0.759058
C20   C     C_2   0.144904 0.524760 0.998441 0.703772
C21   C     C_2   0.859217 0.462313 0.000078 0.759048
C22   C     C_R   0.635119 0.841896 0.539977 0.877911
C23   C     C_R   0.345822 0.139906 0.451889 0.982806
C24   C     C_R   0.857520 0.348985 0.456600 0.900478
C25   C     C_R   0.144587 0.649058 0.543980 0.943065
C26   C     C_R   0.135118 0.341894 0.539977 0.877908
C27   C     C_R   0.845823 0.639907 0.451889 0.982766
C28   C     C_2   0.244008 0.200861 0.416492 -0.245266
H1    H     H_    0.618510 0.728059 0.192869 0.078935
H2    H     H_    0.351451 0.876898 0.023950 0.031517
H3    H     H_    0.162865 0.607583 0.970410 0.059406
H4    H     H_    0.851411 0.376941 0.023981 0.031419
H5    H     H_    0.155351 0.205821 0.822861 0.122904
H6    H     H_    0.335869 0.742612 0.811922 0.068300
H7    H     H_    0.678695 0.246469 0.183367 0.110678
H8    H     H_    0.118489 0.228053 0.192890 0.078960
H9    H     H_    0.655353 0.705815 0.822855 0.122878
H10   H     H_    0.835638 0.242697 0.812024 0.068267
H11   H     H_    0.178738 0.746445 0.183390 0.110796
H12   H     H_    0.662827 0.107629 0.970413 0.059129
N1    N     N_2   0.541470 0.000000 0.055820 -0.210513
N2    N     N_2   0.458530 1.000000 0.944180 -0.192740
N3    N     N_2   0.041470 0.500000 0.055820 -0.210486
N4    N     N_2   0.958530 0.500000 0.944180 -0.192712
O1    O     O_R   0.375700 0.885870 0.609240 -0.650789
O2    O     O_R   0.597720 0.114130 0.675960 -0.627099
O3    O     O_R   0.597720 0.885870 0.675960 -0.632181
O4    O     O_R   0.402280 0.114130 0.324040 -0.585945
O5    O     O_R   0.902280 0.385870 0.324040 -0.658650
O6    O     O_R   0.097720 0.614130 0.675960 -0.626998
O7    O     O_R   0.097720 0.385870 0.675960 -0.632177
O8    O     O_R   0.902280 0.614130 0.324040 -0.585961
O9    O     O_2   0.772567 0.742785 0.128311 -0.494619
O10   O     O_2   0.170297 0.069260 0.689765 -0.508840
O11   O     O_2   0.182088 0.800678 0.833461 -0.546007
O12   O     O_R   0.624300 0.114130 0.390760 -0.649453
O13   O     O_2   0.832160 0.184127 0.177959 -0.587827
O14   O     O_2   0.272542 0.242740 0.128291 -0.494632
O15   O     O_2   0.670284 0.569259 0.689740 -0.508770
O16   O     O_2   0.681912 0.300957 0.833214 -0.545758
O17   O     O_2   0.332192 0.684087 0.177962 -0.587794
O18   O     O_2   0.716826 0.954215 0.991583 -0.538266
O19   O     O_2   0.280834 0.024515 0.014944 -0.547948
O20   O     O_2   0.216817 0.454157 0.991602 -0.538282
O21   O     O_2   0.780833 0.524574 0.014910 -0.547976
O22   O     O_R   0.624300 0.885870 0.390760 -0.618054
O23   O     O_R   0.375700 0.114130 0.609240 -0.580950
O24   O     O_R   0.875700 0.385870 0.609240 -0.650797
O25   O     O_R   0.124300 0.614130 0.390760 -0.649504
O26   O     O_R   0.124300 0.385870 0.390760 -0.618051
O27   O     O_R   0.875700 0.614130 0.609240 -0.580950
O28   O     O_R   0.402280 0.885870 0.324040 -0.658644
Zn1   Zn    Zn3+2 0.482250 0.000000 0.690430 1.008898
Zn2   Zn    Zn3+2 0.517750 0.000000 0.309570 0.996698
Zn3   Zn    Zn3+2 0.982250 0.500000 0.690430 1.008922
Zn4   Zn    Zn3+2 0.017750 0.500000 0.309570 0.996687

loop_
_geom_bond_atom_site_label_1
_geom_bond_atom_site_label_2
_ccdc_geom_bond_type
C8    C13   S    
N1    N2    D    
C27   O27   A    
O24   Zn3   S    
C7    C11   S    
O7    Zn3   S    
C13   H7    S    
C14   H8    S    
C13   O13   D    
O22   Zn2   S    
C24   O5    A    
O25   Zn4   S    
O1    Zn1   S    
C16   O16   D    
C23   O23   A    
C17   H11   S    
C25   O6    A    
C22   O22   A    
C18   H12   S    
C3    C12   S    
C17   O17   D    
N1    Zn2   S    
C5    C27   S    
C6    C28   D    
C19   O19   D    
C2    C22   S    
O23   Zn1   S    
C19   N2    S    
C9    H1    S    
C22   O3    A    
C4    C7    D    
C14   O14   D    
C21   H4    S    
C1    O28   A    
O12   Zn2   S    
O4    Zn2   S    
O3    Zn1   S    
O28   Zn2   S    
C3    C8    D    
C18   N1    S    
C18   O18   D    
C20   O20   D    
N4    Zn3   S    
N3    N4    D    
C5    C9    S    
C21   N4    S    
O5    Zn4   S    
C23   C28   S    
C2    C15   S    
C12   O12   A    
C4    C17   S    
C12   O2    A    
O26   Zn4   S    
C26   O26   A    
C2    C5    D    
C25   O25   A    
C20   N3    S    
C11   O11   D    
C27   O8    A    
N3    Zn4   S    
N2    Zn1   S    
C23   O4    A    
C21   O21   D    
C15   O15   D    
C11   H6    S    
O8    Zn4   S    
C6    C10   S    
C7    C25   S    
C1    C4    S    
C15   H9    S    
O6    Zn3   S    
O27   Zn3   S    
C1    O1    A    
C6    C26   S    
C8    C24   S    
C10   H5    S    
C10   O10   D    
C24   O24   A    
C9    O9    D    
C14   C28   S    
C26   O7    A    
C19   H2    S    
O2    Zn1   S    
C3    C16   S    
C16   H10   S    
C20   H3    S    
