data_mof_unit_23099.cif
_audit_creation_date              2013-03-05T16:18:51-0500
_audit_creation_method            fapswitch 2.2
_symmetry_space_group_name_H-M    P1
_symmetry_Int_Tables_number       1
_space_group_crystal_system       triclinic
_cell_length_a                    8.608795
_cell_length_b                    18.878676
_cell_length_c                    22.89083
_cell_angle_alpha                 100.931453
_cell_angle_beta                  90.347687
_cell_angle_gamma                 92.387311
_cell_volume                      3649.23278939

loop_
_atom_site_label
_atom_site_type_symbol
_atom_site_description
_atom_site_fract_x
_atom_site_fract_y
_atom_site_fract_z
_atom_type_partial_charge
P1    P     P_3+3 0.935930 0.665430 0.555670 0.519626
O1    O     O_2   0.110690 0.676100 0.539200 -0.316719
O2    O     O_3   0.863220 0.586720 0.534720 -0.410209
O3    O     O_3   0.368310 0.629070 0.432760 -0.358788
O4    O     O_2   0.289405 0.753121 0.495184 -0.339034
O5    O     O_3   0.933717 0.688839 0.633327 -0.530176
O6    O     O_3   0.308066 0.753942 0.384750 -0.566143
C1    C     C_3   0.351498 0.819281 0.306411 -0.827720
H1    H     H_    0.241822 0.796161 0.283381 0.282278
H2    H     H_    0.327732 0.871029 0.336500 0.191331
P2    P     P_3+3 0.382700 0.439650 0.365620 0.683649
P3    P     P_3+3 0.933806 0.599535 0.327881 0.542362
O7    O     O_2   0.210480 0.460990 0.358130 -0.308946
O8    O     O_3   0.959520 0.592090 0.401630 -0.382017
O9    O     O_2   0.069502 0.559245 0.294745 -0.331096
O10   O     O_3   0.394912 0.350545 0.322856 -0.590923
O11   O     O_3   0.976294 0.688670 0.320251 -0.430454
C2    C     C_3   0.901074 0.735784 0.364905 0.336938
H3    H     H_    0.957074 0.735376 0.408689 0.055021
H4    H     H_    0.775626 0.720301 0.366780 0.014337
C3    C     C_3   0.917502 0.812657 0.352641 -0.120017
H5    H     H_    0.041445 0.831781 0.356674 0.125546
C4    C     C_3   0.861233 0.311638 0.317492 1.012643
C5    C     C_3   0.865562 0.242731 0.266504 0.510055
H6    H     H_    0.975264 0.217167 0.274978 -0.019762
Ba1   Ba    Ba6+2 0.157800 0.534120 0.474430 1.719193
C6    C     C_3   0.999868 0.637186 0.660660 0.202229
H7    H     H_    0.124529 0.632535 0.649272 0.067306
H8    H     H_    0.936991 0.583984 0.646454 0.049725
C7    C     C_3   0.982136 0.661818 0.728186 0.743636
H9    H     H_    0.031926 0.620343 0.750172 -0.224293
C8    C     C_3   0.339323 0.283903 0.336339 0.914877
C9    C     C_3   0.304139 0.231946 0.276118 0.038851
H10   H     H_    0.206498 0.252897 0.254141 0.070669
H11   H     H_    0.267862 0.177363 0.284539 0.106924
P4    P     P_3+3 0.874370 0.334570 0.444280 0.680134
O12   O     O_2   0.699610 0.323860 0.460780 -0.296241
O13   O     O_3   0.947090 0.413280 0.465240 -0.338712
O14   O     O_3   0.442000 0.370930 0.567190 -0.362338
O15   O     O_3   0.875768 0.283805 0.370098 -0.588526
P5    P     P_3+3 0.877517 0.420471 0.676228 0.546180
O16   O     O_3   0.359410 0.538600 0.570730 -0.393114
O17   O     O_3   0.850780 0.407910 0.598320 -0.326407
O18   O     O_2   0.735702 0.463697 0.698848 -0.394427
O19   O     O_3   0.844329 0.344702 0.711624 -0.586107
Ba2   Ba    Ba6+2 0.652390 0.465870 0.525520 1.727672
P6    P     P_3+3 0.397826 0.723575 0.443976 0.468982
C10   C     C_3   0.417674 0.766682 0.342141 0.792599
H12   H     H_    0.528596 0.791873 0.362520 -0.047152
H13   H     H_    0.435690 0.830389 0.272402 0.272118
O20   O     O_3   0.450900 0.461390 0.429220 -0.330594
C11   C     C_3   0.517629 0.691554 0.639634 0.233166
H14   H     H_    0.632252 0.667548 0.629944 0.105034
H15   H     H_    0.456066 0.693548 0.597189 0.127795
C12   C     C_3   0.543953 0.767796 0.676855 -0.011592
H16   H     H_    0.623037 0.765715 0.714997 0.183744
H17   H     H_    0.431956 0.788057 0.695409 0.211538
P7    P     P_3+3 0.423432 0.559561 0.646074 0.510476
O21   O     O_2   0.599830 0.538970 0.641850 -0.328251
O22   O     O_3   0.424387 0.652533 0.673543 -0.539278
H18   H     H_    0.852729 0.849280 0.386532 0.057735
C13   C     C_3   0.885497 0.273593 0.683484 0.817089
C14   C     C_3   0.865665 0.225363 0.731394 -0.169525
H19   H     H_    0.871881 0.167031 0.710755 0.177165
H20   H     H_    0.750272 0.232738 0.752124 0.134662
P8    P     P_3+3 0.407966 0.277616 0.561005 0.604168
C15   C     C_3   0.447915 0.299229 0.677673 0.244774
H21   H     H_    0.359248 0.339767 0.677651 0.121956
O23   O     O_2   0.535965 0.240920 0.520949 -0.313351
O24   O     O_3   0.444110 0.245605 0.626353 -0.498384
H22   H     H_    0.562706 0.328189 0.682444 0.110486
H23   H     H_    0.308654 0.229396 0.724002 0.225728
C16   C     C_3   0.422206 0.259383 0.729355 -0.072976
H24   H     H_    0.509762 0.217974 0.728619 0.136895
C17   C     C_R   0.998644 0.953745 0.525498 -0.014507
C18   C     C_R   0.086640 0.909141 0.554575 -0.050556
C19   C     C_R   0.233811 0.935693 0.578406 -0.042925
C20   C     C_R   0.294952 0.002958 0.571419 -0.177946
C21   C     C_R   0.206268 0.048256 0.544304 0.100433
C22   C     C_R   0.056303 0.024677 0.522468 0.054811
C23   C     C_R   0.263649 0.117862 0.541376 -0.140526
C24   C     C_R   0.168339 0.168257 0.522217 -0.011135
C25   C     C_R   0.017109 0.145239 0.499992 0.031816
C26   C     C_R   0.963095 0.072601 0.499096 0.009056
C27   C     C_R   0.216485 0.241859 0.528113 0.296354
C28   C     C_R   0.113357 0.291427 0.513289 -0.256512
C29   C     C_R   0.969414 0.269331 0.485362 0.342413
C30   C     C_R   0.920321 0.194304 0.478404 -0.026683
C31   C     C_R   0.849543 0.929578 0.503050 -0.017759
C32   C     C_R   0.794433 0.857399 0.503212 0.011498
C33   C     C_R   0.885836 0.810228 0.529975 -0.174342
C34   C     C_R   0.023752 0.840847 0.562160 0.363283
H25   H     H_    0.304206 0.905049 0.602515 0.226331
H26   H     H_    0.409894 0.020657 0.589395 0.175689
H27   H     H_    0.150342 0.347948 0.520566 0.152161
H28   H     H_    0.381399 0.132572 0.556705 0.196121
C35   C     C_R   0.776848 0.166452 0.451665 -0.056898
C36   C     C_R   0.719579 0.096110 0.453835 0.099197
C37   C     C_R   0.813189 0.048759 0.477463 0.023529
C38   C     C_R   0.756266 0.977585 0.479531 0.039096
C39   C     C_R   0.567725 0.072927 0.434219 -0.129216
C40   C     C_R   0.510343 0.003424 0.437309 -0.220079
C41   C     C_R   0.604224 0.955202 0.459372 0.146454
C42   C     C_R   0.645003 0.833705 0.478181 0.069429
C43   C     C_R   0.548247 0.884898 0.460870 -0.242614
C44   C     C_R   0.595771 0.759928 0.471994 0.152759
C45   C     C_R   0.692458 0.712273 0.493206 -0.474170
C46   C     C_R   0.833414 0.735446 0.523384 0.242261
H29   H     H_    0.705101 0.199422 0.430651 0.221679
H30   H     H_    0.491340 0.108966 0.417800 0.192415
H31   H     H_    0.392323 0.987305 0.422191 0.135525
H32   H     H_    0.429174 0.870375 0.447063 0.152644
H33   H     H_    0.652449 0.656398 0.489054 0.158783
H34   H     H_    0.203203 0.352381 0.944243 0.214906
C47   C     C_R   0.632476 0.534786 0.337742 -0.443622
C48   C     C_R   0.361708 0.589935 0.955123 -0.236360
C49   C     C_R   0.313934 0.585689 0.894473 0.588541
O25   O     O_2   0.341870 0.636318 0.869442 -0.487320
N1    N     N_R   0.237436 0.523679 0.863076 -0.182447
C50   C     C_R   0.198417 0.467807 0.892319 0.634569
O26   O     O_2   0.106450 0.419605 0.869612 -0.483762
C51   C     C_R   0.266245 0.464964 0.947673 -0.120814
C52   C     C_R   0.345289 0.526700 0.979985 -0.031160
C53   C     C_R   0.432459 0.653184 0.990975 0.374764
C54   C     C_R   0.484247 0.651744 0.049159 -0.172937
C55   C     C_R   0.472544 0.588138 0.072881 -0.109940
C56   C     C_R   0.407824 0.524787 0.037272 -0.049910
C57   C     C_R   0.259432 0.400670 0.970313 -0.213037
C58   C     C_R   0.331747 0.396518 0.024829 0.635239
C59   C     C_R   0.409313 0.459049 0.058293 -0.210112
C60   C     C_R   0.487744 0.458335 0.112724 0.582843
N2    N     N_R   0.519839 0.522053 0.152967 -0.167089
C61   C     C_R   0.520842 0.586724 0.131997 0.632099
C62   C     C_2   0.069410 0.492817 0.774007 -0.144557
C63   C     C_3   0.043079 0.484171 0.707381 0.159138
C64   C     C_1   0.316461 0.512070 0.697811 0.113228
C65   C     C_2   0.347402 0.518083 0.756132 0.525624
C66   C     C_2   0.212672 0.513030 0.798407 -0.010951
C67   C     C_R   0.704115 0.551861 0.238549 -0.166937
C68   C     C_R   0.739662 0.560323 0.299155 0.157170
C69   C     C_R   0.492726 0.496619 0.316179 0.256261
C70   C     C_R   0.456095 0.490920 0.253959 0.512546
C71   C     C_R   0.560341 0.520929 0.215298 0.036740
O27   O     O_2   0.534159 0.401635 0.122860 -0.525710
O28   O     O_2   0.564596 0.643119 0.164408 -0.487502
C72   C     C_2   0.192448 0.474245 0.673507 -0.470748
H35   H     H_    0.534632 0.701126 0.075858 0.208753
H36   H     H_    0.787242 0.571605 0.209444 0.184237
H37   H     H_    0.969768 0.489501 0.802310 0.159246
H38   H     H_    0.663904 0.539983 0.384239 0.181666
H39   H     H_    0.190018 0.448995 0.626730 0.193885
N3    N     N_R   0.450070 0.699680 0.302134 0.222841
O29   O     O_R   0.588505 0.692267 0.280361 -0.397916
O30   O     O_R   0.336770 0.655514 0.278535 -0.319239
O31   O     O_3   0.738416 0.194444 0.271493 -0.559030
C73   C     C_3   0.767418 0.123591 0.241745 0.027579
H40   H     H_    0.882137 0.105031 0.255055 0.089320
H41   H     H_    0.760282 0.119923 0.192542 0.137476
H42   H     H_    0.675738 0.085742 0.254355 0.161197
N4    N     N_R   0.870706 0.258438 0.206038 0.200245
O32   O     O_R   0.743068 0.261713 0.176157 -0.309238
O33   O     O_R   0.001371 0.254908 0.177705 -0.511345
N5    N     N_R   0.071216 0.729765 0.749437 0.265188
O34   O     O_R   0.222254 0.729635 0.752053 -0.358098
O35   O     O_R   0.001612 0.787355 0.775331 -0.258879
O36   O     O_3   0.822010 0.671137 0.740462 -0.642742
C74   C     C_3   0.785296 0.651989 0.795660 0.022637
H43   H     H_    0.861948 0.681920 0.832488 0.141642
H44   H     H_    0.794295 0.592933 0.792563 0.108237
H45   H     H_    0.663513 0.665883 0.806483 0.219354
N6    N     N_R   0.199178 0.289061 0.370742 0.160115
O37   O     O_R   0.134154 0.227939 0.378367 -0.526257
O38   O     O_R   0.189696 0.344652 0.413199 -0.397919
N7    N     N_R   0.456556 0.254377 0.369784 0.217838
O39   O     O_R   0.445671 0.270010 0.426964 -0.389069
O40   O     O_R   0.522863 0.194970 0.347010 -0.424504
O41   O     O_3   0.434906 0.227395 0.238780 -0.510612
C75   C     C_3   0.397554 0.179905 0.184524 0.080887
H46   H     H_    0.305343 0.201819 0.159494 0.119480
H47   H     H_    0.361922 0.124894 0.191922 0.082647
H48   H     H_    0.502183 0.174157 0.156314 0.180826
N8    N     N_R   0.607890 0.818682 0.641993 0.228781
O42   O     O_R   0.711877 0.867505 0.666183 -0.296904
O43   O     O_R   0.530975 0.829172 0.595722 -0.422392
N9    N     N_R   0.782101 0.244433 0.632626 0.191749
O44   O     O_R   0.780459 0.276565 0.587595 -0.362070
O45   O     O_R   0.719570 0.179264 0.625593 -0.429118
N10   N     N_R   0.046032 0.269811 0.663291 0.194914
O46   O     O_R   0.107686 0.321228 0.639842 -0.506238
O47   O     O_R   0.104849 0.206491 0.649952 -0.453389
N11   N     N_R   0.983623 0.242935 0.778660 0.286169
O48   O     O_R   0.081100 0.194361 0.786435 -0.320085
O49   O     O_R   0.965902 0.298221 0.821357 -0.252250
N12   N     N_R   0.425214 0.308816 0.786201 0.225230
O50   O     O_R   0.527714 0.303519 0.827149 -0.354274
O51   O     O_R   0.311463 0.351860 0.798938 -0.381251
N13   N     N_R   0.077186 0.813655 0.612801 0.251171
O52   O     O_R   0.011749 0.835736 0.663588 -0.270959
O53   O     O_R   0.214476 0.787707 0.613286 -0.377821
O54   O     O_3   0.328368 0.331742 0.045778 -0.581130
C76   C     C_3   0.172915 0.305210 0.049608 -0.121439
H49   H     H_    0.130122 0.275116 0.005632 0.168613
H50   H     H_    0.092688 0.349050 0.067701 0.124003
H51   H     H_    0.170662 0.266190 0.080482 0.201606
N14   N     N_R   0.449719 0.720150 0.970209 0.263616
O55   O     O_R   0.585054 0.754558 0.974154 -0.346193
O56   O     O_R   0.326675 0.753197 0.958433 -0.286669
O57   O     O_3   0.497437 0.536754 0.777653 -0.627202
C77   C     C_3   0.554776 0.480229 0.803025 0.011328
H52   H     H_    0.678571 0.492555 0.815677 0.132755
H53   H     H_    0.549090 0.428595 0.770538 0.154065
H54   H     H_    0.495374 0.473798 0.844427 0.109741
O58   O     O_3   0.310709 0.464967 0.232437 -0.645335
C78   C     C_3   0.310789 0.390111 0.208937 -0.081304
H55   H     H_    0.235770 0.360733 0.235505 0.161927
H56   H     H_    0.425466 0.365438 0.207537 0.238748
H57   H     H_    0.258383 0.379966 0.163758 0.169871
N15   N     N_R   0.857455 0.816509 0.293532 0.299505
O59   O     O_R   0.742849 0.857742 0.288101 -0.387095
O60   O     O_R   0.929110 0.785677 0.246100 -0.287720
N16   N     N_R   0.715180 0.347604 0.318741 0.189425
O61   O     O_R   0.645981 0.351102 0.268882 -0.441692
O62   O     O_R   0.693964 0.398126 0.364441 -0.439275
O63   O     O_3   0.990915 0.358551 0.311953 -0.692435
C79   C     C_3   0.956334 0.409006 0.275934 -0.151117
H58   H     H_    0.899989 0.386023 0.232732 0.155211
H59   H     H_    0.062129 0.435974 0.265022 0.237620
H60   H     H_    0.885864 0.450391 0.301356 0.168211

loop_
_geom_bond_atom_site_label_1
_geom_bond_atom_site_label_2
_geom_bond_distance
_ccdc_geom_bond_type
N12   O51   1.297759 A    
N6    O37   1.303474 A    
C14   H20   1.106158 S    
C55   C56   1.405156 A    
C48   C52   1.419024 A    
Ba2   O21   2.805900 S    
C6    H8    1.111866 S    
C2    C3    1.530635 S    
C76   H50   1.120094 S    
C76   H49   1.110395 S    
N5    O34   1.301398 A    
C73   H42   1.118396 S    
C22   C26   1.409787 A    
C57   C58   1.408101 A    
C79   H60   1.090155 S    
P8    C27   1.854538 S    
C42   C44   1.419472 A    
C35   C36   1.407046 A    
N9    O44   1.291675 A    
C74   H44   1.109646 S    
C27   C28   1.401795 A    
C50   O26   1.216840 D    
O4    P6    1.537861 D    
C39   C40   1.397251 A    
C54   C55   1.408831 A    
C3    H5    1.109693 S    
C73   H40   1.120974 S    
N5    O35   1.306373 A    
C11   C12   1.534404 S    
C79   H58   1.102470 S    
C2    H3    1.111025 S    
C49   N1    1.389817 Am   
C7    H9    1.106753 S    
C53   N14   1.435059 S    
C78   H56   1.107082 S    
N9    O45   1.303073 A    
P8    O23   1.539420 D    
C44   C45   1.400421 A    
P7    O22   1.748228 S    
C4    O15   1.409075 S    
O19   C13   1.434262 S    
P2    O7    1.569299 D    
C77   H54   1.103979 S    
C35   H29   1.068768 S    
C48   C49   1.432175 A    
C2    H4    1.110234 S    
N10   O47   1.300949 A    
P1    O1    1.567352 D    
O16   Ba2   3.016461 S    
C19   H25   1.073655 S    
N13   O53   1.298895 A    
O5    C6    1.392835 S    
N8    O42   1.299701 A    
C45   H33   1.082428 S    
C11   O22   1.401675 S    
C9    H11   1.116147 S    
N7    O39   1.290877 A    
C67   C71   1.403613 A    
C13   C14   1.558520 S    
C4    N16   1.451534 S    
C55   C61   1.418675 A    
C11   H15   1.111565 S    
O54   C76   1.418367 S    
P3    O11   1.748397 S    
C4    C5    1.576268 S    
P3    C68   1.863535 S    
P4    Ba2   3.455996 S    
C15   C16   1.530115 S    
N2    C61   1.393758 Am   
C17   C22   1.422911 A    
C3    H18   1.106696 S    
C30   C35   1.411150 A    
O12   Ba2   2.853107 S    
C5    O31   1.414225 S    
C19   C20   1.391974 A    
P6    C44   1.873112 S    
N2    C71   1.471018 S    
C25   C30   1.424566 A    
C74   H43   1.116660 S    
C16   N12   1.449775 S    
O63   C79   1.412183 S    
C6    C7    1.537840 S    
C76   H51   1.113057 S    
P5    O17   1.766282 S    
O16   P7    1.773791 S    
C40   H31   1.083818 S    
N13   O52   1.298594 A    
C69   C70   1.439854 A    
C7    N5    1.465272 S    
C42   C43   1.411797 A    
O17   Ba2   2.775607 S    
C50   C51   1.403126 A    
C75   H46   1.114149 S    
C74   H45   1.109384 S    
N7    O40   1.300230 A    
N14   O56   1.303581 A    
P4    C29   1.893307 S    
O3    Ba1   2.793933 S    
C67   C68   1.396620 A    
C67   H36   1.082905 S    
C31   C38   1.412980 A    
C9    O41   1.413185 S    
C15   H21   1.103239 S    
C58   O54   1.394947 S    
P4    O15   1.784972 S    
C18   C19   1.410336 A    
C7    O36   1.419966 S    
C77   H52   1.106264 S    
C54   H35   1.085269 S    
O57   C77   1.412501 S    
C33   C34   1.434317 A    
C21   C23   1.398207 A    
C23   H28   1.078456 S    
C17   C31   1.405014 A    
C78   H55   1.094252 S    
C1    H1    1.110074 S    
P2    Ba1   3.434323 S    
P7    C64   1.844347 S    
P7    O21   1.582160 D    
N14   O55   1.304198 A    
C62   H37   1.084962 S    
C8    N7    1.454218 S    
Ba2   O20   2.783151 S    
C38   C41   1.406179 A    
C23   C24   1.410544 A    
N11   O48   1.304225 A    
C8    C9    1.552894 S    
C72   H39   1.086045 S    
P1    O2    1.574298 S    
O6    P6    1.755780 S    
C17   C18   1.409090 A    
C1    C10   1.526112 S    
N16   O61   1.298235 A    
H34   C57   1.083940 S    
P2    O10   1.786192 S    
C52   C56   1.421891 A    
C25   C26   1.425916 A    
P3    O9    1.544178 D    
O58   C78   1.413583 S    
C45   C46   1.404300 A    
C63   C72   1.505649 S    
P5    O18   1.534584 D    
O8    Ba1   2.775115 S    
C12   H16   1.111477 S    
O11   C2    1.402306 S    
C41   C43   1.399693 A    
N1    C66   1.468672 S    
C5    H6    1.110723 S    
P2    C69   1.929893 S    
C32   C42   1.424480 A    
C18   C34   1.418965 A    
O14   Ba2   2.793157 S    
C10   H12   1.108268 S    
C43   H32   1.079637 S    
P3    O8    1.734001 S    
C36   C37   1.406833 A    
C3    N15   1.461239 S    
C12   H17   1.109217 S    
C10   N3    1.452444 S    
P1    Ba1   3.455562 S    
O14   P8    1.752481 S    
O7    Ba1   2.805690 S    
C61   O28   1.220425 D    
C32   C33   1.430726 A    
C60   N2    1.385953 Am   
C36   C39   1.404579 A    
C16   H24   1.106263 S    
C1    H13   1.109704 S    
P5    C63   1.872374 S    
C11   H14   1.109097 S    
Ba1   O16   2.783788 S    
C13   N10   1.460194 S    
C58   C59   1.418237 A    
P4    O12   1.567641 D    
P5    O19   1.786768 S    
C48   C53   1.425467 A    
C47   C69   1.412762 A    
C28   C29   1.401580 A    
C26   C37   1.404474 A    
C33   C46   1.443897 A    
C8    N6    1.441363 S    
O2    Ba1   3.009057 S    
Ba1   O13   2.829776 S    
C70   O58   1.378104 S    
N3    O30   1.301318 A    
H23   C16   1.103286 S    
C78   H57   1.105352 S    
O1    Ba1   2.852691 S    
C62   C66   1.360232 D    
C75   H47   1.114504 S    
N1    C50   1.383662 Am   
C5    N4    1.470021 S    
C62   C63   1.517335 S    
C14   H19   1.116545 S    
O10   C8    1.416336 S    
C24   C27   1.414561 A    
C65   C66   1.526515 S    
P1    O5    1.748953 S    
O2    Ba2   2.830529 S    
C37   C38   1.420336 A    
C4    O63   1.417297 S    
N15   O60   1.302511 A    
C15   O24   1.397039 S    
O6    C10   1.407401 S    
O41   C75   1.413686 S    
C73   H41   1.116397 S    
C59   C60   1.416124 A    
C39   H30   1.080669 S    
C56   C59   1.414093 A    
N16   O62   1.294552 A    
C49   O25   1.220638 D    
N11   O49   1.302318 A    
C20   C21   1.396204 A    
N15   O59   1.301531 A    
P8    O24   1.747162 S    
O36   C74   1.412670 S    
C20   H26   1.084192 S    
C14   N11   1.460939 S    
C47   H38   1.081827 S    
P4    O13   1.574356 S    
C79   H59   1.078631 S    
C12   N8    1.454200 S    
C9    H10   1.101878 S    
N12   O50   1.303873 A    
C15   H22   1.103836 S    
C51   C57   1.406539 A    
C40   C41   1.402768 A    
N4    O32   1.300635 A    
N8    O43   1.296717 A    
O13   Ba2   3.009798 S    
C75   H48   1.108460 S    
P2    O20   1.541302 S    
C28   H27   1.082287 S    
Ba1   Ba2   4.703726 S    
P1    C46   1.879376 S    
C13   N9    1.467722 S    
C21   C22   1.405216 A    
N6    O38   1.293786 A    
C47   C68   1.413664 A    
C29   C30   1.440118 A    
C1    H2    1.110782 S    
C24   C25   1.415481 A    
O31   C73   1.414095 S    
C51   C52   1.403335 A    
C77   H53   1.107370 S    
C70   C71   1.437691 A    
C64   C65   1.342301 D    
N3    O29   1.297275 A    
C31   C32   1.424772 A    
Ba1   O20   3.017346 S    
O3    P6    1.761055 S    
N10   O46   1.292364 A    
C64   C72   1.318259 D    
C60   O27   1.219839 D    
C34   N13   1.434507 S    
N4    O33   1.299659 A    
C53   C54   1.407453 A    
C6    H7    1.109023 S    
C65   O57   1.386979 S    
