data_mof_unit_16929.cif
_audit_creation_date              2013-03-05T15:42:05-0500
_audit_creation_method            fapswitch 2.2
_symmetry_space_group_name_H-M    P1
_symmetry_Int_Tables_number       1
_space_group_crystal_system       triclinic
_cell_length_a                    7.811558
_cell_length_b                    8.681208
_cell_length_c                    15.729304
_cell_angle_alpha                 91.004003
_cell_angle_beta                  87.074866
_cell_angle_gamma                 92.994084
_cell_volume                      1063.70124368

loop_
_atom_site_label
_atom_site_type_symbol
_atom_site_description
_atom_site_fract_x
_atom_site_fract_y
_atom_site_fract_z
_atom_type_partial_charge
O1    O     O_R   0.389250 0.738570 0.505570 -0.598838
O2    O     O_R   0.610750 0.261430 0.494430 -0.598831
O3    O     O_R   0.678390 0.711630 0.491020 -0.572842
O4    O     O_R   0.321610 0.288370 0.508980 -0.572930
C1    C     C_R   0.544414 0.793564 0.497048 0.869710
C2    C     C_R   0.455586 0.206436 0.502956 0.869679
O5    O     O_R   0.355460 0.513480 0.630490 -0.583652
O6    O     O_R   0.644540 0.486520 0.369510 -0.583674
O7    O     O_R   0.644600 0.486540 0.615950 -0.585170
O8    O     O_R   0.355400 0.513460 0.384050 -0.585161
C3    C     C_R   0.503906 0.499838 0.661561 0.871391
C4    C     C_R   0.496094 0.500162 0.338439 0.871371
Zn1   Zn    Zn3+2 0.306940 0.517990 0.509710 1.179569
Zn2   Zn    Zn3+2 0.693060 0.482010 0.490290 1.179590
C5    C     C_2   0.568592 0.955226 0.501287 -0.006567
C6    C     C_2   0.431406 0.044775 0.498725 -0.006585
C7    C     C_3   0.439040 0.634926 0.026540 0.126761
C8    C     C_3   0.560960 0.365075 0.973460 0.126760
C9    C     C_3   0.606374 0.615999 0.972432 0.325382
C10   C     C_3   0.393626 0.384002 0.027568 0.325381
C11   C     C_1   0.513052 0.498014 0.749785 -0.005778
C12   C     C_1   0.486948 0.501986 0.250215 -0.005774
C13   C     C_3   0.345445 0.514911 0.969952 0.115543
C14   C     C_3   0.654555 0.485090 0.030048 0.115543
C15   C     C_3   0.513010 0.495919 0.915392 -0.215792
C16   C     C_3   0.486990 0.504082 0.084608 -0.215793
N1    N     N_2   0.950320 0.457950 0.477300 0.040046
N2    N     N_2   0.049680 0.542050 0.522700 0.040070
C17   C     C_1   0.517261 0.496557 0.824721 0.250129
C18   C     C_1   0.482739 0.503443 0.175279 0.250131
O9    O     O_3   0.717827 0.735973 0.941893 -0.586550
H1    H     H_    0.754359 0.794137 0.993206 0.403288
O10   O     O_3   0.282174 0.264028 0.058107 -0.586550
H2    H     H_    0.245641 0.205864 0.006794 0.403287
N3    N     N_R   0.374176 0.782919 0.054285 0.285332
O11   O     O_R   0.347326 0.886266 0.998308 -0.250500
O12   O     O_R   0.345846 0.813704 0.134813 -0.283254
N4    N     N_R   0.625824 0.217082 0.945715 0.285332
O13   O     O_R   0.652674 0.113735 0.001692 -0.250498
O14   O     O_R   0.654154 0.186297 0.865188 -0.283266
N5    N     N_R   0.821959 0.472837 0.065560 0.270062
O15   O     O_R   0.905321 0.347853 0.054058 -0.238061
O16   O     O_R   0.884402 0.584147 0.112997 -0.292416
N6    N     N_R   0.178040 0.527164 0.934440 0.270066
O17   O     O_R   0.115598 0.415853 0.887003 -0.292412
O18   O     O_R   0.094678 0.652148 0.945942 -0.238061
N7    N     N_R   0.740339 0.014654 0.514674 0.243962
O19   O     O_R   0.855144 0.014982 0.451854 -0.234907
O20   O     O_R   0.784292 0.056670 0.590667 -0.268899
N8    N     N_R   0.259658 0.985346 0.485344 0.243939
O21   O     O_R   0.144868 0.984991 0.548170 -0.234941
O22   O     O_R   0.215686 0.943362 0.409348 -0.268871
N9    N     N_R   0.017940 0.429487 0.395805 0.306124
O23   O     O_R   0.007871 0.532194 0.337250 -0.289963
O24   O     O_R   0.056723 0.290081 0.373659 -0.274027
N10   N     N_R   0.982029 0.570589 0.604181 0.306146
O25   O     O_R   0.992320 0.468058 0.662805 -0.289968
O26   O     O_R   0.942925 0.709952 0.626229 -0.274060

loop_
_geom_bond_atom_site_label_1
_geom_bond_atom_site_label_2
_geom_bond_distance
_ccdc_geom_bond_type
C6    N8    1.436360 S    
N8    O22   1.301253 A    
O7    Zn2   1.993499 S    
N1    N9    1.384442 S    
Zn1   N2    2.030842 S    
C16   C18   1.424983 S    
Zn2   N1    2.030841 S    
O7    C3    1.290659 A    
N5    O15   1.299588 A    
O9    H1    0.990968 S    
C10   C13   1.539507 S    
C5    N7    1.436362 S    
O6    C4    1.292960 A    
C10   C16   1.542124 S    
C9    O9    1.397713 S    
C13   C15   1.542708 S    
C9    C14   1.539507 S    
C8    N4    1.457251 S    
N7    O20   1.301253 A    
C7    C13   1.538389 S    
N9    O23   1.301142 A    
N6    O17   1.300410 A    
N4    O14   1.300184 A    
C14   N5    1.457580 S    
N5    O16   1.300410 A    
C14   C16   1.542707 S    
O2    C2    1.280715 A    
O3    Zn2   2.002436 S    
O8    C4    1.290660 A    
O1    C1    1.280713 A    
C10   O10   1.397712 S    
C7    N3    1.457251 S    
N3    O12   1.300184 A    
N10   O26   1.300146 A    
O5    C3    1.292960 A    
C8    C10   1.537509 S    
N9    O24   1.300184 A    
N2    N10   1.384442 S    
N4    O13   1.300134 A    
O2    Zn2   1.988962 S    
C8    C15   1.542897 S    
C8    C14   1.538390 S    
C1    C5    1.407133 S    
O1    Zn1   1.988963 S    
C7    C16   1.542897 S    
C9    C15   1.542125 S    
C2    C6    1.407127 S    
C5    C6    1.359003 D    
C4    C12   1.393584 S    
O5    Zn1   1.957554 S    
O10   H2    0.990968 S    
N10   O25   1.301088 A    
C15   C17   1.424983 S    
O4    C2    1.294401 A    
N1    N2    1.274560 D    
C7    C9    1.537509 S    
O6    Zn2   1.957554 S    
N3    O11   1.300135 A    
C12   C18   1.181130 T    
N8    O21   1.300008 A    
C11   C17   1.181130 T    
C3    C11   1.393584 S    
C13   N6    1.457581 S    
N7    O19   1.300007 A    
O4    Zn1   2.002435 S    
N6    O18   1.299588 A    
O3    C1    1.294405 A    
O8    Zn1   1.993499 S    
