data_mof_unit_34000.cif
_audit_creation_date              2012-12-10T16:50:11-0500
_audit_creation_method            fapswitch 2.2
_symmetry_space_group_name_H-M    P1
_symmetry_Int_Tables_number       1
_space_group_crystal_system       triclinic
_cell_length_a                    7.865134
_cell_length_b                    8.570621
_cell_length_c                    10.635562
_cell_angle_alpha                 93.867347
_cell_angle_beta                  83.841158
_cell_angle_gamma                 93.698996
_cell_volume                      709.985826122

loop_
_atom_site_label
_atom_site_type_symbol
_atom_type_description
_atom_site_fract_x
_atom_site_fract_y
_atom_site_fract_z
_atom_type_partial_charge
Br1   Br    Br    0.620531 0.824821 0.870342 -0.452243
Br2   Br    Br    0.960174 0.687115 0.658338 -0.281947
Br3   Br    Br    0.566514 0.122650 0.220013 -0.480456
Br4   Br    Br    0.790964 0.035609 0.580657 -0.331747
Br5   Br    Br    0.042599 0.307529 0.345913 -0.294161
C1    C     C_R   0.545344 0.794681 0.505110 0.899226
C2    C     C_R   0.455277 0.207148 0.513755 0.967115
C3    C     C_R   0.499741 0.487365 0.260361 0.920810
C4    C     C_R   0.338899 0.235262 0.861993 -0.135362
C5    C     C_R   0.286720 0.096411 0.919102 -0.098176
C6    C     C_R   0.334171 0.073355 0.038202 -0.072330
C7    C     C_R   0.424891 0.192652 0.103378 0.252952
C8    C     C_R   0.450595 0.343970 0.055765 0.043939
C9    C     C_R   0.424611 0.359511 0.929065 0.023084
C10   C     C_R   0.490205 0.497762 0.872329 -0.122611
C11   C     C_R   0.552204 0.628598 0.942665 0.260665
C12   C     C_R   0.555066 0.620226 0.070612 -0.219525
C13   C     C_R   0.505857 0.480077 0.126506 -0.112074
C14   C     C_2   0.569344 0.958357 0.529006 0.173220
C15   C     C_2   0.433631 0.043742 0.521620 -0.426020
C16   C     C_R   0.498668 0.504136 0.739545 0.886133
H1    H     H_    0.309632 0.244272 0.766114 0.156400
H2    H     H_    0.595449 0.723538 0.127038 0.192429
H3    H     H_    0.220613 0.002368 0.867170 0.192181
H4    H     H_    0.312294 0.958336 0.075301 0.177057
H5    H     H_    0.307565 0.991859 0.504782 0.206504
N1    N     N_2   0.950330 0.457950 0.466250 0.090981
N2    N     N_2   0.049670 0.542050 0.533750 0.077913
O1    O     O_R   0.389250 0.738570 0.508280 -0.629711
O2    O     O_R   0.678390 0.711630 0.486650 -0.569767
O3    O     O_R   0.355400 0.513470 0.694050 -0.620869
O4    O     O_R   0.644540 0.486530 0.672420 -0.573344
O5    O     O_R   0.321610 0.288370 0.513350 -0.600440
O6    O     O_R   0.610750 0.261430 0.491720 -0.539131
O7    O     O_R   0.355460 0.513470 0.327580 -0.594624
O8    O     O_R   0.644600 0.486530 0.305950 -0.578357
Zn1   Zn    Zn3+2 0.306930 0.517990 0.514440 1.078129
Zn2   Zn    Zn3+2 0.693070 0.482010 0.485560 1.134157

loop_
_geom_bond_atom_site_label_1
_geom_bond_atom_site_label_2
_ccdc_geom_bond_type
C4    C9    A    
O4    Zn2   S    
C2    O5    A    
C4    C5    A    
C14   C15   D    
C6    C7    A    
C5    H3    S    
O8    Zn2   S    
C12   C13   A    
Br1   C11   S    
Br5   N1    S    
C8    C9    A    
C1    C14   S    
C16   O3    A    
C12   H2    S    
C15   H5    S    
C8    C13   A    
N2    Zn1   S    
C2    O6    A    
C16   O4    A    
O5    Zn1   S    
C4    H1    S    
C5    C6    A    
C6    H4    S    
N1    Zn2   S    
C10   C11   A    
C10   C16   S    
C1    O1    A    
C7    C8    A    
O2    Zn2   S    
C2    C15   S    
C3    O8    A    
O1    Zn1   S    
N1    N2    D    
C9    C10   A    
Br2   N2    S    
Br3   C7    S    
O7    Zn1   S    
O6    Zn2   S    
Br4   C14   S    
C1    O2    A    
C3    C13   S    
O3    Zn1   S    
C11   C12   A    
C3    O7    A    
