data_mof_unit_21716.cif
_audit_creation_date              2012-10-26T19:10:52-0400
_audit_creation_method            fapswitch 2.2
_symmetry_space_group_name_H-M    P1
_symmetry_Int_Tables_number       1
_space_group_crystal_system       triclinic
_cell_length_a                    10.767982
_cell_length_b                    9.468692
_cell_length_c                    23.517678
_cell_angle_alpha                 90.193999
_cell_angle_beta                  88.603897
_cell_angle_gamma                 90.546197
_cell_volume                      2396.99934713

loop_
_atom_site_label
_atom_site_type_symbol
_atom_type_description
_atom_site_fract_x
_atom_site_fract_y
_atom_site_fract_z
_atom_type_partial_charge
Br1   Br    Br    0.155006 0.720689 0.941899 -0.343729
Br2   Br    Br    0.703681 0.714550 0.661236 -0.412447
Br3   Br    Br    0.305664 0.160799 0.587271 -0.440204
Br4   Br    Br    0.314351 0.831140 0.592497 -0.405865
C1    C     C_R   0.259955 0.499687 0.499310 0.651750
C2    C     C_R   0.588465 0.433775 0.118181 0.407359
C3    C     C_R   0.505852 0.625486 0.238740 -0.050806
C4    C     C_R   0.499524 0.499764 0.391032 0.561225
C5    C     C_R   0.507422 0.626401 0.298008 -0.131863
C6    C     C_R   0.497981 0.499073 0.328443 0.018395
C7    C     C_R   0.486541 0.371026 0.298502 -0.140885
C8    C     C_R   0.484536 0.370454 0.239254 -0.053896
C9    C     C_R   0.494362 0.497583 0.209113 0.237788
C10   C     C_R   0.423893 0.412046 0.761073 -0.073666
C11   C     C_R   0.426203 0.410741 0.701978 -0.140192
C12   C     C_R   0.296405 0.628378 0.973247 0.172447
C13   C     C_R   0.505526 0.502122 0.671289 -0.023434
C14   C     C_R   0.584599 0.595337 0.700791 0.197601
C15   C     C_R   0.581392 0.598709 0.760492 0.339458
C16   C     C_R   0.739907 0.500917 0.499549 0.591887
C17   C     C_R   0.500460 0.505182 0.790702 0.186897
C18   C     C_3   0.067362 0.430689 0.554092 0.046838
C19   C     C_3   0.073637 0.413817 0.447166 0.055238
C20   C     C_3   0.923635 0.435384 0.554877 -0.279419
C21   C     C_3   0.929337 0.414257 0.448129 -0.218485
C22   C     C_3   0.074361 0.654564 0.493378 -0.162129
C23   C     C_R   0.298162 0.625693 0.032603 -0.086824
C24   C     C_3   0.121924 0.500286 0.498711 0.030724
C25   C     C_3   0.878006 0.503411 0.499206 0.046826
C26   C     C_3   0.930934 0.658437 0.493380 0.429545
C27   C     C_3   0.624493 0.084629 0.485963 -0.161222
C28   C     C_3   0.623836 0.917838 0.484984 -0.153520
C29   C     C_3   0.464136 0.084106 0.558295 0.179198
C30   C     C_3   0.466684 0.916382 0.558658 0.181673
C31   C     C_3   0.412885 0.082074 0.459427 -0.098086
C32   C     C_3   0.410728 0.915458 0.460422 -0.102144
C33   C     C_R   0.502640 0.500462 0.608859 0.614614
C34   C     C_R   0.395045 0.561434 0.061228 -0.002933
C35   C     C_R   0.589582 0.435775 0.879377 0.410108
C36   C     C_R   0.400078 0.565404 0.880539 0.425750
C37   C     C_R   0.394266 0.565099 0.940712 0.031947
C38   C     C_R   0.491740 0.498721 0.969700 -0.055577
C39   C     C_R   0.589691 0.433547 0.938825 0.033930
C40   C     C_R   0.491963 0.497400 0.029814 -0.034236
C41   C     C_R   0.589507 0.432211 0.058513 0.038039
C42   C     C_R   0.685914 0.367753 0.027093 -0.105903
C43   C     C_R   0.685876 0.368176 0.967908 -0.094590
C44   C     C_R   0.397215 0.559434 0.120902 0.407249
Cu1   Cu    Cu3+1 0.499860 0.642410 0.500030 1.010642
Cu2   Cu    Cu3+1 0.499860 0.357590 0.500030 0.952516
H1    H     H_    0.364064 0.339788 0.680284 0.211774
H2    H     H_    0.694063 0.121441 0.517053 0.131645
H3    H     H_    0.694385 0.881013 0.514920 0.205500
H4    H     H_    0.222669 0.674841 0.056406 0.195572
H5    H     H_    0.656410 0.125353 0.443699 0.130564
H6    H     H_    0.653111 0.879373 0.442003 0.149226
H7    H     H_    0.532873 0.121077 0.589766 0.132016
H8    H     H_    0.539447 0.885543 0.588804 0.159290
H9    H     H_    0.317379 0.121685 0.467516 0.155707
H10   H     H_    0.314900 0.878307 0.471087 0.154648
H11   H     H_    0.439506 0.117879 0.415802 0.107732
H12   H     H_    0.093463 0.317497 0.553507 0.211704
H13   H     H_    0.432193 0.875471 0.416840 0.114098
H14   H     H_    0.761823 0.316837 0.048101 0.178723
H15   H     H_    0.761895 0.317578 0.945022 0.188475
H16   H     H_    0.514043 0.724172 0.215748 0.138407
H17   H     H_    0.516541 0.726644 0.319902 0.122389
H18   H     H_    0.478661 0.271309 0.320778 0.118395
H19   H     H_    0.475119 0.271191 0.216687 0.138300
H20   H     H_    0.361955 0.340557 0.784115 0.176422
H21   H     H_    0.639595 0.693939 0.828910 0.347490
H22   H     H_    0.086234 0.587228 0.608063 0.351489
H23   H     H_    0.105649 0.302433 0.450880 0.112356
H24   H     H_    0.107940 0.398246 0.365980 0.332834
H25   H     H_    0.924433 0.719703 0.573890 0.333430
H26   H     H_    0.915153 0.817086 0.441237 0.332730
H27   H     H_    0.886436 0.325552 0.558577 0.130940
H28   H     H_    0.894728 0.303363 0.451562 0.079445
H29   H     H_    0.886771 0.492390 0.592941 0.180652
H30   H     H_    0.894335 0.456206 0.407436 0.194393
H31   H     H_    0.109942 0.721758 0.528180 0.146807
H32   H     H_    0.113276 0.702603 0.453532 0.173760
N1    N     N_R   0.496605 0.502026 0.851732 -0.427349
N2    N     N_R   0.493234 0.496774 0.148079 -0.396236
N3    N     N_3   0.500250 0.143650 0.501250 -0.247814
N4    N     N_3   0.500250 0.856350 0.501250 -0.263198
O1    O     O_R   0.317570 0.620260 0.500030 -0.488513
O2    O     O_2   0.311593 0.628918 0.850546 -0.385567
O3    O     O_2   0.303709 0.618739 0.151564 -0.482805
O4    O     O_2   0.682479 0.374107 0.146127 -0.487012
O5    O     O_3   0.658321 0.693969 0.787525 -0.593188
O6    O     O_3   0.117236 0.489633 0.603752 -0.637131
O7    O     O_3   0.120969 0.470903 0.395831 -0.695619
O8    O     O_3   0.885371 0.746167 0.537840 -0.684207
O9    O     O_3   0.893001 0.714985 0.441276 -0.670262
O10   O     O_R   0.317570 0.379740 0.500030 -0.477728
O11   O     O_R   0.499840 0.620290 0.417900 -0.518166
O12   O     O_R   0.499840 0.379710 0.417900 -0.522268
O13   O     O_R   0.682190 0.620260 0.500010 -0.432836
O14   O     O_R   0.682190 0.379740 0.500010 -0.549567
O15   O     O_R   0.499920 0.620230 0.582140 -0.443577
O16   O     O_R   0.499920 0.379770 0.582140 -0.484509
O17   O     O_2   0.681934 0.372770 0.849204 -0.436953

loop_
_geom_bond_atom_site_label_1
_geom_bond_atom_site_label_2
_ccdc_geom_bond_type
C8    H19   S    
C27   N3    S    
C2    C41   A    
Br2   C14   S    
C21   H30   S    
C37   C38   A    
Cu1   O1    S    
C31   C32   S    
C36   N1    A    
C27   H2    S    
C23   H4    S    
C41   C42   A    
C40   C41   A    
C9    N2    S    
C25   C26   S    
C10   C17   A    
C15   C17   A    
H26   O9    S    
Cu1   O15   S    
C33   O16   A    
H22   O6    S    
Cu1   O13   S    
Br3   C29   S    
C23   C34   A    
C31   H9    S    
C14   C15   A    
C30   N4    S    
C29   N3    S    
C20   C25   S    
C4    O12   A    
Cu2   N3    S    
C17   N1    S    
C11   H1    S    
C32   H13   S    
C5    C6    A    
C34   C44   A    
C12   C23   A    
C22   H32   S    
C18   C24   S    
C10   H20   S    
H24   O7    S    
C38   C40   A    
C19   H23   S    
C29   C30   S    
C3    C5    A    
C16   C25   S    
C21   C25   S    
Br4   C30   S    
Cu2   O12   S    
C2    N2    A    
C21   H28   S    
C35   C39   A    
C32   N4    S    
C2    O4    S    
C44   N2    A    
C42   H14   S    
C4    O11   A    
C5    H17   S    
C34   C40   A    
C26   O9    S    
C18   H12   S    
C1    C24   S    
C20   H29   S    
C27   C28   S    
C16   O14   A    
C28   N4    S    
C13   C14   A    
C31   H11   S    
Br1   C12   S    
C13   C33   S    
C19   C24   S    
C36   C37   A    
Cu2   O16   S    
C22   H31   S    
C44   O3    S    
C18   C20   S    
C38   C39   A    
C28   H3    S    
C1    O10   A    
C7    H18   S    
C11   C13   A    
C42   C43   A    
C29   H7    S    
Cu2   O14   S    
Cu1   N4    S    
C32   H10   S    
C7    C8    A    
C35   O17   S    
C22   C24   S    
C36   O2    S    
C35   N1    A    
C26   O8    S    
C3    H16   S    
C33   O15   A    
C31   N3    S    
Cu2   O10   S    
C16   O13   A    
C28   H6    S    
C19   C21   S    
C15   O5    S    
C6    C7    A    
Cu1   O11   S    
C1    O1    A    
C19   O7    S    
C20   H27   S    
C3    C9    A    
H21   O5    S    
C8    C9    A    
C4    C6    S    
Cu1   Cu2   S    
C30   H8    S    
C18   O6    S    
C10   C11   A    
C27   H5    S    
C39   C43   A    
C12   C37   A    
C43   H15   S    
H25   O8    S    
C22   C26   S    
