data_mof_unit_46928.cif
_audit_creation_date              2012-12-10T16:54:32-0500
_audit_creation_method            fapswitch 2.2
_symmetry_space_group_name_H-M    P1
_symmetry_Int_Tables_number       1
_space_group_crystal_system       triclinic
_cell_length_a                    15.060146
_cell_length_b                    10.935258
_cell_length_c                    9.688025
_cell_angle_alpha                 90.008108
_cell_angle_beta                  89.986883
_cell_angle_gamma                 90.155259
_cell_volume                      1595.48180844

loop_
_atom_site_label
_atom_site_type_symbol
_atom_type_description
_atom_site_fract_x
_atom_site_fract_y
_atom_site_fract_z
_atom_type_partial_charge
C1    C     C_R   0.498719 0.265341 0.500055 0.849550
C2    C     C_R   0.906747 0.549551 0.384820 0.087371
C3    C     C_R   0.953784 0.412243 0.728986 -0.219939
C4    C     C_R   0.046211 0.411699 0.728341 -0.234693
C5    C     C_R   0.092944 0.458056 0.614647 0.110168
C6    C     C_R   0.046673 0.505295 0.499490 0.046829
C7    C     C_R   0.093426 0.553075 0.384490 0.052350
C8    C     C_R   0.045803 0.603303 0.271597 -0.005283
C9    C     C_R   0.952825 0.598584 0.272246 -0.258509
C10   C     C_R   0.185324 0.458285 0.614779 -0.250350
C11   C     C_R   0.231957 0.501655 0.499976 -0.071199
C12   C     C_R   0.328703 0.500062 0.500027 0.807742
C13   C     C_R   0.186377 0.547224 0.385118 -0.255154
C14   C     C_2   0.496331 0.932980 0.386817 -0.161177
C15   C     C_2   0.505103 0.866675 0.502298 -0.317247
C16   C     C_2   0.500273 0.066938 0.386631 -0.158054
C17   C     C_2   0.493875 0.133377 0.502407 -0.319564
C18   C     C_2   0.445932 0.433494 0.922100 -0.063065
C19   C     C_2   0.447683 0.430855 0.077849 -0.066839
C20   C     C_R   0.500937 0.734671 0.500092 0.850915
C21   C     C_R   0.671316 0.500297 0.499956 0.815539
C22   C     C_R   0.814166 0.546733 0.385073 -0.233360
C23   C     C_R   0.768091 0.501401 0.499900 -0.070761
C24   C     C_R   0.814548 0.457826 0.614966 -0.246568
C25   C     C_R   0.907083 0.457985 0.615294 0.117574
C26   C     C_R   0.953543 0.504388 0.499814 0.061759
Cu1   Cu    Cu3+1 0.500020 0.500020 0.638630 0.940062
Cu2   Cu    Cu3+1 0.499980 0.499980 0.361370 0.939349
H1    H     H_    0.777905 0.581687 0.296842 0.150911
H2    H     H_    0.517413 0.907757 0.602062 0.147233
H3    H     H_    0.507447 0.111586 0.287060 0.166249
H4    H     H_    0.482984 0.092422 0.602633 0.145182
H5    H     H_    0.546908 0.550825 0.893954 0.191579
H6    H     H_    0.402348 0.368511 0.129278 0.149617
H7    H     H_    0.540369 0.560503 0.106021 0.190480
H8    H     H_    0.778685 0.422196 0.703407 0.153542
H9    H     H_    0.081227 0.375635 0.817107 0.145062
H10   H     H_    0.220967 0.422651 0.703293 0.148794
H11   H     H_    0.224153 0.578285 0.296790 0.170523
H12   H     H_    0.916160 0.636247 0.185824 0.148640
H13   H     H_    0.487410 0.888193 0.287658 0.165661
N1    N     N_2   0.499020 0.498660 0.846910 -0.281169
N2    N     N_2   0.499000 0.498630 0.153040 -0.283218
O1    O     O_R   0.500020 0.321960 0.617040 -0.580792
O2    O     O_R   0.499980 0.321920 0.382900 -0.574018
O3    O     O_R   0.370270 0.499990 0.617090 -0.580548
O4    O     O_R   0.370240 0.499950 0.382940 -0.581591
O5    O     O_R   0.500020 0.678080 0.617100 -0.578464
O6    O     O_R   0.499980 0.678040 0.382960 -0.578814
O7    O     O_R   0.629760 0.500050 0.617060 -0.583291
O8    O     O_R   0.629730 0.500010 0.382910 -0.581422
H14   H     H_    0.397301 0.376059 0.870678 0.145166
H15   H     H_    0.918832 0.376558 0.818158 0.144366
C27   C     C_R   0.090276 0.666139 0.154485 0.112931
C28   C     C_R   0.145432 0.767957 0.178392 -0.156834
C29   C     C_R   0.185860 0.828621 0.067891 -0.134142
C30   C     C_R   0.170474 0.789515 0.932687 -0.106040
C31   C     C_R   0.114431 0.689932 0.907769 -0.126717
C32   C     C_R   0.074362 0.628330 0.018047 -0.157924
H16   H     H_    0.156995 0.800299 0.282554 0.130484
H17   H     H_    0.228724 0.906394 0.087059 0.126436
H18   H     H_    0.201507 0.836856 0.847164 0.124901
H19   H     H_    0.101787 0.661056 0.802866 0.148475
H20   H     H_    0.031015 0.551330 0.997329 0.131310

loop_
_geom_bond_atom_site_label_1
_geom_bond_atom_site_label_2
_ccdc_geom_bond_type
Cu1   O5    S    
C2    C22   A    
C28   C29   A    
Cu2   O4    S    
C2    C9    A    
C20   O6    A    
C29   H17   S    
C22   H1    S    
H7    N2    S    
Cu2   O6    S    
Cu2   N2    S    
C1    C17   S    
C9    H12   S    
Cu1   O7    S    
C21   O8    A    
C10   H10   S    
C18   N1    D    
C6    C26   A    
C18   H14   S    
C30   H18   S    
C2    C26   A    
C20   O5    A    
C28   H16   S    
C4    H9    S    
C16   H3    S    
C3    H15   S    
Cu1   N1    S    
C1    O2    A    
C32   H20   S    
C24   H8    S    
C14   H13   S    
H5    N1    S    
Cu1   O3    S    
C5    C10   A    
C21   O7    A    
C19   N2    D    
C6    C7    A    
C30   C31   A    
C27   C32   A    
C21   C23   S    
C5    C6    A    
Cu2   O8    S    
C14   C16   S    
Cu2   O2    S    
C13   H11   S    
C11   C13   A    
C7    C8    A    
C10   C11   A    
C23   C24   A    
C3    C4    A    
C16   C17   D    
C7    C13   A    
C3    C25   A    
C24   C25   A    
C15   H2    S    
C12   O3    A    
C18   C19   S    
C8    C27   S    
Cu1   Cu2   S    
C29   C30   A    
C17   H4    S    
C27   C28   A    
C8    C9    A    
C1    O1    A    
C25   C26   A    
C14   C15   D    
C31   C32   A    
Cu1   O1    S    
C15   C20   S    
C22   C23   A    
C12   O4    A    
C31   H19   S    
C11   C12   S    
C4    C5    A    
C19   H6    S    
