data_mof_unit_9329.cif
_audit_creation_date              2012-12-11T16:58:17-0500
_audit_creation_method            fapswitch 2.2
_symmetry_space_group_name_H-M    P1
_symmetry_Int_Tables_number       1
_space_group_crystal_system       triclinic
_cell_length_a                    17.01671
_cell_length_b                    7.295091
_cell_length_c                    16.807896
_cell_angle_alpha                 90.000067
_cell_angle_beta                  100.516221
_cell_angle_gamma                 90.000025
_cell_volume                      2051.45965454

loop_
_atom_site_label
_atom_site_type_symbol
_atom_type_description
_atom_site_fract_x
_atom_site_fract_y
_atom_site_fract_z
_atom_type_partial_charge
O1    O     O_R   0.413450 0.494370 0.415710 -0.540287
O2    O     O_R   0.586550 0.994370 0.584290 -0.540287
O3    O     O_R   0.578420 0.819350 0.429360 -0.517761
O4    O     O_R   0.421580 0.319350 0.570640 -0.517761
C1    C     C_R   0.604221 0.656980 0.413404 0.741373
C2    C     C_R   0.395778 0.156980 0.586596 0.741374
O5    O     O_R   0.413570 0.823780 0.406240 -0.517352
O6    O     O_R   0.586430 0.323780 0.593760 -0.517353
O7    O     O_R   0.420530 0.998740 0.561000 -0.548892
O8    O     O_R   0.579470 0.498740 0.439000 -0.548893
C3    C     C_R   0.385476 0.655224 0.384390 0.719824
C4    C     C_R   0.614524 0.155224 0.615610 0.719822
O9    O     O_3   0.502480 0.662320 0.550800 -0.382036
O10   O     O_3   0.497520 0.162320 0.449200 -0.382036
V1    V     V_3+5 0.499540 0.935370 0.490580 1.452189
V2    V     V_3+5 0.500460 0.435370 0.509420 1.452189
C5    C     C_R   0.700260 0.984572 0.730781 -0.070504
C6    C     C_R   0.299739 0.484571 0.269220 -0.070506
C7    C     C_R   0.683691 0.145357 0.684340 -0.154434
C8    C     C_R   0.316308 0.645357 0.315660 -0.154430
C9    C     C_R   0.740554 0.288685 0.699190 0.413796
C10   C     C_R   0.259447 0.788685 0.300810 0.413796
C11   C     C_R   0.803786 0.280603 0.766809 -0.271536
C12   C     C_R   0.196215 0.780604 0.233191 -0.271538
H1    H     H_    0.844903 0.393298 0.778663 0.118519
H2    H     H_    0.155098 0.893299 0.221336 0.118516
C13   C     C_R   0.820371 0.119621 0.812129 -0.120050
C14   C     C_R   0.179629 0.619622 0.187871 -0.120042
C15   C     C_R   0.771138 0.969066 0.788188 0.009386
C16   C     C_R   0.228861 0.469065 0.211812 0.009388
C17   C     C_3   0.793555 0.794033 0.751347 0.306431
C18   C     C_3   0.206442 0.294036 0.248654 0.306430
C19   C     C_3   0.711774 0.798422 0.697930 -0.271626
C20   C     C_3   0.288222 0.298424 0.302072 -0.271629
H3    H     H_    0.802278 0.677270 0.794391 0.039947
H4    H     H_    0.197718 0.177273 0.205610 0.039945
H5    H     H_    0.669388 0.697414 0.716099 0.138883
H6    H     H_    0.330608 0.197412 0.283905 0.138889
H7    H     H_    0.713287 0.798407 0.632020 0.211080
H8    H     H_    0.286708 0.298413 0.367982 0.211077
C21   C     C_R   0.333702 0.161294 0.639164 -0.144503
C22   C     C_R   0.666298 0.661294 0.360835 -0.144506
C23   C     C_R   0.166699 0.109693 0.863268 -0.177985
C24   C     C_R   0.833300 0.609693 0.136732 -0.177985
C25   C     C_R   0.279717 0.942481 0.826461 0.230824
C26   C     C_R   0.720283 0.442481 0.173538 0.230825
C27   C     C_R   0.224648 0.971263 0.877787 -0.309889
C28   C     C_R   0.775352 0.471264 0.122212 -0.309889
C29   C     C_R   0.164273 0.223868 0.795233 0.404628
C30   C     C_R   0.835727 0.723868 0.204767 0.404626
C31   C     C_R   0.223166 0.204733 0.745865 -0.066166
C32   C     C_R   0.776834 0.704733 0.254135 -0.066166
C33   C     C_R   0.280012 0.059571 0.758988 0.090126
C34   C     C_R   0.719988 0.559572 0.241012 0.090126
C35   C     C_R   0.335003 0.037328 0.704596 0.111832
C36   C     C_R   0.664997 0.537329 0.295403 0.111832
C37   C     C_R   0.277374 0.306291 0.628834 0.170356
C38   C     C_R   0.722627 0.806290 0.371166 0.170358
C39   C     C_R   0.224275 0.327452 0.682188 -0.191957
C40   C     C_R   0.775725 0.827452 0.317813 -0.191959
H9    H     H_    0.183314 0.442337 0.672940 0.173698
H10   H     H_    0.816687 0.942336 0.327061 0.173698
H11   H     H_    0.226087 0.880080 0.928993 0.154097
H12   H     H_    0.773912 0.380081 0.071006 0.154096
O11   O     O_R   0.920630 0.775410 0.061150 -0.515269
O12   O     O_R   0.079370 0.275410 0.938850 -0.515269
O13   O     O_R   0.086500 0.441450 0.093690 -0.553957
O14   O     O_R   0.913500 0.941450 0.906310 -0.553958
C41   C     C_R   0.112543 0.609973 0.117452 0.669759
C42   C     C_R   0.887457 0.109972 0.882548 0.669756
O15   O     O_R   0.921670 0.445960 0.070740 -0.546376
O16   O     O_R   0.078330 0.945960 0.929260 -0.546375
O17   O     O_R   0.913380 0.271130 0.915780 -0.537180
O18   O     O_R   0.086620 0.771130 0.084220 -0.537180
C43   C     C_R   0.896106 0.612981 0.085775 0.716860
C44   C     C_R   0.103894 0.112981 0.914225 0.716859
O19   O     O_3   0.997500 0.603030 0.949220 -0.380956
O20   O     O_3   0.002500 0.103030 0.050780 -0.380955
V3    V     V_3+5 0.000470 0.329940 0.009420 1.393815
V4    V     V_3+5 0.999530 0.829940 0.990580 1.393815
O21   O     O_3   0.741512 0.421328 0.640719 -0.555100
C45   C     C_3   0.805836 0.382113 0.600551 0.098286
H13   H     H_    0.807662 0.234263 0.583611 0.119848
H14   H     H_    0.863289 0.419619 0.639699 0.134862
C46   C     C_3   0.797377 0.493016 0.523365 -0.700451
H15   H     H_    0.851098 0.474366 0.495325 0.168823
H16   H     H_    0.744251 0.444340 0.480412 0.211140
H17   H     H_    0.790911 0.640298 0.536956 0.247900
O22   O     O_3   0.258489 0.921329 0.359281 -0.555102
C47   C     C_3   0.194163 0.882121 0.399447 0.098271
H18   H     H_    0.192330 0.734269 0.416381 0.119855
H19   H     H_    0.136713 0.919644 0.360301 0.134871
C48   C     C_3   0.202627 0.993009 0.476637 -0.700462
H20   H     H_    0.148904 0.974368 0.504676 0.168826
H21   H     H_    0.255750 0.944315 0.519588 0.211141
H22   H     H_    0.209100 0.140290 0.463052 0.247896
O23   O     O_3   0.103770 0.352370 0.775523 -0.562566
C49   C     C_3   0.033321 0.265245 0.734603 0.125597
H23   H     H_    0.981555 0.346848 0.745524 0.130288
H24   H     H_    0.024412 0.125548 0.757715 0.084343
C50   C     C_3   0.030910 0.256679 0.643358 -0.810301
H25   H     H_    0.075716 0.157093 0.629255 0.221468
H26   H     H_    0.970944 0.210735 0.612342 0.186640
H27   H     H_    0.043130 0.393405 0.619544 0.227059
O24   O     O_3   0.896231 0.852369 0.224477 -0.562566
C51   C     C_3   0.966679 0.765242 0.265397 0.125597
H28   H     H_    0.018445 0.846839 0.254475 0.130287
H29   H     H_    0.975586 0.625541 0.242288 0.084345
C52   C     C_3   0.969091 0.756686 0.356643 -0.810300
H30   H     H_    0.924285 0.657105 0.370748 0.221467
H31   H     H_    0.029057 0.710742 0.387659 0.186642
H32   H     H_    0.956873 0.893416 0.380454 0.227059
O25   O     O_3   0.851704 0.821302 0.701611 -0.552873
C53   C     C_3   0.928369 0.763151 0.739600 0.151670
H33   H     H_    0.927422 0.629094 0.770320 0.103179
H34   H     H_    0.955889 0.866397 0.783906 0.133520
C54   C     C_3   0.981412 0.747022 0.676240 -0.760206
H35   H     H_    0.955872 0.647158 0.628908 0.222565
H36   H     H_    0.985881 0.881345 0.646703 0.221931
H37   H     H_    0.042261 0.701924 0.705184 0.213858
O26   O     O_3   0.148292 0.321314 0.298389 -0.552873
C55   C     C_3   0.071628 0.263148 0.260402 0.151669
H38   H     H_    0.072579 0.129084 0.229688 0.103173
H39   H     H_    0.044106 0.366382 0.216090 0.133526
C56   C     C_3   0.018586 0.247027 0.323762 -0.760209
H40   H     H_    0.044130 0.147180 0.371100 0.222566
H41   H     H_    0.014111 0.381357 0.353291 0.221930
H42   H     H_    0.957739 0.201910 0.294820 0.213860
N1    N     N_3   0.393489 0.893482 0.717602 -0.608843
H43   H     H_    0.450551 0.950413 0.722363 0.220870
H44   H     H_    0.382808 0.803257 0.668543 0.242333
N2    N     N_3   0.606511 0.393482 0.282398 -0.608842
H45   H     H_    0.549449 0.450413 0.277637 0.220870
H46   H     H_    0.617192 0.303257 0.331456 0.242333
N3    N     N_3   0.273327 0.433860 0.563157 -0.657476
H47   H     H_    0.215120 0.433027 0.529744 0.216723
H48   H     H_    0.284371 0.565185 0.587585 0.225923
N4    N     N_3   0.726673 0.933859 0.436843 -0.657474
H49   H     H_    0.784880 0.933026 0.470256 0.216720
H50   H     H_    0.715630 0.065184 0.412415 0.225923
N5    N     N_3   0.334471 0.792326 0.843877 -0.609775
H51   H     H_    0.367370 0.809989 0.902297 0.226431
H52   H     H_    0.301337 0.671375 0.843166 0.233636
N6    N     N_3   0.665529 0.292327 0.156121 -0.609774
H53   H     H_    0.632629 0.309990 0.097702 0.226431
H54   H     H_    0.698662 0.171376 0.156832 0.233636

loop_
_geom_bond_atom_site_label_1
_geom_bond_atom_site_label_2
_ccdc_geom_bond_type
O14   V4    S    
O15   C43   A    
C1    C22   S    
C50   H25   S    
C13   C15   A    
C5    C15   A    
C14   C41   S    
O1    C3    A    
O16   C44   A    
O2    C4    A    
C22   C38   A    
C2    O7    A    
O15   V3    S    
C53   H33   S    
N3    H47   S    
C46   H15   S    
O5    C3    A    
O12   V3    S    
C48   H20   S    
C20   H8    S    
C18   H4    S    
C7    C9    A    
C12   H2    S    
O25   C53   S    
N5    H52   S    
C27   H11   S    
C28   H12   S    
C51   H28   S    
C38   C40   A    
C40   H10   S    
C25   C27   A    
C21   C35   A    
C17   H3    S    
C32   C40   A    
C52   H31   S    
C22   C36   A    
N5    H51   S    
N2    H45   S    
C35   N1    S    
C2    C21   S    
C30   O24   S    
C30   C32   A    
C17   C19   S    
C6    C16   A    
C11   C13   A    
C38   N4    S    
O5    V1    S    
C25   C33   A    
O6    V2    S    
O11   V4    S    
O18   V4    S    
C25   N5    S    
C5    C19   S    
C32   C34   A    
O23   C49   S    
C26   C28   A    
C33   C35   A    
C34   C36   A    
C3    C8    S    
C39   H9    S    
C46   H16   S    
O13   V3    S    
N6    H54   S    
C52   H32   S    
O20   V3    S    
C23   C29   A    
C26   N6    S    
O21   C45   S    
C29   C31   A    
C19   H5    S    
O16   V4    S    
O13   C41   A    
C18   C20   S    
O4    V2    S    
C24   C43   S    
C56   H42   S    
C47   H19   S    
O6    C4    A    
O12   C44   A    
C26   C34   A    
C42   O17   A    
O17   V3    S    
C41   O18   A    
O1    V2    S    
C19   H7    S    
O2    V1    S    
C6    C20   S    
O26   C55   S    
C36   N2    S    
C13   C42   S    
N4    H50   S    
N2    H46   S    
C9    O21   S    
C49   H23   S    
C50   H27   S    
C45   H14   S    
C9    C11   A    
C56   H40   S    
C10   C12   A    
C54   H37   S    
O4    C2    A    
C31   C39   A    
C55   H39   S    
C49   C50   S    
O3    V1    S    
C47   C48   S    
N1    H43   S    
C50   H26   S    
C46   H17   S    
C24   C30   A    
C23   C44   S    
N3    H48   S    
C20   H6    S    
C18   O26   S    
C12   C14   A    
C8    C10   A    
N6    H53   S    
O3    C1    A    
C53   H34   S    
C55   H38   S    
C48   H22   S    
C45   C46   S    
O24   C51   S    
C49   H24   S    
O11   C43   A    
C55   C56   S    
C54   H36   S    
O7    V1    S    
C21   C37   A    
C1    O8    A    
C15   C17   S    
O8    V2    S    
C54   H35   S    
C16   C18   S    
O19   V4    S    
C47   H18   S    
C51   H29   S    
C4    C7    S    
C14   C16   A    
C5    C7    A    
C10   O22   S    
C6    C8    A    
C11   H1    S    
C53   C54   S    
C37   C39   A    
N4    H49   S    
C29   O23   S    
C48   H21   S    
C45   H13   S    
O9    V2    S    
C56   H41   S    
O14   C42   A    
O10   V1    S    
C37   N3    S    
C31   C33   A    
O22   C47   S    
C52   H30   S    
C23   C27   A    
C17   O25   S    
C24   C28   A    
N1    H44   S    
C51   C52   S    
