data_mof_unit_28146.cif
_audit_creation_date              2012-12-10T17:59:15-0500
_audit_creation_method            fapswitch 2.2
_symmetry_space_group_name_H-M    P1
_symmetry_Int_Tables_number       1
_space_group_crystal_system       triclinic
_cell_length_a                    10.829073
_cell_length_b                    9.514583
_cell_length_c                    10.742882
_cell_angle_alpha                 90.100458
_cell_angle_beta                  90.169628
_cell_angle_gamma                 89.989851
_cell_volume                      1106.8767587

loop_
_atom_site_label
_atom_site_type_symbol
_atom_type_description
_atom_site_fract_x
_atom_site_fract_y
_atom_site_fract_z
_atom_type_partial_charge
C1    C     C_R   0.262078 0.500005 0.499856 0.845390
C2    C     C_3   0.623136 0.518910 0.931205 -0.381526
C3    C     C_R   0.063921 0.372543 0.491980 -0.140423
C4    C     C_R   0.063898 0.627468 0.506881 -0.193654
C5    C     C_R   0.936177 0.372523 0.492137 -0.185304
C6    C     C_R   0.936169 0.627477 0.506776 -0.185920
C7    C     C_R   0.871803 0.499990 0.499603 -0.020823
C8    C     C_R   0.128259 0.500005 0.499550 -0.007753
C9    C     C_R   0.421985 0.074256 0.423982 -0.027570
C10   C     C_R   0.422118 0.925492 0.423844 -0.028353
C11   C     C_R   0.577832 0.925689 0.576457 -0.023969
C12   C     C_R   0.577870 0.074576 0.576417 -0.023765
C13   C     C_R   0.491842 0.499680 0.260209 0.828248
C14   C     C_R   0.737940 0.499991 0.499892 0.785685
C15   C     C_R   0.496591 0.499996 0.740149 0.769995
C16   C     C_3   0.400544 0.618813 0.069483 -0.161409
C17   C     C_3   0.445995 0.350162 0.068955 -0.145370
C18   C     C_3   0.408748 0.621807 0.925217 -0.421270
C19   C     C_3   0.436237 0.359024 0.925975 -0.380153
C20   C     C_3   0.618549 0.527094 0.074440 -0.428285
C21   C     C_3   0.485247 0.498213 0.122178 -0.006209
C22   C     C_3   0.491440 0.499778 0.877919 0.096411
Cu1   Cu    Cu3+1 0.500020 0.640660 0.500000 0.956660
Cu2   Cu    Cu3+1 0.500020 0.359340 0.500000 0.956603
H1    H     H_    0.438677 0.720862 0.103128 0.140413
H2    H     H_    0.522669 0.275781 0.090425 0.124640
H3    H     H_    0.640124 0.869640 0.637664 0.115889
H4    H     H_    0.640193 0.130836 0.637594 0.116712
H5    H     H_    0.316421 0.615318 0.879878 0.184736
H6    H     H_    0.338321 0.351236 0.894515 0.192394
H7    H     H_    0.448840 0.724395 0.896159 0.177226
H8    H     H_    0.486206 0.267351 0.885774 0.177293
H9    H     H_    0.650133 0.632993 0.105275 0.183425
H10   H     H_    0.684664 0.449454 0.114284 0.172130
H11   H     H_    0.665802 0.616525 0.893874 0.169257
H12   H     H_    0.682372 0.429018 0.902313 0.168385
H13   H     H_    0.112009 0.272934 0.485808 0.153440
H14   H     H_    0.111972 0.727107 0.512745 0.158034
H15   H     H_    0.888116 0.272883 0.486209 0.149145
H16   H     H_    0.888118 0.727123 0.512694 0.150166
H17   H     H_    0.359131 0.130072 0.363444 0.152889
H18   H     H_    0.359663 0.869481 0.362890 0.173328
N1    N     N_R   0.500030 0.852070 0.500030 -0.161601
N2    N     N_R   0.500030 0.147930 0.500030 -0.161637
O1    O     O_R   0.319660 0.618740 0.499990 -0.577184
O2    O     O_R   0.319660 0.381260 0.499990 -0.579143
O3    O     O_R   0.499990 0.618790 0.317690 -0.574225
O4    O     O_R   0.499990 0.381210 0.317690 -0.581775
O5    O     O_R   0.680370 0.618830 0.500010 -0.590428
O6    O     O_R   0.680370 0.381170 0.500010 -0.590801
O7    O     O_R   0.500030 0.618780 0.682310 -0.590711
O8    O     O_R   0.500030 0.381220 0.682310 -0.592789
C23   C     C_2   0.268184 0.614852 0.114938 0.885104
O9    O     O_2   0.188700 0.550521 0.057052 -0.582202
O10   O     O_R   0.236656 0.687559 0.223342 -0.785441
H19   H     H_    0.145843 0.678375 0.244430 0.333356
C24   C     C_2   0.331758 0.280069 0.122842 0.855636
O11   O     O_2   0.272392 0.334270 0.206771 -0.594939
O12   O     O_R   0.297185 0.147863 0.077621 -0.778967
H20   H     H_    0.221403 0.109144 0.120879 0.331007

loop_
_geom_bond_atom_site_label_1
_geom_bond_atom_site_label_2
_ccdc_geom_bond_type
C2    H11   S    
C2    C22   S    
C13   O4    A    
O10   H19   S    
Cu2   O8    S    
C16   C21   S    
Cu1   O1    S    
C15   O7    A    
C10   H18   S    
C1    C8    S    
C9    C10   A    
C9    H17   S    
C11   H3    S    
C4    C8    A    
C20   H10   S    
C23   O10   S    
C13   C21   S    
O12   H20   S    
C12   N2    A    
C18   H5    S    
C14   O6    A    
C23   O9    D    
C11   N1    A    
C19   H6    S    
C1    O1    A    
C24   O11   D    
C6    C7    A    
C12   H4    S    
C17   H2    S    
C4    C6    A    
C13   O3    A    
C17   C19   S    
C4    H14   S    
C5    H15   S    
Cu2   O6    S    
Cu2   N2    S    
C6    H16   S    
C1    O2    A    
C24   O12   S    
C14   O5    A    
Cu1   O5    S    
C20   H9    S    
Cu1   Cu2   S    
C2    C20   S    
Cu2   O4    S    
C19   C22   S    
Cu1   O3    S    
C20   C21   S    
C3    H13   S    
C16   C18   S    
C3    C8    A    
C2    H12   S    
C16   H1    S    
C5    C7    A    
C16   C23   S    
C9    N2    A    
C18   H7    S    
C10   N1    A    
C18   C22   S    
Cu1   N1    S    
Cu1   O7    S    
C19   H8    S    
C15   C22   S    
C7    C14   S    
C15   O8    A    
C11   C12   A    
C17   C24   S    
Cu2   O2    S    
C3    C5    A    
C17   C21   S    
