data_mof_unit_66809.cif
_audit_creation_date              2012-12-11T14:27:00-0500
_audit_creation_method            fapswitch 2.2
_symmetry_space_group_name_H-M    P1
_symmetry_Int_Tables_number       1
_space_group_crystal_system       triclinic
_cell_length_a                    8.487365
_cell_length_b                    14.86306
_cell_length_c                    15.009888
_cell_angle_alpha                 97.635305
_cell_angle_beta                  99.527985
_cell_angle_gamma                 97.459148
_cell_volume                      1828.33483399

loop_
_atom_site_label
_atom_site_type_symbol
_atom_type_description
_atom_site_fract_x
_atom_site_fract_y
_atom_site_fract_z
_atom_type_partial_charge
Ba1   Ba    Ba6+2 0.154720 0.543770 0.458160 1.650648
Ba2   Ba    Ba6+2 0.655440 0.456220 0.541760 1.645844
C1    C     C_3   0.363350 0.887431 0.171986 -0.334586
C2    C     C_3   0.401300 0.813231 0.230247 0.371142
C3    C     C_3   0.593247 0.757788 0.743932 0.346519
C4    C     C_3   0.509169 0.844435 0.764807 0.302230
C5    C     C_3   0.918191 0.201233 0.785641 0.438744
C6    C     C_3   0.942752 0.143052 0.866638 0.734736
C7    C     C_3   0.453171 0.249120 0.769440 0.760056
C8    C     C_3   0.465890 0.209425 0.859955 -0.187886
C9    C     C_R   0.644261 0.825871 0.436105 -0.044116
C10   C     C_R   0.895886 0.791644 0.519324 0.076095
C11   C     C_R   0.078275 0.232012 0.506218 -0.274176
C12   C     C_3   0.824986 0.773345 0.220592 0.361045
C13   C     C_R   0.176452 0.170717 0.536542 0.011878
C14   C     C_R   0.113529 0.077960 0.531317 -0.136336
C15   C     C_R   0.948503 0.044297 0.494503 0.014214
C16   C     C_R   0.850374 0.107741 0.459563 -0.037507
C17   C     C_R   0.878770 0.949584 0.489367 0.018591
C18   C     C_R   0.714059 0.919635 0.445540 -0.006796
C19   C     C_R   0.622911 0.983802 0.411457 -0.096799
C20   C     C_R   0.690311 0.074687 0.416508 -0.061345
C21   C     C_R   0.964788 0.884377 0.529383 -0.135969
C22   C     C_R   0.740592 0.762329 0.467041 -0.260109
C23   C     C_3   0.862285 0.867817 0.192598 -0.178874
C24   C     C_R   0.916215 0.202524 0.467494 0.017482
C25   C     C_R   0.243007 0.458190 0.761460 -0.273604
C26   C     C_R   0.146071 0.432489 0.822253 0.010824
C27   C     C_R   0.207922 0.445346 0.916380 -0.104402
C28   C     C_R   0.371000 0.484916 0.951768 -0.008524
C29   C     C_R   0.465717 0.512028 0.887920 -0.156782
C30   C     C_R   0.400652 0.500679 0.794744 0.066781
C31   C     C_R   0.601273 0.544757 0.087987 -0.125877
C32   C     C_R   0.668244 0.555669 0.180752 -0.022870
C33   C     C_R   0.417462 0.477334 0.210045 0.006298
C34   C     C_3   0.864284 0.282064 0.251737 0.322039
C35   C     C_R   0.351356 0.464801 0.116619 -0.130421
C36   C     C_R   0.440980 0.499112 0.053130 0.026725
C37   C     C_R   0.575234 0.523659 0.241853 -0.258396
C38   C     C_3   0.877447 0.194189 0.188348 -0.179245
C39   C     C_3   0.099857 0.657473 0.734903 0.280300
C40   C     C_3   0.151580 0.682391 0.838562 -0.396141
C41   C     C_3   0.372524 0.259432 0.250035 0.691083
C42   C     C_3   0.328640 0.216300 0.149450 0.264378
H1    H     H_    0.758220 0.165010 0.144632 0.181916
H2    H     H_    0.961807 0.211894 0.142003 0.079838
H3    H     H_    0.203576 0.638025 0.705128 0.041702
H4    H     H_    0.000402 0.597964 0.719394 0.061911
H5    H     H_    0.220803 0.752815 0.856971 0.131671
H6    H     H_    0.228673 0.634052 0.865657 0.085853
H7    H     H_    0.044762 0.679240 0.872356 0.101847
H8    H     H_    0.489375 0.305555 0.261346 0.014076
H9    H     H_    0.231973 0.877876 0.143086 0.118490
H10   H     H_    0.210643 0.170446 0.138063 0.034586
H11   H     H_    0.319036 0.270656 0.105601 -0.030528
H12   H     H_    0.533886 0.826027 0.254929 -0.066526
H13   H     H_    0.431937 0.884651 0.114956 0.075152
H14   H     H_    0.377973 0.822954 0.736477 0.126750
H15   H     H_    0.398871 0.956558 0.214322 0.137717
H16   H     H_    0.357804 0.292197 0.761686 -0.106085
H17   H     H_    0.344649 0.184254 0.872480 0.076635
H18   H     H_    0.836248 0.782741 0.296185 -0.013215
H19   H     H_    0.524567 0.147714 0.853070 0.161133
H20   H     H_    0.687524 0.690850 0.459323 0.065903
H21   H     H_    0.497672 0.964824 0.379221 0.104904
H22   H     H_    0.084148 0.903830 0.570534 0.090491
H23   H     H_    0.130081 0.303502 0.511895 0.068825
H24   H     H_    0.196562 0.034050 0.556378 0.102630
H25   H     H_    0.614445 0.118133 0.384411 0.169892
H26   H     H_    0.678974 0.572661 0.045420 0.067749
H27   H     H_    0.124782 0.425773 0.959904 0.098428
H28   H     H_    0.231319 0.426336 0.095629 0.069868
H29   H     H_    0.699414 0.742544 0.187457 -0.054941
H30   H     H_    0.588321 0.546624 0.908057 0.085618
H31   H     H_    0.628108 0.531888 0.313740 0.071345
H32   H     H_    0.191698 0.452299 0.689522 0.053828
H33   H     H_    0.782643 0.913619 0.220612 0.061336
H34   H     H_    0.989828 0.898273 0.222378 0.130988
H35   H     H_    0.982088 0.307807 0.297040 0.087998
O1    O     O_2   0.174040 0.723040 0.553850 -0.453868
O2    O     O_3   0.247981 0.306038 0.273842 -0.716587
O3    O     O_3   0.934331 0.717206 0.193173 -0.579389
O4    O     O_2   0.636250 0.276900 0.446120 -0.441693
O5    O     O_3   0.908740 0.390420 0.449120 -0.494804
O6    O     O_3   0.439970 0.334920 0.611710 -0.455362
O7    O     O_3   0.740172 0.264935 0.300850 -0.606717
O8    O     O_3   0.402050 0.547860 0.609740 -0.478373
O9    O     O_3   0.872650 0.381380 0.659100 -0.466808
O10   O     O_2   0.843013 0.460074 0.824463 -0.491141
O11   O     O_3   0.870529 0.285534 0.822334 -0.522764
O12   O     O_3   0.901550 0.609570 0.550800 -0.496844
O13   O     O_3   0.408230 0.452130 0.390190 -0.467630
O14   O     O_2   0.675480 0.547140 0.721810 -0.463529
O15   O     O_3   0.503261 0.685603 0.775413 -0.673487
O16   O     O_2   0.504092 0.171578 0.538467 -0.482715
O17   O     O_3   0.422327 0.174974 0.697074 -0.620899
O18   O     O_3   0.370320 0.665070 0.388210 -0.468413
O19   O     O_2   0.340679 0.825360 0.477050 -0.447245
O20   O     O_3   0.048765 0.733859 0.699741 -0.650759
O21   O     O_3   0.315453 0.820346 0.303006 -0.566831
O22   O     O_2   0.134800 0.452800 0.278160 -0.456083
O23   O     O_3   0.937630 0.618610 0.340820 -0.464150
O24   O     O_2   0.996705 0.551342 0.178608 -0.478468
P1    P     P_3+3 0.004160 0.709210 0.580280 0.975438
P2    P     P_3+3 0.305010 0.425580 0.290930 0.951793
P3    P     P_3+3 0.881794 0.608774 0.222329 0.964320
P4    P     P_3+3 0.806120 0.290780 0.419650 0.991071
P5    P     P_3+3 0.933204 0.388059 0.778881 0.993080
P6    P     P_3+3 0.421945 0.784573 0.399492 0.972628
P7    P     P_3+3 0.500275 0.570865 0.724571 0.939865
P8    P     P_3+3 0.385558 0.214899 0.592350 0.985660
C43   C     C_3   0.351158 0.718201 0.171422 -0.290417
H36   H     H_    0.382048 0.664516 0.212807 0.094111
H37   H     H_    0.219022 0.705157 0.144580 0.161283
H38   H     H_    0.415441 0.712918 0.112657 0.045210
C44   C     C_3   0.939453 0.120892 0.240798 -0.417745
H39   H     H_    0.976589 0.067646 0.192960 0.126955
H40   H     H_    0.045532 0.150809 0.295198 0.132216
H41   H     H_    0.841850 0.087492 0.271398 0.133819
O25   O     O_3   0.388224 0.187964 0.301816 -0.713000
H42   H     H_    0.360084 0.207682 0.362239 0.303776
O26   O     O_3   0.446819 0.164390 0.126963 -0.732688
H43   H     H_    0.402348 0.128841 0.065109 0.295459
C45   C     C_3   0.767913 0.772603 0.796971 -0.344582
H44   H     H_    0.772724 0.785133 0.871962 0.093604
H45   H     H_    0.819554 0.709212 0.782363 0.141525
H46   H     H_    0.844029 0.830423 0.777162 0.085500
C46   C     C_3   0.592363 0.739498 0.640719 -0.257481
H47   H     H_    0.660983 0.683344 0.622747 0.075908
H48   H     H_    0.467353 0.721866 0.601589 0.146976
H49   H     H_    0.650906 0.802095 0.619846 0.061560
C47   C     C_3   0.522256 0.879298 0.867434 -0.399323
H50   H     H_    0.491483 0.821741 0.904715 0.109355
H51   H     H_    0.646402 0.914593 0.898493 0.108489
H52   H     H_    0.437478 0.929322 0.876627 0.124172
O27   O     O_3   0.561022 0.917461 0.720527 -0.738020
H53   H     H_    0.677950 0.937174 0.744304 0.285725
C48   C     C_3   0.834120 0.862297 0.088643 -0.410353
H54   H     H_    0.916272 0.819435 0.058923 0.148005
H55   H     H_    0.706759 0.832243 0.058167 0.119925
H56   H     H_    0.858386 0.932254 0.070772 0.120971
C49   C     C_3   0.788047 0.150362 0.704709 -0.293599
H57   H     H_    0.757792 0.198251 0.656171 0.174114
H58   H     H_    0.830469 0.091819 0.666550 0.045738
H59   H     H_    0.678027 0.122397 0.728020 0.163924
C50   C     C_3   0.075470 0.216792 0.751135 -0.432703
H60   H     H_    0.066465 0.254949 0.692402 0.055386
H61   H     H_    0.158545 0.257186 0.810904 0.114174
H62   H     H_    0.118360 0.151809 0.728346 0.086201
C51   C     C_3   0.005450 0.050715 0.841328 -0.482477
H63   H     H_    0.136067 0.061943 0.838653 0.123077
H64   H     H_    0.990334 0.006485 0.894435 0.119588
H65   H     H_    0.939096 0.012144 0.774710 0.066799
O28   O     O_3   0.057431 0.196823 0.938874 -0.734117
H66   H     H_    0.058824 0.164544 0.992676 0.302350
O29   O     O_3   0.797135 0.125954 0.899152 -0.734371
H67   H     H_    0.733203 0.067837 0.863887 0.273897
O30   O     O_3   0.594815 0.305224 0.766348 -0.652640
H68   H     H_    0.587497 0.366870 0.798197 0.289996
C52   C     C_3   0.556156 0.276009 0.944736 -0.405228
H69   H     H_    0.483853 0.330299 0.961172 0.109813
H70   H     H_    0.574395 0.238295 0.003459 0.165756
H71   H     H_    0.677295 0.307189 0.935962 0.205608
C53   C     C_3   0.818686 0.354295 0.193369 -0.286489
H72   H     H_    0.695719 0.332640 0.151237 0.081282
H73   H     H_    0.818221 0.418116 0.240162 0.103001
H74   H     H_    0.906223 0.367250 0.147374 0.106015

loop_
_geom_bond_atom_site_label_1
_geom_bond_atom_site_label_2
_ccdc_geom_bond_type
Ba1   O8    S    
C8    C52   S    
C9    P6    S    
C39   C40   S    
Ba2   P4    S    
Ba2   O5    S    
O7    P4    S    
C16   C24   A    
O12   P1    S    
C46   H47   S    
C43   H37   S    
C3    O15   S    
C5    C6    S    
O8    P7    S    
C38   C44   S    
Ba1   O5    S    
C38   H2    S    
C3    C45   S    
C28   C36   S    
C53   H73   S    
C35   C36   A    
C30   P7    S    
O1    P1    D    
C23   H33   S    
C21   H22   S    
C26   C27   A    
C33   C35   A    
C10   P1    S    
C28   C29   A    
O9    P5    S    
C41   H8    S    
C13   C14   A    
C12   H18   S    
C9    C22   A    
O5    P4    S    
C44   H39   S    
C3    C46   S    
Ba2   O6    S    
Ba1   Ba2   S    
C4    H14   S    
C4    O27   S    
C8    H19   S    
O4    P4    D    
C47   H50   S    
C51   H65   S    
C39   O20   S    
Ba2   O9    S    
C14   H24   S    
C37   H31   S    
C6    O28   S    
C7    C8    S    
C20   H25   S    
C7    O17   S    
C41   O25   S    
C5    C50   S    
C22   H20   S    
O20   P1    S    
C2    C43   S    
O21   P6    S    
Ba1   O12   S    
O19   P6    D    
C19   C20   A    
C2    H12   S    
C49   H59   S    
Ba2   O4    S    
C43   H36   S    
C31   C32   A    
C50   H61   S    
Ba2   O14   S    
O22   P2    D    
C38   H1    S    
O17   P8    S    
O2    P2    S    
C9    C18   A    
C49   H57   S    
C23   H34   S    
C32   P3    S    
C12   H29   S    
C13   P8    S    
C34   C38   S    
C4    C47   S    
Ba1   O18   S    
C17   C21   A    
C14   C15   A    
C29   H30   S    
C34   O7    S    
C5    O11   S    
O15   P7    S    
C32   C37   A    
C52   H70   S    
C6    C51   S    
C41   C42   S    
C52   H71   S    
C27   C28   A    
C33   P2    S    
C50   H62   S    
O18   P6    S    
C29   C30   A    
C10   C21   A    
C5    C49   S    
C15   C16   A    
C39   H3    S    
Ba2   O8    S    
Ba2   O13   S    
Ba1   P1    S    
O28   H66   S    
C48   H55   S    
C31   H26   S    
C40   H6    S    
C45   H46   S    
C1    H13   S    
Ba1   O13   S    
C11   C13   A    
O30   H68   S    
C41   O2    S    
C49   H58   S    
C11   C24   A    
C8    H17   S    
C12   O3    S    
C25   H32   S    
C48   H56   S    
C46   H49   S    
Ba1   O22   S    
O25   H42   S    
C45   H45   S    
C50   H60   S    
C11   H23   S    
C10   C22   A    
C53   H72   S    
C19   H21   S    
C25   C30   A    
C16   C20   A    
C53   H74   S    
O27   H53   S    
O6    P8    S    
C34   H35   S    
C46   H48   S    
C24   P4    S    
C40   H7    S    
O14   P7    D    
C31   C36   A    
C44   H41   S    
C7    H16   S    
C52   H69   S    
C17   C18   A    
C2    O21   S    
C23   C48   S    
O11   P5    S    
O16   P8    D    
C1    H9    S    
C42   H11   S    
C3    C4    S    
C7    O30   S    
C26   P5    S    
C47   H52   S    
C33   C37   A    
O10   P5    D    
C42   O26   S    
C15   C17   A    
C39   H4    S    
C44   H40   S    
O23   P3    S    
O24   P3    D    
C51   H64   S    
O3    P3    S    
C12   C23   S    
Ba2   O12   S    
C6    O29   S    
C48   H54   S    
C40   H5    S    
C42   H10   S    
O13   P2    S    
O29   H67   S    
C18   C19   A    
C47   H51   S    
C35   H28   S    
C25   C26   A    
C34   C53   S    
Ba1   O1    S    
C51   H63   S    
O26   H43   S    
Ba1   O23   S    
C43   H38   S    
C1    C2    S    
Ba1   P2    S    
C45   H44   S    
C27   H27   S    
C1    H15   S    
