data_mof_unit_41802.cif
_audit_creation_date              2012-12-11T15:31:44-0500
_audit_creation_method            fapswitch 2.2
_symmetry_space_group_name_H-M    P1
_symmetry_Int_Tables_number       1
_space_group_crystal_system       triclinic
_cell_length_a                    13.588727
_cell_length_b                    13.587808
_cell_length_c                    27.649165
_cell_angle_alpha                 90.41696
_cell_angle_beta                  90.179747
_cell_angle_gamma                 119.997743
_cell_volume                      4421.05493583

loop_
_atom_site_label
_atom_site_type_symbol
_atom_type_description
_atom_site_fract_x
_atom_site_fract_y
_atom_site_fract_z
_atom_type_partial_charge
C1    C     C_R   0.619542 0.898262 0.431317 0.546441
C2    C     C_R   0.678734 0.427624 0.221713 -0.117939
C3    C     C_R   0.670749 0.411673 0.271747 -0.111557
C4    C     C_R   0.669430 0.316370 0.291359 0.036292
C5    C     C_R   0.685120 0.348301 0.191048 0.027923
C6    C     C_1   0.693125 0.366611 0.139686 -0.069182
C7    C     C_1   0.652180 0.293996 0.342331 -0.058706
C8    C     C_1   0.701388 0.391303 0.097542 -0.017077
C9    C     C_1   0.230469 0.861516 0.383127 -0.010012
C10   C     C_R   0.190276 0.932623 0.263701 -0.115963
C11   C     C_R   0.174562 0.923604 0.213495 -0.141226
C12   C     C_R   0.599755 0.218620 0.431357 0.545654
C13   C     C_R   0.129051 0.726287 0.216237 0.157388
C14   C     C_R   0.146052 0.736522 0.266547 -0.096269
C15   C     C_R   0.175780 0.839030 0.290309 0.011922
C16   C     C_R   0.144680 0.821079 0.189521 0.062716
C17   C     C_1   0.123773 0.811060 0.138049 -0.025106
C18   C     C_1   0.201083 0.850500 0.341318 -0.053972
C19   C     C_1   0.096864 0.794067 0.095916 -0.005971
C20   C     C_1   0.635212 0.865750 0.383747 -0.013152
C21   C     C_R   0.610557 0.725155 0.269707 -0.108430
C22   C     C_R   0.615092 0.713463 0.219524 -0.108171
C23   C     C_R   0.279316 0.878703 0.430623 0.546472
C24   C     C_R   0.703349 0.917699 0.210893 -0.105821
C25   C     C_R   0.699038 0.929373 0.260987 -0.105341
C26   C     C_R   0.653044 0.833317 0.290557 0.039480
C27   C     C_R   0.661341 0.809735 0.190000 0.039641
C28   C     C_1   0.674781 0.798526 0.138970 -0.057826
C29   C     C_1   0.644529 0.847066 0.341799 -0.057939
C30   C     C_1   0.692570 0.787644 0.097122 -0.013389
C31   C     C_R   0.644166 0.286680 0.613678 0.023980
C32   C     C_R   0.732830 0.283303 0.638549 -0.128115
C33   C     C_R   0.754373 0.316691 0.686682 -0.125786
C34   C     C_R   0.620316 0.900786 0.569072 0.542197
C35   C     C_R   0.689144 0.355773 0.709877 0.035251
C36   C     C_R   0.608237 0.369726 0.683988 -0.119015
C37   C     C_R   0.585408 0.334812 0.635965 -0.129750
C38   C     C_R   0.715795 0.476420 0.780733 -0.142501
C39   C     C_R   0.717967 0.491453 0.830192 -0.146843
C40   C     C_R   0.687229 0.300723 0.842916 0.119528
C41   C     C_R   0.684868 0.285882 0.792716 -0.108457
C42   C     C_R   0.698795 0.373677 0.761875 0.002134
C43   C     C_R   0.701743 0.403698 0.861295 0.075485
C44   C     C_R   0.222114 0.862567 0.614502 0.023877
C45   C     C_R   0.601912 0.223313 0.568396 0.542187
C46   C     C_R   0.238383 0.956742 0.642091 -0.127489
C47   C     C_R   0.210860 0.944357 0.690764 -0.123148
C48   C     C_R   0.164764 0.837336 0.712256 0.034801
C49   C     C_R   0.139401 0.741582 0.683691 -0.120505
C50   C     C_R   0.168543 0.754211 0.635089 -0.127605
C51   C     C_R   0.171393 0.753306 0.791059 -0.118922
C52   C     C_R   0.145682 0.736071 0.839989 -0.124548
C53   C     C_R   0.079473 0.872023 0.837344 -0.127346
C54   C     C_R   0.103452 0.887813 0.788402 -0.123274
C55   C     C_R   0.146650 0.826284 0.764628 0.034900
C56   C     C_R   0.279400 0.881363 0.568080 0.542085
C57   C     C_R   0.096229 0.792719 0.863056 0.023086
C58   C     C_R   0.637376 0.862719 0.616151 0.022793
C59   C     C_R   0.543540 0.773737 0.639398 -0.125749
C60   C     C_R   0.548924 0.755126 0.688306 -0.124007
C61   C     C_R   0.649037 0.823311 0.714598 0.034294
C62   C     C_R   0.745982 0.905811 0.690479 -0.122153
C63   C     C_R   0.739985 0.925989 0.641580 -0.128999
C64   C     C_R   0.713140 0.905802 0.797205 -0.122963
C65   C     C_R   0.726466 0.892283 0.846114 -0.128481
C66   C     C_R   0.605259 0.688298 0.836788 -0.139138
C67   C     C_1   0.632030 0.266228 0.384046 -0.013321
C68   C     C_R   0.594310 0.701522 0.787690 -0.128567
C69   C     C_R   0.651510 0.810068 0.767205 0.035647
C70   C     C_R   0.676681 0.782987 0.865680 0.022445
C71   C     C_R   0.049439 0.761232 0.048188 0.544781
C72   C     C_R   0.714262 0.435789 0.049707 0.548741
C73   C     C_R   0.723617 0.770792 0.049537 0.546151
C74   C     C_R   0.043599 0.755765 0.910413 0.540965
C75   C     C_R   0.708280 0.429657 0.912245 0.569638
C76   C     C_R   0.716774 0.765575 0.912154 0.533962
C77   C     C_R   0.676949 0.237618 0.260734 -0.106059
C78   C     C_R   0.685094 0.253641 0.210669 -0.111305
Cr1   Cr    Cr6+3 0.417720 0.831920 0.499820 1.020951
Cr2   Cr    Cr6+3 0.668190 0.085770 0.500360 1.021053
Cr3   Cr    Cr6+3 0.414060 0.082260 0.499840 1.021818
Cr4   Cr    Cr6+3 0.908000 0.821090 0.979770 1.017238
Cr5   Cr    Cr6+3 0.912420 0.571130 0.979880 1.021035
Cr6   Cr    Cr6+3 0.657970 0.566940 0.980940 1.025094
H1    H     H_    0.674773 0.162995 0.275545 0.106979
H2    H     H_    0.583628 0.629638 0.203803 0.106563
H3    H     H_    0.740598 0.992843 0.188567 0.106150
H4    H     H_    0.731653 0.013351 0.276704 0.103610
H5    H     H_    0.780054 0.247222 0.622057 0.130904
H6    H     H_    0.727337 0.544737 0.757162 0.124386
H7    H     H_    0.733403 0.572477 0.844461 0.122700
H8    H     H_    0.818330 0.307517 0.706396 0.103023
H9    H     H_    0.670707 0.205806 0.777780 0.109390
H10   H     H_    0.557888 0.400705 0.701776 0.105451
H11   H     H_    0.690443 0.192057 0.187367 0.108531
H12   H     H_    0.517417 0.339035 0.617315 0.125414
H13   H     H_    0.280199 0.041474 0.627135 0.132978
H14   H     H_    0.208086 0.707596 0.773646 0.104587
H15   H     H_    0.159842 0.674975 0.859180 0.128186
H16   H     H_    0.231460 0.019528 0.712060 0.104494
H17   H     H_    0.083246 0.944223 0.768779 0.102074
H18   H     H_    0.040617 0.916401 0.854124 0.134933
H19   H     H_    0.100412 0.657593 0.699289 0.105969
H20   H     H_    0.154358 0.680307 0.614295 0.124741
H21   H     H_    0.463034 0.723378 0.620761 0.132609
H22   H     H_    0.679476 0.501582 0.206881 0.107964
H23   H     H_    0.754316 0.990815 0.782577 0.098063
H24   H     H_    0.780597 0.966660 0.868006 0.117980
H25   H     H_    0.472817 0.691210 0.705921 0.100813
H26   H     H_    0.546250 0.626171 0.765463 0.099853
H27   H     H_    0.565560 0.603032 0.851112 0.131580
H28   H     H_    0.825468 0.956929 0.709710 0.100963
H29   H     H_    0.813707 0.994467 0.624371 0.124727
H30   H     H_    0.664043 0.472596 0.294972 0.109646
H31   H     H_    0.214968 0.012863 0.281685 0.123427
H32   H     H_    0.185609 0.996533 0.193372 0.117040
H33   H     H_    0.136123 0.664448 0.287059 0.108845
H34   H     H_    0.574077 0.650204 0.292134 0.107073
O1    O     O_R   0.302900 0.805360 0.446400 -0.506979
O2    O     O_R   0.657980 0.180990 0.549630 -0.505341
O3    O     O_R   0.503420 0.197810 0.553190 -0.522237
O4    O     O_R   0.320350 0.978840 0.548910 -0.504168
O5    O     O_3   0.499990 0.999990 0.500010 -0.244617
O6    O     O_R   0.819150 0.845650 0.033320 -0.507320
O7    O     O_R   0.006060 0.815720 0.028680 -0.495266
O8    O     O_R   0.028100 0.664460 0.032550 -0.501228
O9    O     O_R   0.811290 0.477490 0.029660 -0.496702
O10   O     O_R   0.638120 0.455970 0.034270 -0.502181
O11   O     O_R   0.667540 0.672320 0.030160 -0.492560
O12   O     O_R   0.522090 0.841370 0.450730 -0.493674
O13   O     O_R   0.814460 0.840990 0.926980 -0.521805
O14   O     O_R   0.001710 0.811400 0.930110 -0.505346
O15   O     O_R   0.023410 0.659800 0.926210 -0.517523
O16   O     O_R   0.806940 0.473170 0.931090 -0.504667
O17   O     O_R   0.633420 0.451310 0.927930 -0.518415
O18   O     O_R   0.663190 0.668000 0.931580 -0.507726
O19   O     O_3   0.826130 0.653050 0.980200 -0.250797
O20   O     O_R   0.693280 0.995650 0.447220 -0.506302
O21   O     O_R   0.657260 0.178740 0.451050 -0.494567
O22   O     O_R   0.502640 0.195380 0.446850 -0.506109
O23   O     O_R   0.319630 0.976590 0.450330 -0.493502
O24   O     O_R   0.303680 0.807790 0.552740 -0.521071
O25   O     O_R   0.522820 0.843620 0.549310 -0.505153
O26   O     O_R   0.694060 0.998080 0.553560 -0.520236
N1    N     N_2   0.671194 0.211551 0.874302 -0.524968
H35   H     H_    0.611691 0.132099 0.861480 0.252613
C79   C     C_3   0.775496 0.215255 0.888531 -0.307336
H36   H     H_    0.817149 0.202550 0.856433 0.126082
H37   H     H_    0.756233 0.146493 0.914739 0.144269
H38   H     H_    0.834676 0.297888 0.906193 0.173923
N2    N     N_2   0.097751 0.621095 0.192673 -0.514590
H39   H     H_    0.133310 0.577340 0.208355 0.246516
C80   C     C_3   0.976693 0.549252 0.185136 -0.290157
H40   H     H_    0.932755 0.522967 0.220500 0.147206
H41   H     H_    0.959858 0.471951 0.164449 0.153354
H42   H     H_    0.941706 0.594364 0.164129 0.163985

loop_
_geom_bond_atom_site_label_1
_geom_bond_atom_site_label_2
_ccdc_geom_bond_type
Cr6   O10   S    
C48   C55   S    
C66   C68   A    
C21   C26   A    
Cr2   O2    S    
Cr6   O17   S    
C50   H20   S    
C22   H2    S    
C74   O14   A    
C15   C18   S    
C41   C42   A    
C54   H17   S    
C19   C71   S    
C35   C36   A    
C24   C27   A    
N1    H35   S    
C76   O18   A    
C75   O16   A    
C66   C70   A    
C77   C78   A    
C34   O26   A    
C62   C63   A    
C40   N1    S    
C72   O10   A    
C36   C37   A    
C79   H37   S    
C38   C42   A    
Cr4   O19   S    
C10   C15   A    
C23   O1    A    
C38   C39   A    
C76   O13   A    
C75   O17   A    
Cr1   O24   S    
C44   C50   A    
C65   C70   A    
C74   O15   A    
Cr6   O11   S    
Cr4   O6    S    
C35   C42   S    
Cr5   O16   S    
C60   H25   S    
Cr3   O22   S    
C17   C19   T    
C54   C55   A    
C40   C43   A    
C41   H9    S    
C79   H36   S    
C16   C17   S    
Cr2   O26   S    
Cr1   O1    S    
N2    H39   S    
C12   O22   A    
C71   O8    A    
C66   H27   S    
C80   H41   S    
C78   H11   S    
C65   H24   S    
C56   O24   A    
C14   H33   S    
C51   H14   S    
Cr3   O23   S    
C77   H1    S    
C59   C60   A    
C80   H40   S    
C21   C22   A    
C4    C7    S    
C39   H7    S    
N1    C79   S    
C44   C46   A    
C20   C29   T    
C43   C75   S    
C12   C67   S    
C73   O11   A    
C34   O25   A    
C8    C72   S    
C72   O9    A    
C51   C52   A    
C79   H38   S    
C24   C25   A    
C13   N2    S    
C1    O12   A    
C68   H26   S    
C33   H8    S    
C30   C73   S    
C53   C57   A    
C68   C69   A    
C6    C8    T    
C45   O3    A    
C58   C59   A    
C53   C54   A    
Cr1   O12   S    
Cr1   O5    S    
C2    H22   S    
C25   H4    S    
C47   H16   S    
C31   C37   A    
C37   H12   S    
Cr3   O3    S    
C60   C61   A    
C56   O4    A    
C57   C74   S    
Cr4   O7    S    
C21   H34   S    
Cr1   O25   S    
C11   C16   A    
C44   C56   S    
C47   C48   A    
C53   H18   S    
C73   O6    A    
C12   O21   A    
C59   H21   S    
C64   C69   A    
C80   H42   S    
C11   H32   S    
C45   O2    A    
C40   C41   A    
C46   H13   S    
Cr3   O5    S    
Cr6   O19   S    
C22   C27   A    
C32   H5    S    
C70   C76   S    
C2    C5    A    
Cr5   O8    S    
Cr4   O14   S    
C3    C4    A    
Cr5   O19   S    
C52   C57   A    
C64   H23   S    
C61   C69   S    
C58   C63   A    
C46   C47   A    
C48   C49   A    
C1    C20   S    
Cr4   O13   S    
C31   C32   A    
C9    C23   S    
Cr5   O9    S    
C3    H30   S    
C49   H19   S    
C39   C43   A    
Cr2   O21   S    
C38   H6    S    
C52   H15   S    
Cr3   O4    S    
C64   C65   A    
C28   C30   T    
C2    C3    A    
C25   C26   A    
C4    C77   A    
C32   C33   A    
C5    C6    S    
Cr2   O20   S    
C33   C35   A    
C51   C55   A    
N2    C80   S    
C61   C62   A    
C24   H3    S    
Cr5   O15   S    
C10   C11   A    
C1    O20   A    
C7    C67   T    
C63   H29   S    
C36   H10   S    
C9    C18   T    
C62   H28   S    
C26   C29   S    
C49   C50   A    
C31   C45   S    
C13   C16   A    
C23   O23   A    
C27   C28   S    
C34   C58   S    
C14   C15   A    
C71   O7    A    
C5    C78   A    
C13   C14   A    
C10   H31   S    
Cr6   O18   S    
Cr2   O5    S    
