data_mof_unit_62420.cif
_audit_creation_date              2012-12-10T17:19:26-0500
_audit_creation_method            fapswitch 2.2
_symmetry_space_group_name_H-M    P1
_symmetry_Int_Tables_number       1
_space_group_crystal_system       triclinic
_cell_length_a                    18.813088
_cell_length_b                    18.782403
_cell_length_c                    18.986319
_cell_angle_alpha                 109.789939
_cell_angle_beta                  109.794393
_cell_angle_gamma                 109.477096
_cell_volume                      5122.78072328

loop_
_atom_site_label
_atom_site_type_symbol
_atom_type_description
_atom_site_fract_x
_atom_site_fract_y
_atom_site_fract_z
_atom_type_partial_charge
C1    C     C_R   0.381217 0.380727 0.499744 0.768501
C2    C     C_3   0.808575 0.498751 0.808859 0.069557
C3    C     C_3   0.853100 0.553075 0.773448 0.229810
C4    C     C_3   0.764158 0.542600 0.849799 -0.157247
C5    C     C_R   0.241380 0.319419 0.496512 -0.165664
C6    C     C_R   0.176969 0.254980 0.495792 -0.168393
C7    C     C_R   0.186580 0.185642 0.500508 -0.012165
C8    C     C_R   0.260182 0.180174 0.504441 -0.178002
C9    C     C_R   0.323251 0.243152 0.502254 -0.180064
C10   C     C_R   0.314212 0.313212 0.499029 -0.006207
C11   C     C_R   0.332425 0.571879 0.303942 -0.221308
C12   C     C_R   0.621983 0.503089 0.619796 0.764438
C13   C     C_R   0.269612 0.572338 0.239099 -0.178422
C14   C     C_R   0.184778 0.499252 0.183638 -0.114950
C15   C     C_R   0.163836 0.425302 0.193151 -0.156514
C16   C     C_R   0.226264 0.423442 0.257168 0.408376
C17   C     C_R   0.311767 0.497904 0.313171 -0.106535
C18   C     C_R   0.744011 0.775074 0.575823 0.443403
C19   C     C_R   0.805982 0.837292 0.572371 -0.208271
C20   C     C_R   0.812057 0.815534 0.497779 -0.142874
C21   C     C_R   0.752011 0.732152 0.422920 -0.006577
C22   C     C_R   0.690391 0.668968 0.426047 -0.275500
C23   C     C_R   0.619695 0.619810 0.501267 0.792501
C24   C     C_R   0.686097 0.688952 0.502039 -0.126719
C25   C     C_R   0.997615 0.380616 0.878989 0.771107
C26   C     C_R   0.877541 0.497857 0.876191 0.781153
C27   C     C_R   0.997353 0.619702 0.115603 0.783824
C28   C     C_R   0.117271 0.499935 0.116755 0.805958
C29   C     C_R   0.000350 0.880919 0.381820 0.798783
C30   C     C_R   0.119153 0.118665 0.500115 0.776561
C31   C     C_R   0.999113 0.118449 0.618151 0.774549
C32   C     C_R   0.880860 0.881225 0.499146 0.814493
C33   C     C_R   0.077435 0.321663 0.821001 -0.171561
C34   C     C_R   0.380423 0.499752 0.380515 0.768467
C35   C     C_R   0.077848 0.257010 0.757944 -0.175870
C36   C     C_R   0.998545 0.184963 0.684974 -0.009622
C37   C     C_R   0.918781 0.176835 0.676175 -0.173921
C38   C     C_R   0.918361 0.240011 0.740764 -0.180599
C39   C     C_R   0.997715 0.312975 0.812828 -0.007661
C40   C     C_R   0.003637 0.764309 0.180837 -0.012677
C41   C     C_R   0.001129 0.825376 0.245332 -0.218868
C42   C     C_R   0.001891 0.815742 0.315200 -0.011228
C43   C     C_R   0.004480 0.744417 0.321100 -0.171988
C44   C     C_R   0.001146 0.679958 0.254359 -0.221195
C45   C     C_3   0.663790 0.407997 0.665576 -0.451757
C46   C     C_R   0.000480 0.688967 0.183847 -0.069004
C47   C     C_3   0.737346 0.404555 0.730984 -0.496905
C48   C     C_3   0.782258 0.542885 0.693245 -0.140586
C49   C     C_3   0.697110 0.550282 0.781466 -0.139898
C50   C     C_3   0.691599 0.505787 0.689853 0.013108
Cu1   Cu    Cu3+1 0.500370 0.438230 0.438520 0.940141
Cu2   Cu    Cu3+1 0.499630 0.561770 0.561480 0.967750
Cu3   Cu    Cu3+1 0.935490 0.438190 0.997300 0.951869
Cu4   Cu    Cu3+1 0.059110 0.561720 0.997220 0.944357
Cu5   Cu    Cu3+1 0.937870 0.999900 0.437760 0.941483
Cu6   Cu    Cu3+1 0.062130 0.999920 0.562070 0.938724
H1    H     H_    0.651037 0.368247 0.599254 0.193427
H2    H     H_    0.818138 0.610363 0.902321 0.173776
H3    H     H_    0.233873 0.373347 0.493816 0.141404
H4    H     H_    0.120405 0.259898 0.492955 0.141628
H5    H     H_    0.267910 0.126505 0.507605 0.139440
H6    H     H_    0.379744 0.238268 0.504754 0.132003
H7    H     H_    0.397688 0.629041 0.346526 0.149043
H8    H     H_    0.286989 0.630219 0.233129 0.158198
H9    H     H_    0.098484 0.368300 0.150531 0.172205
H10   H     H_    0.600640 0.374694 0.661937 0.162638
H11   H     H_    0.851492 0.902363 0.629322 0.156081
H12   H     H_    0.645271 0.604179 0.368611 0.173865
H13   H     H_    0.139122 0.377766 0.876677 0.140097
H14   H     H_    0.139833 0.263964 0.765147 0.139487
H15   H     H_    0.857127 0.121082 0.620123 0.138995
H16   H     H_    0.856414 0.233011 0.733741 0.134949
H17   H     H_    0.709140 0.360209 0.752681 0.211089
H18   H     H_    0.001621 0.882331 0.242661 0.148003
H19   H     H_    0.005402 0.736848 0.375442 0.140254
H20   H     H_    0.000222 0.623458 0.258282 0.146499
H21   H     H_    0.767797 0.375681 0.697817 0.154282
H22   H     H_    0.773505 0.485414 0.639993 0.104149
H23   H     H_    0.891090 0.525149 0.751750 0.067698
H24   H     H_    0.630381 0.508851 0.767444 0.131812
O1    O     O_R   0.410130 0.357660 0.448070 -0.583624
O2    O     O_R   0.049990 0.461930 0.907530 -0.592105
O3    O     O_R   0.854450 0.447820 0.906640 -0.579727
O4    O     O_R   0.958850 0.552130 0.906580 -0.564854
O5    O     O_R   0.944620 0.537990 0.086990 -0.589109
O6    O     O_R   0.049020 0.642300 0.086930 -0.582098
O7    O     O_R   0.035760 0.447780 0.087940 -0.589455
O8    O     O_R   0.140150 0.552090 0.087880 -0.590506
O9    O     O_R   0.948110 0.909780 0.357760 -0.582236
O10   O     O_R   0.053050 0.909790 0.462730 -0.591114
O11   O     O_R   0.037720 0.090080 0.447430 -0.584746
O12   O     O_R   0.409500 0.461990 0.551910 -0.583605
O13   O     O_R   0.142660 0.090100 0.552410 -0.587425
O14   O     O_R   0.946950 0.090030 0.537090 -0.588186
O15   O     O_R   0.051890 0.090040 0.642060 -0.584533
O16   O     O_R   0.857350 0.909730 0.447410 -0.585974
O17   O     O_R   0.962280 0.909740 0.552390 -0.594953
O18   O     O_R   0.590970 0.447820 0.538740 -0.598331
O19   O     O_R   0.590340 0.552140 0.642570 -0.591806
O20   O     O_R   0.590500 0.538010 0.448090 -0.590055
O21   O     O_R   0.589870 0.642340 0.551930 -0.575242
O22   O     O_R   0.409660 0.447860 0.357430 -0.576174
O23   O     O_R   0.409030 0.552180 0.461260 -0.576719
O24   O     O_R   0.945590 0.357610 0.907590 -0.584875
C51   C     C_R   0.812065 0.611920 0.666972 0.075424
C52   C     C_R   0.795852 0.581831 0.580920 -0.165997
C53   C     C_R   0.839335 0.638555 0.558433 -0.132122
C54   C     C_R   0.898252 0.727006 0.620473 -0.100706
C55   C     C_R   0.911166 0.759549 0.704193 -0.146658
C56   C     C_R   0.868608 0.702960 0.727389 -0.151824
H25   H     H_    0.752407 0.513033 0.531551 0.135084
H26   H     H_    0.827853 0.613585 0.492882 0.127532
H27   H     H_    0.932429 0.770719 0.603113 0.143515
H28   H     H_    0.955058 0.828783 0.751681 0.137433
H29   H     H_    0.881454 0.731785 0.793138 0.177893
O25   O     O_3   0.910609 0.641224 0.840214 -0.740501
H30   H     H_    0.965998 0.661286 0.839096 0.330472
O26   O     O_3   0.200107 0.348615 0.263027 -0.734929
H31   H     H_    0.246791 0.357941 0.315339 0.317846
O27   O     O_3   0.745116 0.800409 0.653301 -0.741366
H32   H     H_    0.733705 0.750483 0.663027 0.320052
C57   C     C_R   0.754988 0.708543 0.342193 0.108242
C58   C     C_R   0.722461 0.738535 0.287370 -0.094011
C59   C     C_R   0.729926 0.719706 0.213304 -0.131129
C60   C     C_R   0.768576 0.669883 0.193184 -0.095837
C61   C     C_R   0.798344 0.637588 0.246348 -0.140890
C62   C     C_R   0.792000 0.657141 0.320827 -0.182618
H33   H     H_    0.692852 0.777616 0.302866 0.128524
H34   H     H_    0.706417 0.744264 0.171933 0.117505
H35   H     H_    0.775869 0.657064 0.136851 0.126789
H36   H     H_    0.828441 0.599119 0.231742 0.129505
H37   H     H_    0.817162 0.633483 0.362522 0.120225
C63   C     C_R   0.010969 0.783252 0.113327 0.101253
C64   C     C_R   0.941004 0.781318 0.052863 -0.186491
C65   C     C_R   0.951039 0.807899 0.994744 -0.059490
C66   C     C_R   0.030665 0.836480 0.996495 -0.085958
C67   C     C_R   0.100880 0.839454 0.057120 -0.144477
C68   C     C_R   0.091565 0.814156 0.116213 -0.071793
H38   H     H_    0.879329 0.760398 0.051641 0.126447
H39   H     H_    0.897382 0.806860 0.948621 0.146378
H40   H     H_    0.038016 0.856666 0.951128 0.114313
H41   H     H_    0.162869 0.862480 0.059110 0.118869
H42   H     H_    0.147275 0.819337 0.164706 0.124628
C69   C     C_R   0.709516 0.642672 0.823846 0.144334
C70   C     C_R   0.698025 0.669592 0.896298 -0.198104
C71   C     C_R   0.708821 0.752740 0.938337 -0.141971
C72   C     C_R   0.729903 0.810264 0.908123 -0.119718
C73   C     C_R   0.739567 0.784297 0.835550 -0.182359
C74   C     C_R   0.729421 0.701282 0.793950 -0.073739
H43   H     H_    0.680491 0.626028 0.920589 0.134199
H44   H     H_    0.700531 0.772370 0.994221 0.128218
H45   H     H_    0.738072 0.874614 0.940477 0.134801
H46   H     H_    0.754815 0.828561 0.811466 0.172553
H47   H     H_    0.733794 0.681924 0.736657 0.122915
C75   C     C_R   0.725594 0.499704 0.894292 0.085585
C76   C     C_R   0.775235 0.537982 0.984887 -0.116904
C77   C     C_R   0.748605 0.495417 0.026623 -0.092980
C78   C     C_R   0.668898 0.417350 0.980101 -0.123385
C79   C     C_R   0.616175 0.380767 0.891039 -0.141418
C80   C     C_R   0.644323 0.420975 0.848233 -0.133971
H48   H     H_    0.836757 0.599070 0.022804 0.095945
H49   H     H_    0.790707 0.522312 0.094887 0.123489
H50   H     H_    0.648219 0.385100 0.012981 0.123481
H51   H     H_    0.553997 0.320265 0.854699 0.128462
H52   H     H_    0.601877 0.389193 0.779348 0.115704

loop_
_geom_bond_atom_site_label_1
_geom_bond_atom_site_label_2
_ccdc_geom_bond_type
Cu6   O15   S    
Cu5   Cu6   S    
Cu2   O23   S    
C61   C62   A    
C29   C42   S    
C53   H26   S    
C35   C36   A    
C51   C56   A    
C3    H23   S    
C29   O9    A    
C70   C71   A    
C7    C8    A    
Cu3   Cu4   S    
O25   H30   S    
Cu1   O22   S    
C40   C46   A    
C45   H1    S    
C34   O22   A    
C26   O3    A    
C18   C24   A    
C61   H36   S    
C76   C77   A    
C32   O17   A    
C30   O13   A    
C11   H7    S    
C3    O25   S    
C31   C36   S    
C5    C6    A    
C16   C17   A    
C52   C53   A    
Cu3   O24   S    
C1    O1    A    
C15   C16   A    
C15   H9    S    
C49   C69   S    
C3    C48   S    
C21   C57   S    
C54   C55   A    
C27   O5    A    
C18   C19   A    
C41   C42   A    
C48   H22   S    
C57   C62   A    
C44   H20   S    
O26   H31   S    
C12   O19   A    
Cu5   O11   S    
C72   C73   A    
C41   H18   S    
C62   H37   S    
C60   H35   S    
C77   C78   A    
C19   C20   A    
C35   H14   S    
C8    C9    A    
C28   O8    A    
C53   C54   A    
C78   C79   A    
C19   H11   S    
C65   C66   A    
C9    C10   A    
Cu1   O1    S    
C12   O18   A    
C70   H43   S    
C33   H13   S    
C8    H5    S    
Cu1   O18   S    
Cu6   O10   S    
C23   O20   A    
C67   C68   A    
C63   C68   A    
C7    C30   S    
C21   C22   A    
Cu6   O13   S    
Cu6   O17   S    
Cu5   O14   S    
Cu4   O4    S    
C29   O10   A    
C44   C46   A    
C52   H25   S    
C45   C47   S    
C43   H19   S    
C65   H39   S    
C38   H16   S    
Cu2   O21   S    
C67   H41   S    
C5    H3    S    
C9    H6    S    
C6    H4    S    
C58   C59   A    
C38   C39   A    
C73   C74   A    
C47   H17   S    
Cu3   O7    S    
C64   H38   S    
Cu4   O6    S    
Cu5   O16   S    
Cu1   Cu2   S    
C45   H10   S    
C54   H27   S    
C27   O6    A    
C2    C4    S    
C74   H47   S    
C37   C38   A    
C16   O26   S    
C63   C64   A    
C79   C80   A    
C23   C24   S    
C28   O7    A    
C25   O2    A    
C2    C26   S    
C69   C70   A    
C33   C39   A    
C80   H52   S    
C22   H12   S    
C6    C7    A    
C55   H28   S    
C78   H50   S    
C27   C46   S    
C40   C41   A    
C32   O16   A    
C76   H48   S    
C1    O12   A    
C37   H15   S    
C43   C44   A    
C60   C61   A    
C22   C24   A    
Cu2   O12   S    
C17   C34   S    
C47   H21   S    
C18   O27   S    
Cu4   O2    S    
O27   H32   S    
C71   C72   A    
C20   C32   S    
C40   C63   S    
Cu1   O20   S    
C11   C17   A    
C26   O4    A    
C69   C74   A    
C75   C80   A    
C14   C15   A    
C1    C10   S    
C30   O11   A    
C12   C50   S    
C25   O24   A    
C64   C65   A    
C2    C47   S    
C31   O14   A    
C51   C52   A    
Cu2   O19   S    
C34   O23   A    
C49   H24   S    
Cu3   O3    S    
C4    C49   S    
C68   H42   S    
C14   C28   S    
C2    C3    S    
C57   C58   A    
C5    C10   A    
Cu5   O9    S    
C55   C56   A    
C25   C39   S    
Cu4   O8    S    
C11   C13   A    
C58   H33   S    
C23   O21   A    
C13   H8    S    
C45   C50   S    
C31   O15   A    
C77   H49   S    
C48   C50   S    
C33   C35   A    
C66   H40   S    
C59   H34   S    
C72   H45   S    
C71   H44   S    
C4    C75   S    
C20   C21   A    
C36   C37   A    
C49   C50   S    
C42   C43   A    
C4    H2    S    
C75   C76   A    
C79   H51   S    
C66   C67   A    
Cu3   O5    S    
C48   C51   S    
C73   H46   S    
C13   C14   A    
C56   H29   S    
C59   C60   A    
