data_mof_unit_8625.cif
_audit_creation_date              2012-12-10T17:57:53-0500
_audit_creation_method            fapswitch 2.2
_symmetry_space_group_name_H-M    P1
_symmetry_Int_Tables_number       1
_space_group_crystal_system       triclinic
_cell_length_a                    10.833319
_cell_length_b                    9.510497
_cell_length_c                    15.098307
_cell_angle_alpha                 90.50367
_cell_angle_beta                  90.255798
_cell_angle_gamma                 90.038641
_cell_volume                      1555.50630941

loop_
_atom_site_label
_atom_site_type_symbol
_atom_type_description
_atom_site_fract_x
_atom_site_fract_y
_atom_site_fract_z
_atom_type_partial_charge
C1    C     C_R   0.262037 0.499975 0.499965 0.789472
C2    C     C_R   0.737963 0.500025 0.500034 0.789537
C3    C     C_R   0.377757 0.712123 0.051237 -0.204846
C4    C     C_R   0.622064 0.287750 0.948777 -0.204846
C5    C     C_R   0.063754 0.372178 0.498025 -0.181934
C6    C     C_R   0.936246 0.627822 0.501968 -0.181958
C7    C     C_R   0.936052 0.372205 0.498043 -0.174471
C8    C     C_R   0.063948 0.627795 0.501950 -0.174565
C9    C     C_R   0.871792 0.500030 0.500014 -0.020017
C10   C     C_R   0.128207 0.499970 0.499981 -0.020027
C11   C     C_R   0.423594 0.073632 0.444552 -0.007210
C12   C     C_R   0.576405 0.926368 0.555448 -0.007099
C13   C     C_R   0.576438 0.075264 0.555428 -0.010320
C14   C     C_R   0.423561 0.924736 0.444573 -0.010346
C15   C     C_R   0.503053 0.499224 0.328775 0.816391
C16   C     C_R   0.496927 0.500777 0.671228 0.816336
C17   C     C_R   0.555231 0.395929 0.812890 -0.255324
C18   C     C_R   0.444567 0.603914 0.187122 -0.255450
C19   C     C_R   0.493152 0.502728 0.767998 -0.115598
C20   C     C_R   0.506788 0.497264 0.232009 -0.115605
C21   C     C_R   0.430001 0.609216 0.815550 -0.079665
C22   C     C_R   0.570055 0.390915 0.184460 -0.079573
C23   C     C_R   0.433114 0.609046 0.908941 0.057735
C24   C     C_R   0.566827 0.390958 0.091070 0.057687
C25   C     C_R   0.497845 0.500908 0.953392 0.058059
C26   C     C_R   0.502016 0.499010 0.046620 0.058065
C27   C     C_R   0.558318 0.394337 0.904850 0.112670
C28   C     C_R   0.441501 0.605534 0.095162 0.112696
C29   C     C_R   0.373401 0.714079 0.959247 -0.202743
C30   C     C_R   0.626514 0.285898 0.040766 -0.202723
Cu1   Cu    Cu3+1 0.500000 0.640660 0.500000 0.960030
Cu2   Cu    Cu3+1 0.500000 0.359340 0.500000 0.960046
H1    H     H_    0.603385 0.314711 0.775823 0.150208
H2    H     H_    0.396339 0.685040 0.224193 0.150186
H3    H     H_    0.323196 0.798814 0.928099 0.158769
H4    H     H_    0.676751 0.201203 0.071918 0.158780
H5    H     H_    0.330958 0.794328 0.088152 0.144974
H6    H     H_    0.668829 0.205507 0.911862 0.144960
H7    H     H_    0.111715 0.272253 0.496404 0.151718
H8    H     H_    0.888285 0.727747 0.503589 0.151712
H9    H     H_    0.887938 0.272287 0.496451 0.155252
H10   H     H_    0.112062 0.727713 0.503543 0.155243
H11   H     H_    0.362423 0.129170 0.400158 0.117212
H12   H     H_    0.637576 0.870830 0.599843 0.117195
H13   H     H_    0.637671 0.132098 0.599802 0.112559
H14   H     H_    0.362328 0.867901 0.400199 0.112574
N1    N     N_R   0.500000 0.852070 0.500000 -0.157638
N2    N     N_R   0.500000 0.147930 0.500000 -0.157645
O1    O     O_R   0.319640 0.618740 0.499990 -0.585949
O2    O     O_R   0.680360 0.381260 0.500010 -0.585919
O3    O     O_R   0.680360 0.618740 0.500010 -0.591218
O4    O     O_R   0.319640 0.381260 0.499990 -0.591200
O5    O     O_R   0.499970 0.618800 0.370260 -0.584734
O6    O     O_R   0.500030 0.381200 0.629740 -0.584719
O7    O     O_R   0.500030 0.618800 0.629740 -0.574752
O8    O     O_R   0.499970 0.381200 0.370260 -0.574753
C31   C     C_1   0.358835 0.714834 0.768772 0.245574
N3    N     N_1   0.302118 0.798975 0.731452 -0.284168
C32   C     C_1   0.641566 0.285721 0.231240 0.245645
N4    N     N_1   0.698592 0.201965 0.268564 -0.284269

loop_
_geom_bond_atom_site_label_1
_geom_bond_atom_site_label_2
_ccdc_geom_bond_type
C13   N2    A    
C5    C7    A    
C21   C31   S    
C14   N1    A    
C25   C27   A    
Cu2   N2    S    
C6    H8    S    
C29   H3    S    
C26   C28   A    
Cu1   Cu2   S    
C30   H4    S    
C8    H10   S    
C15   O8    A    
C6    C9    A    
C5    H7    S    
C11   N2    A    
C16   O7    A    
C32   N4    T    
C14   H14   S    
Cu1   N1    S    
Cu1   O5    S    
C13   H13   S    
C18   H2    S    
Cu2   O2    S    
C31   N3    T    
C17   H1    S    
Cu1   O1    S    
C12   N1    A    
C23   C29   A    
Cu2   O6    S    
C3    C28   A    
C11   C14   A    
C4    H6    S    
C18   C20   A    
C23   C25   A    
C21   C23   A    
C16   C19   S    
C15   C20   S    
C1    O4    A    
C22   C24   A    
C11   H11   S    
C24   C30   A    
C2    O3    A    
C17   C19   A    
C17   C27   A    
C15   O5    A    
C5    C10   A    
C4    C27   A    
C18   C28   A    
C12   C13   A    
C3    H5    S    
C12   H12   S    
C16   O6    A    
Cu1   O3    S    
C22   C32   S    
C3    C29   A    
C7    C9    A    
Cu2   O4    S    
C6    C8    A    
C2    O2    A    
Cu1   O7    S    
C25   C26   A    
C2    C9    S    
C1    O1    A    
Cu2   O8    S    
C8    C10   A    
C4    C30   A    
C1    C10   S    
C24   C26   A    
C7    H9    S    
C20   C22   A    
C19   C21   A    
