data_mof_unit_63921.cif
_audit_creation_date              2012-12-10T19:27:19-0500
_audit_creation_method            fapswitch 2.2
_symmetry_space_group_name_H-M    P1
_symmetry_Int_Tables_number       1
_space_group_crystal_system       triclinic
_cell_length_a                    13.891359
_cell_length_b                    16.490265
_cell_length_c                    17.732731
_cell_angle_alpha                 89.669631
_cell_angle_beta                  90.815242
_cell_angle_gamma                 84.369661
_cell_volume                      4041.96452436

loop_
_atom_site_label
_atom_site_type_symbol
_atom_type_description
_atom_site_fract_x
_atom_site_fract_y
_atom_site_fract_z
_atom_type_partial_charge
C1    C     C_R   0.500213 0.499830 0.644729 0.830079
C2    C     C_R   0.499787 0.500170 0.355271 0.830079
C3    C     C_R   0.501565 0.572526 0.153065 -0.162775
C4    C     C_R   0.498435 0.427474 0.846935 -0.162775
C5    C     C_R   0.499471 0.499016 0.114427 0.046652
C6    C     C_R   0.500529 0.500984 0.885573 0.046652
C7    C     C_1   0.499831 0.499766 0.033806 0.063307
C8    C     C_1   0.500168 0.500233 0.966194 0.063307
C9    C     C_R   0.436277 0.177605 0.450206 0.317789
C10   C     C_R   0.563723 0.822395 0.549794 0.317789
C11   C     C_R   0.438703 0.263254 0.452147 -0.040463
C12   C     C_R   0.561297 0.736746 0.547853 -0.040463
C13   C     C_R   0.560583 0.249737 0.547011 0.554762
C14   C     C_R   0.439417 0.750263 0.452989 0.554762
C15   C     C_R   0.560056 0.164361 0.546663 -0.317063
C16   C     C_R   0.439943 0.835639 0.453337 -0.317064
C17   C     C_R   0.497881 0.126856 0.498280 -0.029890
C18   C     C_R   0.502119 0.873144 0.501720 -0.029890
C19   C     C_1   0.499027 0.037259 0.499219 0.124975
C20   C     C_1   0.500973 0.962741 0.500781 0.124975
C21   C     C_R   0.683390 0.486654 0.500109 0.838994
C22   C     C_R   0.316609 0.513346 0.499891 0.838994
C23   C     C_1   0.213369 0.521779 0.499729 -0.117793
C24   C     C_1   0.786631 0.478221 0.500271 -0.117793
C25   C     C_2   0.022774 0.533769 0.499444 -0.142981
C26   C     C_2   0.977226 0.466231 0.500556 -0.142981
C27   C     C_1   0.873533 0.472051 0.500412 0.049585
C28   C     C_1   0.126467 0.527949 0.499588 0.049585
C29   C     C_R   0.497213 0.425613 0.154470 0.293060
C30   C     C_R   0.502787 0.574387 0.845530 0.293060
C31   C     C_R   0.497237 0.426419 0.233117 -0.194815
C32   C     C_R   0.502763 0.573581 0.766883 -0.194815
C33   C     C_R   0.499503 0.500062 0.272342 -0.099483
C34   C     C_R   0.500497 0.499938 0.727658 -0.099483
C35   C     C_R   0.501569 0.573163 0.231654 -0.139354
C36   C     C_R   0.498431 0.426837 0.768345 -0.139354
Cu1   Cu    Cu3+1 0.500000 0.419580 0.500020 1.013666
Cu2   Cu    Cu3+1 0.500000 0.580420 0.499980 1.013667
H1    H     H_    0.017520 0.406311 0.501576 0.177245
H2    H     H_    0.982480 0.593689 0.498423 0.177245
H3    H     H_    0.495475 0.369345 0.263369 0.191642
H4    H     H_    0.504524 0.630655 0.736631 0.191642
H5    H     H_    0.503375 0.630742 0.260447 0.197172
H6    H     H_    0.496625 0.369258 0.739553 0.197172
H7    H     H_    0.503299 0.629386 0.122384 0.185503
H8    H     H_    0.496701 0.370614 0.877616 0.185503
H9    H     H_    0.391139 0.301492 0.414944 0.178210
H10   H     H_    0.608861 0.698507 0.585056 0.178210
H11   H     H_    0.608533 0.127333 0.584352 0.217026
H12   H     H_    0.391467 0.872667 0.415648 0.217026
N1    N     N_R   0.500030 0.298780 0.500030 -0.229390
N2    N     N_R   0.499970 0.701220 0.499970 -0.229391
O1    O     O_R   0.500010 0.432070 0.608760 -0.542228
O2    O     O_R   0.499990 0.567930 0.391240 -0.542229
O3    O     O_R   0.500000 0.567880 0.608730 -0.596275
O4    O     O_R   0.500000 0.432120 0.391270 -0.596275
O5    O     O_R   0.637850 0.422490 0.500000 -0.522992
O6    O     O_R   0.362150 0.577510 0.500000 -0.522991
O7    O     O_R   0.637840 0.558310 0.499970 -0.590248
O8    O     O_R   0.362160 0.441690 0.500030 -0.590247
Br1   Br    Br    0.494135 0.323236 0.103982 -0.433602
Br2   Br    Br    0.505865 0.676764 0.896018 -0.433602
Cl1   Cl    Cl    0.355713 0.136125 0.387185 -0.548296
Cl2   Cl    Cl    0.644287 0.863875 0.612815 -0.548296
Cl3   Cl    Cl    0.641894 0.290254 0.609800 -0.572020
Cl4   Cl    Cl    0.358106 0.709746 0.390200 -0.572019

loop_
_geom_bond_atom_site_label_1
_geom_bond_atom_site_label_2
_ccdc_geom_bond_type
C22   O6    A    
C31   C33   A    
C21   O5    A    
Cu1   Cu2   S    
C1    O1    A    
C35   H5    S    
C30   Br2   S    
C13   Cl3   S    
C11   H9    S    
C19   C20   T    
Cu2   O2    S    
C24   C27   T    
C3    C35   A    
C12   H10   S    
C22   O8    A    
Cu1   O1    S    
C10   Cl2   S    
C4    C36   A    
C14   Cl4   S    
C3    H7    S    
C7    C8    T    
C29   C31   A    
C4    H8    S    
C23   C28   T    
C25   C28   S    
C30   C32   A    
C9    C11   A    
C26   C27   S    
C10   C12   A    
Cu1   O4    S    
C10   C18   A    
C15   C17   A    
C2    C33   S    
C16   C18   A    
C12   N2    A    
C34   C36   A    
C16   H12   S    
C1    C34   S    
C21   O7    A    
C29   Br1   S    
C13   C15   A    
C25   H2    S    
C1    O3    A    
Cu1   O5    S    
Cu1   N1    S    
C14   C16   A    
C26   H1    S    
C36   H6    S    
Cu1   O8    S    
C11   N1    A    
Cu2   O6    S    
Cu2   O7    S    
C5    C29   A    
Cu2   N2    S    
C18   C20   S    
C4    C6    A    
C2    O2    A    
C21   C24   S    
C9    C17   A    
C5    C7    S    
C32   H4    S    
C22   C23   S    
C17   C19   S    
C6    C8    S    
C31   H3    S    
C33   C35   A    
C25   C26   D    
C13   N1    A    
C9    Cl1   S    
C6    C30   A    
C2    O4    A    
C14   N2    A    
Cu2   O3    S    
C15   H11   S    
C3    C5    A    
C32   C34   A    
