data_mof_unit_20478.cif
_audit_creation_date              2012-12-11T15:42:54-0500
_audit_creation_method            fapswitch 2.2
_symmetry_space_group_name_H-M    P1
_symmetry_Int_Tables_number       1
_space_group_crystal_system       triclinic
_cell_length_a                    19.148554
_cell_length_b                    11.0672
_cell_length_c                    18.807575
_cell_angle_alpha                 89.770105
_cell_angle_beta                  89.782501
_cell_angle_gamma                 90.134092
_cell_volume                      3985.64592571

loop_
_atom_site_label
_atom_site_type_symbol
_atom_type_description
_atom_site_fract_x
_atom_site_fract_y
_atom_site_fract_z
_atom_type_partial_charge
C1    C     C_R   0.731112 0.379796 0.147150 0.541661
C2    C     C_R   0.269133 0.379832 0.852562 0.535555
C3    C     C_R   0.231034 0.879797 0.146867 0.540585
C4    C     C_R   0.770685 0.874849 0.854188 0.532521
C5    C     C_R   0.536768 0.369522 0.919660 0.018520
C6    C     C_R   0.512010 0.403308 0.066921 0.051648
C7    C     C_R   0.035701 0.869931 0.920240 0.015186
C8    C     C_R   0.010716 0.903726 0.067359 0.060215
C9    C     C_R   0.033636 0.984771 0.948976 -0.112807
C10   C     C_R   0.024306 0.001046 0.021168 -0.136535
C11   C     C_R   0.536484 0.483969 0.948857 -0.110366
C12   C     C_R   0.528341 0.499933 0.021211 -0.145285
C13   C     C_R   0.761173 0.895024 0.928466 -0.023582
C14   C     C_R   0.257665 0.944548 0.083552 -0.012919
C15   C     C_R   0.251445 0.426321 0.922475 -0.028299
C16   C     C_R   0.757905 0.443357 0.083941 -0.012112
C17   C     C_R   0.698879 0.880023 0.964322 -0.040225
C18   C     C_R   0.313893 0.903777 0.042769 -0.031415
C19   C     C_R   0.195366 0.381609 0.960973 -0.033345
C20   C     C_R   0.813584 0.400603 0.043288 -0.029344
C21   C     C_R   0.695474 0.885265 0.036976 0.041667
C22   C     C_R   0.319514 0.932739 0.970938 0.024817
C23   C     C_R   0.194847 0.385252 0.034776 0.038528
C24   C     C_R   0.818852 0.427372 0.971225 0.016880
C25   C     C_R   0.817273 0.944181 0.038034 0.067925
C26   C     C_R   0.218344 0.059526 0.980548 0.075228
C27   C     C_R   0.309708 0.475961 0.033088 0.073639
C28   C     C_R   0.718718 0.556937 0.980714 0.072421
C29   C     C_R   0.821507 0.906266 0.968812 -0.124327
C30   C     C_R   0.216041 0.035416 0.053824 -0.112089
C31   C     C_R   0.307072 0.476253 0.959852 -0.132593
C32   C     C_R   0.716857 0.534617 0.054099 -0.113024
C33   C     C_3   0.626211 0.919291 0.951820 -0.248044
C34   C     C_3   0.337753 0.778773 0.030142 -0.257831
C35   C     C_3   0.120669 0.417099 0.955528 -0.250150
C36   C     C_3   0.838926 0.275710 0.033293 -0.267168
C37   C     C_3   0.620560 0.923273 0.032860 -0.013449
C38   C     C_3   0.342510 0.808617 0.951388 -0.027088
C39   C     C_3   0.119455 0.418602 0.036154 -0.016262
C40   C     C_3   0.844031 0.302754 0.954180 -0.032458
C41   C     C_R   0.752619 0.929129 0.075462 0.014568
C42   C     C_R   0.269702 0.003904 0.937284 0.064753
C43   C     C_R   0.251015 0.434394 0.072796 0.023005
C44   C     C_R   0.768814 0.498318 0.937248 0.054054
C45   C     C_R   0.530983 0.157255 0.147497 0.522911
C46   C     C_R   0.465893 0.154465 0.854881 0.539955
C47   C     C_R   0.030870 0.657252 0.147623 0.522460
C48   C     C_R   0.965668 0.654493 0.855033 0.536482
C49   C     C_R   0.481828 0.163168 0.569584 0.016722
C50   C     C_R   0.495336 0.163179 0.420814 0.014860
C51   C     C_R   0.981817 0.663144 0.569576 0.016535
C52   C     C_R   0.995312 0.663161 0.420802 0.014777
C53   C     C_R   0.474384 0.057075 0.530618 0.045451
C54   C     C_R   0.480419 0.056297 0.458054 0.028157
C55   C     C_R   0.974349 0.557053 0.530607 0.045305
C56   C     C_R   0.980396 0.556278 0.458043 0.028248
C57   C     C_R   0.489950 0.273256 0.457533 -0.170153
C58   C     C_R   0.484835 0.273230 0.532054 -0.167032
C59   C     C_R   0.989916 0.773230 0.457522 -0.170387
C60   C     C_R   0.984841 0.773200 0.532046 -0.167134
C61   C     C_3   0.510311 0.938676 0.539682 -0.276575
C62   C     C_3   0.516489 0.936009 0.459605 -0.269289
C63   C     C_3   0.010244 0.438622 0.539667 -0.276470
C64   C     C_3   0.016447 0.435971 0.459590 -0.269280
C65   C     C_R   0.748295 0.923825 0.579045 0.011691
C66   C     C_R   0.251053 0.932896 0.418931 0.015398
C67   C     C_R   0.248286 0.423752 0.579037 0.012227
C68   C     C_R   0.751083 0.432902 0.418921 0.015487
C69   C     C_R   0.785643 0.016228 0.545169 0.016966
C70   C     C_R   0.204387 0.008202 0.455407 0.023025
C71   C     C_R   0.285572 0.516246 0.545185 0.016511
C72   C     C_R   0.704512 0.508434 0.455358 0.023138
C73   C     C_R   0.785426 0.024573 0.472272 0.050487
C74   C     C_R   0.207061 0.017070 0.528100 0.037480
C75   C     C_R   0.285381 0.524595 0.472291 0.050674
C76   C     C_R   0.707134 0.517253 0.528057 0.037446
C77   C     C_R   0.701039 0.864208 0.464155 -0.171849
C78   C     C_R   0.311774 0.898312 0.530288 -0.151916
C79   C     C_R   0.201086 0.364084 0.464128 -0.171920
C80   C     C_R   0.811681 0.398061 0.530326 -0.151921
C81   C     C_R   0.701172 0.854653 0.538344 -0.163964
C82   C     C_R   0.309274 0.888693 0.455956 -0.152360
C83   C     C_R   0.201222 0.354473 0.538314 -0.163574
C84   C     C_R   0.809220 0.388472 0.455991 -0.152379
C85   C     C_3   0.861151 0.051544 0.548796 -0.268798
C86   C     C_3   0.126100 0.010844 0.456525 -0.266947
C87   C     C_3   0.361040 0.551805 0.548866 -0.269354
C88   C     C_3   0.626232 0.511683 0.456359 -0.267017
C89   C     C_R   0.740848 0.974847 0.146176 0.542123
C90   C     C_R   0.272184 0.020710 0.859486 0.591465
C91   C     C_R   0.240962 0.473557 0.146080 0.542397
C92   C     C_R   0.771756 0.518421 0.859794 0.582520
C93   C     C_3   0.861256 0.054792 0.468586 -0.272205
C94   C     C_3   0.129670 0.018586 0.536464 -0.281791
C95   C     C_3   0.361190 0.555037 0.468656 -0.271907
C96   C     C_3   0.629725 0.519309 0.536307 -0.281548
C97   C     C_R   0.746890 0.944925 0.430292 0.020296
C98   C     C_R   0.256681 0.954189 0.567419 0.011590
C99   C     C_R   0.246902 0.444893 0.430286 0.020476
C100  C     C_R   0.756635 0.454135 0.567425 0.011392
C101  C     C_R   0.729990 0.380015 0.351528 0.544643
C102  C     C_R   0.270128 0.378655 0.647967 0.549179
C103  C     C_R   0.229986 0.880009 0.351531 0.544605
C104  C     C_R   0.770128 0.878671 0.647970 0.551473
C105  C     C_R   0.531465 0.156542 0.352757 0.543722
C106  C     C_R   0.464960 0.156915 0.644876 0.547734
C107  C     C_R   0.031458 0.656539 0.352753 0.543692
C108  C     C_R   0.964963 0.656912 0.644875 0.547084
C109  C     C_R   0.740835 0.974169 0.355424 0.536129
C110  C     C_R   0.260567 0.978716 0.643102 0.549571
C111  C     C_R   0.240838 0.474163 0.355422 0.535804
C112  C     C_R   0.760544 0.478661 0.643115 0.550204
C113  C     C_R   0.489938 0.161288 0.929358 -0.011059
C114  C     C_R   0.496642 0.175184 0.078272 -0.022692
C115  C     C_R   0.989142 0.661497 0.929732 -0.016395
C116  C     C_R   0.996261 0.675158 0.078609 -0.021440
C117  C     C_R   0.511979 0.270892 0.961319 -0.001982
C118  C     C_R   0.506298 0.283652 0.037036 0.023460
C119  C     C_R   0.011141 0.771119 0.961811 -0.012458
C120  C     C_R   0.005543 0.783836 0.037512 0.021575
C121  C     C_R   0.472614 0.071108 0.045498 -0.167295
C122  C     C_R   0.471517 0.063191 0.972589 -0.159548
C123  C     C_R   0.972195 0.571017 0.045814 -0.166827
C124  C     C_R   0.970432 0.563494 0.972917 -0.160414
Cr1   Cr    Cr6+3 0.772010 0.169670 0.250090 1.000792
Cr2   Cr    Cr6+3 0.227990 0.169670 0.749910 0.996853
Cr3   Cr    Cr6+3 0.272010 0.669670 0.250090 1.001876
Cr4   Cr    Cr6+3 0.727990 0.669670 0.749910 0.996610
Cr5   Cr    Cr6+3 0.615000 0.323260 0.249260 1.008485
Cr6   Cr    Cr6+3 0.385000 0.323260 0.750740 0.989408
Cr7   Cr    Cr6+3 0.115000 0.823260 0.249260 1.008993
Cr8   Cr    Cr6+3 0.885000 0.823260 0.750740 0.989823
Cr9   Cr    Cr6+3 0.616710 0.010760 0.250840 0.989585
Cr10  Cr    Cr6+3 0.383290 0.010760 0.749160 1.006505
Cr11  Cr    Cr6+3 0.116710 0.510760 0.250840 0.987544
Cr12  Cr    Cr6+3 0.883290 0.510760 0.749160 1.014172
H1    H     H_    0.459676 0.991683 0.076661 0.137385
H2    H     H_    0.455690 0.978428 0.949793 0.134386
H3    H     H_    0.959592 0.491340 0.076876 0.137541
H4    H     H_    0.954278 0.478916 0.950080 0.136463
H5    H     H_    0.495342 0.358117 0.429482 0.111617
H6    H     H_    0.486128 0.357961 0.560222 0.111313
H7    H     H_    0.995298 0.858090 0.429471 0.111730
H8    H     H_    0.986193 0.857921 0.560217 0.111427
H9    H     H_    0.975493 0.366951 0.561332 0.131360
H10   H     H_    0.071335 0.440975 0.441289 0.172552
H11   H     H_    0.475592 0.866976 0.561366 0.131067
H12   H     H_    0.571367 0.941051 0.441283 0.172548
H13   H     H_    0.561389 0.947709 0.567084 0.139486
H14   H     H_    0.484677 0.863471 0.434809 0.121150
H15   H     H_    0.061318 0.447597 0.567085 0.139478
H16   H     H_    0.984628 0.363457 0.434780 0.121181
H17   H     H_    0.666950 0.806430 0.433442 0.119063
H18   H     H_    0.355065 0.858895 0.558641 0.124064
H19   H     H_    0.167030 0.306266 0.433399 0.119068
H20   H     H_    0.854907 0.358477 0.558705 0.124207
H21   H     H_    0.669247 0.785604 0.562993 0.136431
H22   H     H_    0.349546 0.839301 0.428333 0.118362
H23   H     H_    0.169354 0.285296 0.562933 0.136660
H24   H     H_    0.849445 0.338925 0.428399 0.118476
H25   H     H_    0.895686 0.980401 0.570015 0.163494
H26   H     H_    0.103036 0.924640 0.438679 0.170554
H27   H     H_    0.395657 0.480785 0.570104 0.163575
H28   H     H_    0.602921 0.425709 0.438460 0.170432
H29   H     H_    0.868547 0.141835 0.573220 0.123886
H30   H     H_    0.104640 0.093546 0.431038 0.122477
H31   H     H_    0.368318 0.642125 0.573289 0.122803
H32   H     H_    0.605025 0.594589 0.430882 0.122348
H33   H     H_    0.871916 0.145324 0.446034 0.132921
H34   H     H_    0.109406 0.105041 0.557788 0.129829
H35   H     H_    0.371774 0.645595 0.446103 0.132924
H36   H     H_    0.609597 0.605840 0.557637 0.129614
H37   H     H_    0.892188 0.980371 0.444940 0.125339
H38   H     H_    0.109553 0.935958 0.563273 0.123921
H39   H     H_    0.392239 0.480705 0.445075 0.125064
H40   H     H_    0.609325 0.436817 0.563007 0.123758
H41   H     H_    0.041567 0.063147 0.915379 0.134244
H42   H     H_    0.023122 0.093031 0.040319 0.114281
H43   H     H_    0.544609 0.562314 0.915302 0.135699
H44   H     H_    0.528547 0.591838 0.040535 0.111576
H45   H     H_    0.872977 0.904788 0.944500 0.170151
H46   H     H_    0.173956 0.073957 0.084757 0.143799
H47   H     H_    0.352874 0.508888 0.931828 0.149455
H48   H     H_    0.675517 0.575106 0.085252 0.142396
H49   H     H_    0.087670 0.345765 0.931176 0.144454
H50   H     H_    0.798087 0.208316 0.047634 0.164890
H51   H     H_    0.593649 0.848793 0.926092 0.146101
H52   H     H_    0.296204 0.713455 0.045029 0.163485
H53   H     H_    0.623711 0.009980 0.926702 0.109165
H54   H     H_    0.390048 0.766091 0.054389 0.093803
H55   H     H_    0.114303 0.508066 0.931363 0.112025
H56   H     H_    0.890851 0.264661 0.058662 0.098841
H57   H     H_    0.611029 0.014699 0.054527 0.166462
H58   H     H_    0.396298 0.804738 0.929097 0.125609
H59   H     H_    0.109744 0.509163 0.058744 0.171862
H60   H     H_    0.898061 0.299629 0.932551 0.137490
O1    O     O_R   0.787520 0.042810 0.170440 -0.531243
O2    O     O_R   0.212480 0.042810 0.829560 -0.492879
O3    O     O_R   0.287520 0.542810 0.170440 -0.521605
O4    O     O_R   0.712480 0.542810 0.829560 -0.494750
O5    O     O_R   0.556610 0.252880 0.323980 -0.504447
O6    O     O_R   0.443390 0.252880 0.676020 -0.507356
O7    O     O_R   0.056610 0.752880 0.323980 -0.504308
O8    O     O_R   0.943390 0.752880 0.676020 -0.507479
O9    O     O_R   0.545950 0.051210 0.330860 -0.525266
O10   O     O_R   0.454050 0.051210 0.669140 -0.518772
O11   O     O_R   0.045950 0.551210 0.330860 -0.525169
O12   O     O_R   0.954050 0.551210 0.669140 -0.518493
O13   O     O_R   0.681390 0.959480 0.325510 -0.509165
O14   O     O_R   0.318610 0.959480 0.674490 -0.503585
O15   O     O_R   0.181390 0.459480 0.325510 -0.509297
O16   O     O_R   0.818610 0.459480 0.674490 -0.501987
O17   O     O_3   0.667900 0.167900 0.250060 -0.246442
O18   O     O_3   0.332100 0.167900 0.749940 -0.275048
O19   O     O_3   0.167900 0.667900 0.250060 -0.245979
O20   O     O_3   0.832100 0.667900 0.749940 -0.275515
O21   O     O_R   0.765640 0.292100 0.175020 -0.505270
O22   O     O_R   0.234360 0.292100 0.824980 -0.532704
O23   O     O_R   0.265640 0.792100 0.175020 -0.505446
O24   O     O_R   0.734360 0.792100 0.824980 -0.533185
O25   O     O_R   0.670190 0.408840 0.168540 -0.529219
O26   O     O_R   0.329810 0.408840 0.831460 -0.534500
O27   O     O_R   0.170190 0.908840 0.168540 -0.528774
O28   O     O_R   0.829810 0.908840 0.831460 -0.534548
O29   O     O_R   0.556620 0.251410 0.175160 -0.494444
O30   O     O_R   0.443380 0.251410 0.824840 -0.493875
O31   O     O_R   0.056620 0.751410 0.175160 -0.494856
O32   O     O_R   0.943380 0.751410 0.824840 -0.502151
O33   O     O_R   0.545960 0.049620 0.170320 -0.539147
O34   O     O_R   0.454040 0.049620 0.829680 -0.538875
O35   O     O_R   0.045960 0.549620 0.170320 -0.539127
O36   O     O_R   0.954040 0.549620 0.829680 -0.535676
O37   O     O_R   0.681390 0.958010 0.176690 -0.508447
O38   O     O_R   0.318610 0.958010 0.823310 -0.477837
O39   O     O_R   0.181390 0.458010 0.176690 -0.512862
O40   O     O_R   0.818610 0.458010 0.823310 -0.473982
O41   O     O_R   0.787510 0.044390 0.330970 -0.525730
O42   O     O_R   0.212490 0.044390 0.669030 -0.519355
O43   O     O_R   0.287510 0.544390 0.330970 -0.526514
O44   O     O_R   0.712490 0.544390 0.669030 -0.519087
O45   O     O_R   0.765630 0.293570 0.323840 -0.504765
O46   O     O_R   0.234370 0.293570 0.676160 -0.510020
O47   O     O_R   0.265630 0.793570 0.323840 -0.504845
O48   O     O_R   0.734370 0.793570 0.676160 -0.509431
O49   O     O_R   0.670190 0.410420 0.329080 -0.526204
O50   O     O_R   0.329810 0.410420 0.670920 -0.527485
O51   O     O_R   0.170190 0.910420 0.329080 -0.525913
O52   O     O_R   0.829810 0.910420 0.670920 -0.524025
C125  C     C_R   0.569683 0.354767 0.848305 0.065351
C126  C     C_R   0.619048 0.262948 0.836955 -0.074855
C127  C     C_R   0.646451 0.242861 0.769096 -0.086756
C128  C     C_R   0.625024 0.314534 0.712000 -0.075955
C129  C     C_R   0.577647 0.408582 0.723078 -0.056919
C130  C     C_R   0.550531 0.429558 0.790941 -0.032561
H61   H     H_    0.635337 0.205809 0.880498 0.084440
H62   H     H_    0.683721 0.170883 0.760664 0.118330
H63   H     H_    0.645374 0.297345 0.659271 0.093833
H64   H     H_    0.561056 0.464484 0.679028 0.082869
H65   H     H_    0.512340 0.500541 0.798006 0.070101
C131  C     C_R   0.490041 0.438480 0.141259 0.082728
C132  C     C_R   0.433664 0.380387 0.176337 -0.040865
C133  C     C_R   0.415868 0.410876 0.246100 -0.069451
C134  C     C_R   0.452901 0.500985 0.281515 -0.090784
C135  C     C_R   0.507892 0.560604 0.247552 -0.119518
C136  C     C_R   0.526378 0.529961 0.178085 -0.071652
H66   H     H_    0.403245 0.311808 0.149617 0.113660
H67   H     H_    0.373079 0.364865 0.272556 0.112696
H68   H     H_    0.439048 0.525163 0.335223 0.097099
H69   H     H_    0.536611 0.630262 0.275276 0.089011
H70   H     H_    0.570094 0.576582 0.153871 0.106630
C137  C     C_R   0.069769 0.854828 0.849499 0.069344
C138  C     C_R   0.119575 0.763267 0.839270 -0.068596
C139  C     C_R   0.147891 0.742528 0.771858 -0.087183
C140  C     C_R   0.126917 0.813168 0.714127 -0.075065
C141  C     C_R   0.079103 0.906893 0.724136 -0.057371
C142  C     C_R   0.051117 0.928630 0.791537 -0.033484
H71   H     H_    0.135524 0.706786 0.883317 0.090557
H72   H     H_    0.185505 0.670813 0.764263 0.112196
H73   H     H_    0.147930 0.795473 0.661718 0.093931
H74   H     H_    0.062851 0.961980 0.679608 0.084173
H75   H     H_    0.012591 0.999300 0.797734 0.073806
C143  C     C_R   0.990159 0.938667 0.142183 0.086875
C144  C     C_R   0.934364 0.880723 0.178313 -0.044413
C145  C     C_R   0.917513 0.911975 0.248201 -0.071856
C146  C     C_R   0.954922 0.002679 0.282697 -0.091277
C147  C     C_R   0.009322 0.062165 0.247663 -0.119327
C148  C     C_R   0.026821 0.030819 0.178044 -0.072835
H76   H     H_    0.903753 0.811566 0.152346 0.112826
H77   H     H_    0.875206 0.866031 0.275492 0.113188
H78   H     H_    0.941821 0.027438 0.336514 0.095481
H79   H     H_    0.038287 0.132379 0.274633 0.089184
H80   H     H_    0.069900 0.077628 0.152813 0.106391
N1    N     N_3   0.877548 0.009505 0.061656 -0.643140
H81   H     H_    0.871023 0.075354 0.099472 0.266862
H82   H     H_    0.896341 0.060608 0.018787 0.208098
N2    N     N_3   0.159925 0.118808 0.949348 -0.628720
H83   H     H_    0.176936 0.182883 0.913437 0.271435
H84   H     H_    0.131332 0.164157 0.987989 0.249744
N3    N     N_3   0.374181 0.514355 0.064442 -0.623933
H85   H     H_    0.369971 0.587427 0.098053 0.258650
H86   H     H_    0.405886 0.551952 0.025277 0.205449
N4    N     N_3   0.661341 0.619567 0.949856 -0.631000
H87   H     H_    0.679445 0.682919 0.914154 0.272299
H88   H     H_    0.633583 0.666138 0.988634 0.250027
N5    N     N_3   0.575259 0.828168 0.061539 -0.674054
H89   H     H_    0.525953 0.834932 0.038425 0.213943
H90   H     H_    0.569446 0.841209 0.116185 0.266169
N6    N     N_3   0.290362 0.748284 0.906705 -0.602926
H91   H     H_    0.315230 0.682355 0.876285 0.229809
H92   H     H_    0.251030 0.707202 0.937013 0.228328
N7    N     N_3   0.077278 0.321070 0.066766 -0.674467
H93   H     H_    0.026163 0.328873 0.048256 0.213955
H94   H     H_    0.075737 0.331775 0.121891 0.264882
N8    N     N_3   0.794180 0.233982 0.911323 -0.602550
H95   H     H_    0.812564 0.145445 0.907801 0.237036
H96   H     H_    0.745578 0.230367 0.936851 0.230513

loop_
_geom_bond_atom_site_label_1
_geom_bond_atom_site_label_2
_ccdc_geom_bond_type
C135  H69   S    
Cr10  O14   S    
C102  O50   A    
C73   C93   S    
C75   C95   S    
Cr5   O49   S    
C143  C144  A    
C147  H79   S    
C64   H16   S    
N3    H86   S    
C79   C99   A    
C145  C146  A    
C137  C138  A    
C22   C38   S    
C23   C43   A    
C33   H53   S    
C140  C141  A    
C95   H39   S    
Cr1   O17   S    
C129  H64   S    
C87   H31   S    
C113  C122  A    
C138  C139  A    
C88   H32   S    
C70   C74   A    
Cr8   O20   S    
C107  O11   A    
Cr6   O6    S    
C25   N1    S    
C59   C60   A    
C30   H46   S    
C109  O13   A    
C25   C29   A    
C47   C116  S    
C27   C31   A    
C7    C119  A    
C28   C32   A    
C68   C101  S    
C25   C41   A    
N8    H95   S    
C39   H59   S    
C28   C44   A    
C17   C21   A    
C37   H57   S    
C19   C23   A    
C136  H70   S    
C66   C82   A    
C78   C82   A    
C16   C20   A    
C45   O29   A    
N2    H83   S    
Cr4   O48   S    
C11   H43   S    
C53   C61   S    
Cr2   O42   S    
C9    H41   S    
C62   H14   S    
C64   H10   S    
C144  H76   S    
C50   C57   A    
C66   C103  S    
C39   N7    S    
C106  O10   A    
C49   C106  S    
C76   C100  A    
C139  H72   S    
C85   H29   S    
C141  H74   S    
C132  H66   S    
C104  O48   A    
C76   C96   S    
Cr3   O19   S    
C127  H62   S    
C66   C70   A    
C130  H65   S    
C49   C53   A    
C93   H37   S    
C103  O51   A    
Cr6   O18   S    
C51   C55   A    
C111  O43   A    
C79   H19   S    
Cr6   O30   S    
C8    C10   A    
C5    C117  A    
C2    O22   A    
C19   C35   S    
C61   H13   S    
C94   H34   S    
Cr2   O22   S    
C128  C129  A    
C41   C89   S    
C67   C83   A    
C116  C123  A    
C37   N5    S    
C108  O12   A    
C123  C124  A    
C74   C98   A    
C53   C54   A    
C125  C126  A    
C1    O25   A    
C129  C130  A    
C82   H22   S    
C123  H3    S    
C108  O8    A    
C8    C143  S    
C121  H1    S    
C77   H17   S    
Cr12  O16   S    
C85   C93   S    
C45   C114  S    
C135  C136  A    
N5    H90   S    
C87   C95   S    
Cr2   O46   S    
C50   C105  S    
C56   C64   S    
C77   C97   A    
C102  O46   A    
C9    C10   A    
Cr4   O24   S    
Cr5   O5    S    
Cr2   O2    S    
C59   H7    S    
C143  C148  A    
C62   H12   S    
C26   N2    S    
N6    H92   S    
Cr9   O33   S    
C137  C142  A    
N4    H88   S    
C140  H73   S    
C34   H54   S    
Cr3   O47   S    
C133  H67   S    
C104  O52   A    
C88   H28   S    
C116  C120  A    
C42   C90   S    
C107  O7    A    
N1    H81   S    
Cr7   O31   S    
C97   C109  S    
C105  O5    A    
C99   C111  S    
C75   C99   A    
Cr10  O38   S    
Cr4   O20   S    
C113  C117  A    
C12   H44   S    
C26   C30   A    
C115  C119  A    
N7    H94   S    
C38   N6    S    
C69   C85   S    
C26   C42   A    
Cr11  O11   S    
C48   O32   A    
C3    O27   A    
C46   C113  S    
C18   C22   A    
C131  C132  A    
C44   C92   S    
C110  O42   A    
C15   C31   A    
C133  C134  A    
C16   C32   A    
C89   O1    A    
C13   C17   A    
C117  C118  A    
C57   C58   A    
C95   H35   S    
Cr12  O40   S    
Cr10  O34   S    
Cr5   O17   S    
C61   C62   S    
C63   C64   S    
C47   O31   A    
Cr5   O29   S    
C144  C145  A    
C148  H80   S    
Cr7   O27   S    
C51   C60   A    
C92   O4    A    
C63   H9    S    
Cr11  O15   S    
C55   C56   A    
C88   C96   S    
Cr3   O43   S    
C98   C110  S    
C85   H25   S    
C74   C94   S    
C141  C142  A    
C86   H30   S    
C80   C84   A    
C101  O49   A    
C84   H24   S    
Cr3   O23   S    
C127  C128  A    
C15   C19   A    
C93   H33   S    
C50   C54   A    
C13   C29   A    
C5    C11   A    
Cr8   O32   S    
C6    C12   A    
Cr10  O10   S    
N8    H96   S    
C2    O26   A    
Cr9   O13   S    
C6    C131  S    
Cr2   O18   S    
C114  C121  A    
C52   C107  S    
C4    O24   A    
C35   H55   S    
C69   C73   A    
Cr7   O7    S    
N2    H84   S    
C125  C130  A    
Cr11  O35   S    
C46   O34   A    
C110  O14   A    
C17   C33   S    
C128  H63   S    
C134  H68   S    
Cr8   O8    S    
C81   H21   S    
C68   C84   A    
C5    C125  S    
Cr6   O26   S    
C122  H2    S    
Cr12  O12   S    
C78   H18   S    
C54   C62   S    
C126  C127  A    
Cr7   O19   S    
C33   C37   S    
C38   H58   S    
Cr3   O3    S    
C35   C39   S    
N3    H85   S    
Cr4   O4    S    
C146  C147  A    
C27   N3    S    
C58   H6    S    
C65   C81   A    
C77   C81   A    
C1    C16   S    
Cr9   O37   S    
C2    C15   S    
C63   H15   S    
C121  C122  A    
C3    C14   S    
Cr7   O51   S    
C21   C41   A    
C145  H77   S    
C100  C112  S    
C24   C44   A    
Cr11  O39   S    
Cr1   O41   S    
C115  C124  A    
C96   H40   S    
Cr8   O28   S    
C124  H4    S    
Cr8   O52   S    
C119  C120  A    
C105  O9    A    
Cr4   O44   S    
Cr10  O18   S    
C57   H5    S    
C7    C137  S    
C61   H11   S    
C60   H8    S    
C79   C83   A    
C132  C133  A    
C65   C69   A    
C92   O40   A    
C67   C71   A    
C111  O15   A    
C40   N8    S    
C20   C36   S    
C27   C43   A    
C21   C37   S    
C3    O23   A    
N5    H89   S    
C1    O21   A    
C131  C136  A    
Cr9   O9    S    
Cr1   O21   S    
C87   H27   S    
N7    H93   S    
C138  H71   S    
C91   O39   A    
C14   C18   A    
C72   C76   A    
Cr6   O50   S    
C73   C97   A    
Cr12  O36   S    
C29   H45   S    
C112  O16   A    
C147  C148  A    
C47   O35   A    
C142  H75   S    
C89   O37   A    
C90   O38   A    
C4    C13   S    
C86   C94   S    
Cr11  O19   S    
C20   C24   A    
C51   C108  S    
C78   C98   A    
C103  O47   A    
Cr1   O45   S    
C86   H26   S    
C101  O45   A    
C68   C72   A    
C91   O3    A    
Cr1   O1    S    
C80   C100  A    
C45   O33   A    
C14   C30   A    
C72   C88   S    
C80   H20   S    
C36   H56   S    
C10   H42   S    
C36   C40   S    
Cr5   O25   S    
C112  O44   A    
C4    O28   A    
C146  H78   S    
C43   C91   S    
C49   C58   A    
C55   C63   S    
C52   C59   A    
C106  O6    A    
C35   H49   S    
C28   N4    S    
C139  C140  A    
C46   O30   A    
C33   H51   S    
C34   H52   S    
C18   C34   S    
C114  C118  A    
C94   H38   S    
C48   C115  S    
C71   C87   S    
C70   C86   S    
N6    H91   S    
C8    C120  A    
C40   H60   S    
C126  H61   S    
C7    C9    A    
N4    H87   S    
C31   H47   S    
C34   C38   S    
C32   H48   S    
C11   C12   A    
C90   O2    A    
C109  O41   A    
Cr9   O17   S    
C134  C135  A    
N1    H82   S    
C71   C75   A    
C22   C42   A    
C23   C39   S    
C24   C40   S    
C36   H50   S    
C48   O36   A    
C83   H23   S    
C96   H36   S    
C65   C104  S    
C6    C118  A    
C52   C56   A    
C67   C102  S    
Cr12  O20   S    
