data_mof_unit_38001.cif
_audit_creation_date              2012-12-11T16:35:22-0500
_audit_creation_method            fapswitch 2.2
_symmetry_space_group_name_H-M    P1
_symmetry_Int_Tables_number       1
_space_group_crystal_system       triclinic
_cell_length_a                    6.937798
_cell_length_b                    18.031903
_cell_length_c                    19.199829
_cell_angle_alpha                 108.617164
_cell_angle_beta                  89.085501
_cell_angle_gamma                 91.224458
_cell_volume                      2275.61933158

loop_
_atom_site_label
_atom_site_type_symbol
_atom_type_description
_atom_site_fract_x
_atom_site_fract_y
_atom_site_fract_z
_atom_type_partial_charge
O1    O     O_R   0.505700 0.440210 0.561730 -0.534263
O2    O     O_R   0.169350 0.406300 0.412660 -0.510229
O3    O     O_R   0.005650 0.559790 0.438270 -0.491342
C1    C     C_R   0.339808 0.385838 0.382970 0.783826
O4    O     O_R   0.175560 0.430650 0.559600 -0.560153
O5    O     O_R   0.011900 0.584320 0.586250 -0.542903
C2    C     C_R   0.342645 0.415381 0.581257 0.679871
O6    O     O_R   0.499450 0.415680 0.413750 -0.552533
O7    O     O_3   0.341370 0.550390 0.508570 -0.360816
V1    V     V_3+5 0.063940 0.490650 0.498410 1.546065
O8    O     O_R   0.682570 0.593700 0.587340 -0.549165
C3    C     C_R   0.851377 0.615842 0.615604 0.669142
O9    O     O_R   0.676370 0.569350 0.440400 -0.550883
C4    C     C_R   0.846808 0.581739 0.416845 0.781030
V2    V     V_3+5 0.564750 0.509350 0.501590 1.481704
O10   O     O_3   0.837190 0.449610 0.491430 -0.374256
C5    C     C_R   0.959484 0.639140 0.245467 -0.223005
H1    H     H_    0.031482 0.615405 0.192882 0.165240
C6    C     C_R   0.961550 0.597207 0.295801 0.390527
C7    C     C_R   0.860629 0.625804 0.363646 -0.171214
C8    C     C_R   0.769562 0.697985 0.380792 -0.225839
H2    H     H_    0.695485 0.721748 0.432918 0.142479
C9    C     C_R   0.779468 0.741653 0.332460 -0.064088
H3    H     H_    0.716560 0.799167 0.349885 0.189927
C10   C     C_R   0.868315 0.711642 0.262804 0.037553
C11   C     C_R   0.718587 0.807529 0.207980 0.279355
C12   C     C_R   0.746947 0.865705 0.174291 0.468649
C13   C     C_R   0.906116 0.861936 0.126089 -0.213017
C14   C     C_R   0.047782 0.805963 0.121435 -0.135666
H4    H     H_    0.172745 0.802046 0.085981 0.162444
C15   C     C_R   0.035564 0.757296 0.165447 -0.081156
H5    H     H_    0.156451 0.720269 0.165098 0.143499
C16   C     C_R   0.872012 0.757689 0.210063 -0.055806
H6    H     H_    0.106023 0.646319 0.931827 0.130054
C17   C     C_R   0.842079 0.901763 0.733148 0.249367
C18   C     C_R   0.728272 0.909168 0.674769 0.426553
C19   C     C_R   0.663282 0.841943 0.620177 0.318231
C20   C     C_R   0.716549 0.768648 0.622342 -0.347676
C21   C     C_R   0.809050 0.759567 0.683919 0.004770
C22   C     C_R   0.852934 0.827297 0.744718 -0.096368
C23   C     C_R   0.862954 0.684325 0.684314 -0.094826
C24   C     C_R   0.935353 0.675205 0.749642 0.060027
C25   C     C_R   0.953943 0.741249 0.814378 0.057514
C26   C     C_R   0.912642 0.817659 0.812663 -0.106278
C27   C     C_R   0.982004 0.600234 0.752767 -0.147535
C28   C     C_R   0.044737 0.590394 0.817736 -0.002313
C29   C     C_R   0.059479 0.654387 0.881208 -0.072752
C30   C     C_R   0.013891 0.728847 0.879993 -0.163054
H7    H     H_    0.680204 0.719131 0.575251 0.147751
H8    H     H_    0.967726 0.548146 0.705507 0.109737
H9    H     H_    0.079722 0.532613 0.819029 0.164915
H10   H     H_    0.026426 0.776193 0.931245 0.082860
H11   H     H_    0.697242 0.461749 0.192266 0.134025
C31   C     C_R   0.201481 0.233020 0.376582 -0.225744
C32   C     C_R   0.137028 0.160794 0.378486 -0.163724
C33   C     C_R   0.157039 0.095216 0.317316 0.519623
C34   C     C_R   0.240545 0.102411 0.252364 -0.202627
C35   C     C_R   0.313160 0.175687 0.249375 -0.016964
C36   C     C_R   0.289057 0.242563 0.313083 0.065854
C37   C     C_R   0.413254 0.183172 0.185961 -0.129664
C38   C     C_R   0.483742 0.258115 0.187230 -0.007741
C39   C     C_R   0.464521 0.323941 0.252097 0.066583
C40   C     C_R   0.359962 0.317009 0.314333 -0.116384
C41   C     C_R   0.570180 0.269426 0.123878 -0.146711
C42   C     C_R   0.645459 0.342014 0.124774 0.419662
C43   C     C_R   0.636864 0.405111 0.189878 -0.086676
C44   C     C_R   0.549779 0.395987 0.252511 -0.055820
H12   H     H_    0.187230 0.280713 0.426867 0.126436
H13   H     H_    0.074269 0.155758 0.428852 0.203137
H14   H     H_    0.251132 0.050621 0.205319 0.205051
H15   H     H_    0.578346 0.222571 0.072226 0.098762
H16   H     H_    0.552347 0.446309 0.301173 0.162721
C45   C     C_R   0.478869 0.369987 0.754151 0.427854
C46   C     C_R   0.467366 0.404275 0.698000 -0.248356
H17   H     H_    0.547344 0.458139 0.703580 0.172741
C47   C     C_R   0.348803 0.372688 0.636424 -0.209874
C48   C     C_R   0.239139 0.303502 0.631452 0.384242
C49   C     C_R   0.259438 0.267122 0.685403 -0.123857
H18   H     H_    0.180746 0.212742 0.678794 0.181281
C50   C     C_R   0.378518 0.298493 0.746783 -0.111786
C51   C     C_R   0.227944 0.224679 0.825857 -0.116113
H19   H     H_    0.086385 0.238637 0.811103 0.184070
C52   C     C_R   0.241993 0.175252 0.868847 -0.157892
H20   H     H_    0.111344 0.153272 0.886403 0.243153
C53   C     C_R   0.421457 0.153065 0.887954 -0.195709
C54   C     C_R   0.588425 0.190816 0.869997 0.453775
C55   C     C_R   0.574091 0.235841 0.822579 0.060592
H21   H     H_    0.705040 0.257068 0.803593 0.166461
C56   C     C_R   0.394212 0.253765 0.800163 0.012800
O11   O     O_R   0.273230 0.084330 0.086440 -0.551869
O12   O     O_R   0.596660 0.069390 0.940470 -0.525872
O13   O     O_R   0.760270 0.915710 0.913690 -0.545325
C57   C     C_R   0.428806 0.091362 0.925501 0.755982
O14   O     O_R   0.603330 0.093680 0.087390 -0.532010
O15   O     O_R   0.766990 0.940160 0.061660 -0.511651
C58   C     C_R   0.432970 0.114415 0.117131 0.713951
O16   O     O_R   0.266510 0.059870 0.938470 -0.508663
O17   O     O_3   0.431050 0.949630 0.991510 -0.364437
V3    V     V_3+5 0.708490 0.009340 0.001580 1.621681
O18   O     O_R   0.096270 0.930570 0.059390 -0.532868
C59   C     C_R   0.925064 0.914813 0.080390 0.766532
O19   O     O_R   0.089600 0.906290 0.912460 -0.522424
C60   C     C_R   0.921116 0.885227 0.882959 0.788143
V4    V     V_3+5 0.207670 0.990600 0.998190 1.622915
O20   O     O_3   0.935250 0.050360 0.008480 -0.369232
S1    S     S_3+6 0.015104 0.976424 0.774188 0.052653
O21   O     O_2   0.932070 0.029220 0.844701 -0.327818
O22   O     O_2   0.196838 0.940402 0.789209 -0.357016
O23   O     O_3   0.073079 0.029412 0.718837 -0.427568
H22   H     H_    0.192969 0.058156 0.739371 0.377093
S2    S     S_3+6 0.666171 0.000958 0.666172 0.128842
O24   O     O_2   0.676396 0.064142 0.739065 -0.320522
O25   O     O_2   0.802927 0.020340 0.612712 -0.258103
O26   O     O_3   0.441016 0.996367 0.633782 -0.441308
H23   H     H_    0.422323 0.047614 0.626288 0.376236
O27   O     O_3   0.557906 0.849202 0.562272 -0.565598
H24   H     H_    0.507273 0.797030 0.532673 0.296724
S3    S     S_3+6 0.108220 0.514144 0.275369 -0.050312
O28   O     O_2   0.001522 0.447525 0.290609 -0.350897
O29   O     O_2   0.174834 0.488383 0.196485 -0.347583
O30   O     O_3   0.299903 0.540111 0.330732 -0.517487
H25   H     H_    0.369226 0.580709 0.314919 0.319634
S4    S     S_3+6 0.086873 0.004772 0.327094 0.089491
O31   O     O_2   0.114984 0.939670 0.256529 -0.297531
O32   O     O_2   0.206916 0.990478 0.385898 -0.262354
O33   O     O_3   0.854431 0.008290 0.353495 -0.471840
H26   H     H_    0.828483 0.957864 0.362506 0.391661
O34   O     O_3   0.727671 0.349093 0.061243 -0.617134
H27   H     H_    0.774120 0.403833 0.070915 0.328029
S5    S     S_3+6 0.608772 0.422460 0.834171 -0.011959
O35   O     O_2   0.815853 0.398111 0.824310 -0.335238
O36   O     O_2   0.601467 0.508827 0.845587 -0.342491
O37   O     O_3   0.516841 0.405169 0.909217 -0.472112
H28   H     H_    0.381305 0.422232 0.912293 0.348708
O38   O     O_3   0.115160 0.267148 0.574804 -0.630453
H29   H     H_    0.100946 0.299575 0.542760 0.286685
O39   O     O_3   0.767863 0.184900 0.896627 -0.615063
H30   H     H_    0.752057 0.188761 0.948992 0.301909
O40   O     O_3   0.539171 0.800774 0.237877 -0.588211
H31   H     H_    0.518533 0.745748 0.236416 0.288908
S6    S     S_3+6 0.592382 0.946815 0.200445 0.058469
O41   O     O_2   0.433650 0.932193 0.145274 -0.345595
O42   O     O_2   0.507895 0.956075 0.275131 -0.245235
O43   O     O_3   0.715508 0.029417 0.203850 -0.521772
H32   H     H_    0.662120 0.070776 0.246693 0.352173

loop_
_geom_bond_atom_site_label_1
_geom_bond_atom_site_label_2
_ccdc_geom_bond_type
C55   H21   S    
O33   H26   S    
C23   C24   A    
O2    C1    A    
C6    C7    A    
C1    O6    A    
O34   H27   S    
O26   H23   S    
O38   H29   S    
C21   C23   A    
C19   O27   S    
C53   C54   A    
C33   C34   A    
C1    C40   S    
C11   C12   A    
C19   C20   A    
C46   C47   A    
C39   C44   A    
C52   H20   S    
C27   H8    S    
C8    H2    S    
C13   C14   A    
S6    O42   D    
O5    C3    A    
C20   C21   A    
O19   V4    S    
C49   C50   A    
C32   C33   A    
S4    O32   D    
C31   H12   S    
S1    O21   D    
C35   C37   A    
V2    O10   S    
O18   V4    S    
O27   H24   S    
C44   H16   S    
C45   C46   A    
C41   H15   S    
C50   C56   S    
S3    O28   D    
O13   C60   A    
C12   S6    S    
C45   S5    S    
O8    V2    S    
C13   C59   S    
C17   C18   A    
C6    S3    S    
C9    H3    S    
C15   C16   A    
O1    V2    S    
C34   H14   S    
C14   H4    S    
C25   C30   A    
C54   O39   S    
C51   C56   A    
C43   C44   A    
O9    C4    A    
C38   C39   A    
C53   C57   S    
V4    O20   S    
C51   C52   A    
C26   C60   S    
C51   H19   S    
C31   C36   A    
V3    O20   S    
C46   H17   S    
C42   O34   S    
C4    C7    S    
S4    O31   D    
C47   C48   A    
C11   O40   S    
S6    O43   S    
C21   C22   A    
C20   H7    S    
C54   C55   A    
S4    O33   S    
C35   C36   A    
C48   C49   A    
C28   H9    S    
C37   C38   A    
C24   C27   A    
C38   C41   A    
S5    O36   D    
C25   C26   A    
C33   S4    S    
C39   C40   A    
O12   C57   A    
C11   C16   A    
C29   C30   A    
C30   H10   S    
O40   H31   S    
C18   S2    S    
C5    H1    S    
S2    O25   D    
C28   C29   A    
O14   C58   A    
H11   C43   S    
O11   V4    S    
O30   H25   S    
C32   H13   S    
O3    C4    A    
C37   C58   S    
C52   C53   A    
C42   C43   A    
O6    V2    S    
O9    V2    S    
O37   H28   S    
S5    O37   S    
C24   C25   A    
O2    V1    S    
C57   O16   A    
C3    C23   S    
O4    C2    A    
O7    V1    S    
C31   C32   A    
C18   C19   A    
S2    O24   D    
O1    C2    A    
C15   H5    S    
O43   H32   S    
O5    V1    S    
O8    C3    A    
O11   C58   A    
C2    C47   S    
O39   H30   S    
C36   C40   A    
C5    C10   A    
C41   C42   A    
C8    C9    A    
S5    O35   D    
O7    V2    S    
O4    V1    S    
C14   C15   A    
O3    V1    S    
V1    O10   S    
S6    O41   D    
C49   H18   S    
C34   C35   A    
S1    O22   D    
O14   V3    S    
O17   V4    S    
O18   C59   A    
C5    C6    A    
C45   C50   A    
C17   C22   A    
S2    O26   S    
O15   V3    S    
C9    C10   A    
O19   C60   A    
S3    O29   D    
O16   V4    S    
C27   C28   A    
C22   C26   A    
C7    C8    A    
O17   V3    S    
C12   C13   A    
C17   S1    S    
C55   C56   A    
H6    C29   S    
C48   O38   S    
O12   V3    S    
O23   H22   S    
S3    O30   S    
O15   C59   A    
O13   V3    S    
C10   C16   S    
S1    O23   S    
