data_mof_unit_67189.cif
_audit_creation_date              2012-12-11T17:52:59-0500
_audit_creation_method            fapswitch 2.2
_symmetry_space_group_name_H-M    P1
_symmetry_Int_Tables_number       1
_space_group_crystal_system       triclinic
_cell_length_a                    8.256857
_cell_length_b                    12.612192
_cell_length_c                    16.274277
_cell_angle_alpha                 108.608501
_cell_angle_beta                  97.185316
_cell_angle_gamma                 82.067677
_cell_volume                      1584.84713725

loop_
_atom_site_label
_atom_site_type_symbol
_atom_type_description
_atom_site_fract_x
_atom_site_fract_y
_atom_site_fract_z
_atom_type_partial_charge
Ba1   Ba    Ba6+2 0.363950 0.459210 0.542370 1.681694
Ba2   Ba    Ba6+2 0.825880 0.540700 0.457630 1.661843
C1    C     C_3   0.210170 0.142542 0.793624 -0.327348
C2    C     C_R   0.891204 0.536677 0.752333 -0.302734
C3    C     C_2   0.477352 0.373317 0.133307 -0.085252
C4    C     C_3   0.757751 0.189301 0.773131 0.353578
C5    C     C_2   0.453463 0.408679 0.219564 -0.022717
C6    C     C_2   0.173863 0.493665 0.188475 -0.022413
C7    C     C_3   0.188879 0.436747 0.092040 0.009255
C8    C     C_3   0.367611 0.424400 0.072220 -0.011661
C9    C     C_2   0.068853 0.488881 0.033447 -0.009602
C10   C     C_2   0.111552 0.520562 0.968157 -0.077689
C11   C     C_R   0.835881 0.609805 0.928215 0.020782
C12   C     C_3   0.212102 0.230341 0.747954 0.366025
C13   C     C_R   0.987094 0.549917 0.902640 -0.000609
C14   C     C_R   0.715118 0.634720 0.866846 -0.064471
C15   C     C_R   0.742297 0.597228 0.778495 0.090853
C16   C     C_3   0.768543 0.093424 0.812196 -0.351710
C17   C     C_R   0.015391 0.515547 0.813639 -0.013419
C18   C     C_R   0.255824 0.811802 0.468167 -0.277215
C19   C     C_R   0.942836 0.200433 0.538711 -0.262983
C20   C     C_R   0.922786 0.028202 0.568726 -0.093312
C21   C     C_R   0.860854 0.137862 0.573847 -0.021916
C22   C     C_R   0.077614 0.150650 0.490493 0.061916
C23   C     C_3   0.037988 0.761588 0.728028 0.222194
C24   C     C_R   0.139485 0.036907 0.481984 -0.064957
C25   C     C_R   0.061698 0.976151 0.523326 -0.056333
C26   C     C_R   0.122055 0.863615 0.516105 0.040062
C27   C     C_R   0.338077 0.871569 0.430973 -0.007686
C28   C     C_3   0.750801 0.152397 0.281056 0.211189
C29   C     C_R   0.276684 0.981988 0.434589 -0.091349
C30   C     C_3   0.761473 0.077306 0.340388 -0.324531
C31   C     C_3   0.482231 0.811543 0.645580 0.286121
C32   C     C_3   0.490834 0.934723 0.656228 -0.340162
C33   C     C_3   0.190609 0.245277 0.278322 0.249997
C34   C     C_3   0.130851 0.792797 0.818542 -0.180135
C35   C     C_3   0.251704 0.176168 0.189937 -0.327695
C36   C     C_2   0.044228 0.891538 0.881875 0.875088
C37   C     C_2   0.750289 0.298730 0.845274 0.845364
C38   C     C_2   0.594702 0.278459 0.091928 0.867817
C39   C     C_2   0.761316 0.079241 0.187106 0.855178
C40   C     C_3   0.496307 0.713384 0.218789 0.347065
C41   C     C_3   0.500405 0.721087 0.127593 -0.317799
C42   C     C_3   0.993488 0.776242 0.255877 0.316368
C43   C     C_3   0.035557 0.848865 0.203942 -0.364859
C44   C     C_2   0.300483 0.481606 0.247401 -0.291070
H1    H     H_    0.290301 0.194946 0.692772 0.081548
H2    H     H_    0.287572 0.297023 0.317337 0.058520
H3    H     H_    0.080088 0.302354 0.268521 0.028690
H4    H     H_    0.168676 0.063910 0.746354 0.077570
H5    H     H_    0.372571 0.128043 0.198367 0.187285
H6    H     H_    0.168784 0.111519 0.152880 0.175790
H7    H     H_    0.260186 0.232103 0.150059 0.093722
H8    H     H_    0.085034 0.250515 0.721822 -0.080278
H9    H     H_    0.125816 0.174666 0.846082 0.174779
H10   H     H_    0.906730 0.756770 0.732958 0.034444
H11   H     H_    0.093366 0.676503 0.692586 0.053844
H12   H     H_    0.670843 0.013967 0.317100 0.170840
H13   H     H_    0.143015 0.720484 0.844452 -0.002354
H14   H     H_    0.256854 0.810505 0.813337 0.102987
H15   H     H_    0.334485 0.124554 0.823973 0.143551
H16   H     H_    0.872546 0.100114 0.863113 0.149507
H17   H     H_    0.579927 0.638583 0.224352 0.093127
H18   H     H_    0.369038 0.702282 0.227656 -0.072944
H19   H     H_    0.627565 0.730391 0.116616 0.169249
H20   H     H_    0.459480 0.643329 0.078253 0.047380
H21   H     H_    0.417654 0.795260 0.119298 0.136104
H22   H     H_    0.109488 0.750705 0.290777 -0.045834
H23   H     H_    0.887407 0.032331 0.343943 0.022773
H24   H     H_    0.908471 0.827136 0.305203 0.085742
H25   H     H_    0.146238 0.808049 0.167565 0.101258
H26   H     H_    0.062050 0.933739 0.248676 0.088252
H27   H     H_    0.931240 0.857922 0.155252 0.184258
H28   H     H_    0.601129 0.683380 0.888339 0.086964
H29   H     H_    0.286919 0.518178 0.316530 0.078979
H30   H     H_    0.913087 0.510007 0.684192 0.066163
H31   H     H_    0.939351 0.490102 0.039980 0.143616
H32   H     H_    0.239877 0.515073 0.957780 0.100479
H33   H     H_    0.857505 0.984116 0.598668 0.087672
H34   H     H_    0.728712 0.131083 0.406356 0.106878
H35   H     H_    0.339849 0.023492 0.401490 0.122598
H36   H     H_    0.302457 0.725945 0.464119 0.058018
H37   H     H_    0.871955 0.179274 0.741909 -0.145678
H38   H     H_    0.892732 0.285675 0.542680 0.072228
H39   H     H_    0.654072 0.096035 0.842229 0.118200
H40   H     H_    0.790161 0.011521 0.761413 0.122585
H41   H     H_    0.852045 0.206071 0.303298 0.012230
H42   H     H_    0.842411 0.955558 0.946694 0.337879
H43   H     H_    0.615327 0.440919 0.907243 0.302876
H44   H     H_    0.624590 0.115157 0.018714 0.340186
H45   H     H_    0.353568 0.796790 0.643621 0.008960
H46   H     H_    0.910763 0.175537 0.162486 0.280227
H47   H     H_    0.534251 0.761188 0.583459 0.058516
H48   H     H_    0.476898 0.985491 0.724559 0.132530
H49   H     H_    0.392424 0.966277 0.614708 0.062793
H50   H     H_    0.610557 0.945484 0.637740 0.122993
O1    O     O_2   0.429050 0.611890 0.712090 -0.471579
O2    O     O_2   0.677536 0.869634 0.439810 -0.478056
O3    O     O_3   0.548426 0.812047 0.280109 -0.596136
O4    O     O_3   0.649820 0.584130 0.603850 -0.496665
O5    O     O_3   0.066730 0.358340 0.455880 -0.491497
O6    O     O_2   0.852540 0.775600 0.541830 -0.458279
O7    O     O_3   0.050571 0.843268 0.687612 -0.662904
O8    O     O_2   0.836002 0.489095 0.190922 -0.449018
O9    O     O_3   0.913599 0.685587 0.198646 -0.608719
O10   O     O_3   0.201480 0.401240 0.659120 -0.490837
O11   O     O_2   0.350151 0.519380 0.809907 -0.455740
O12   O     O_3   0.150238 0.170993 0.318912 -0.650168
O13   O     O_3   0.568418 0.786249 0.717735 -0.621746
O14   O     O_3   0.277050 0.325064 0.807832 -0.540123
O15   O     O_2   0.337150 0.224350 0.458110 -0.443171
O16   O     O_3   0.611620 0.334620 0.615460 -0.454966
O17   O     O_2   0.527676 0.129010 0.549664 -0.479564
O18   O     O_2   0.113313 0.976231 0.917711 -0.587707
O19   O     O_R   0.886859 0.884744 0.901756 -0.765746
O20   O     O_2   0.867864 0.320080 0.899030 -0.649992
O21   O     O_R   0.608606 0.374268 0.852650 -0.687390
O22   O     O_2   0.733154 0.295035 0.082843 -0.567337
O23   O     O_3   0.615158 0.185330 0.714947 -0.595181
O24   O     O_R   0.539289 0.172011 0.053302 -0.736943
O25   O     O_2   0.670835 0.003925 0.154511 -0.571071
O26   O     O_R   0.867849 0.099153 0.135222 -0.738874
O27   O     O_2   0.760640 0.388070 0.287860 -0.482292
O28   O     O_3   0.539890 0.415780 0.396140 -0.462730
O29   O     O_3   0.988230 0.598670 0.340870 -0.473633
O30   O     O_3   0.595403 0.215411 0.287957 -0.653160
O31   O     O_3   0.122980 0.641570 0.544110 -0.486508
O32   O     O_3   0.578090 0.665290 0.384530 -0.491046
P1    P     P_3+3 0.593410 0.640600 0.698510 1.001458
P2    P     P_3+3 0.154920 0.233850 0.431950 0.976707
P3    P     P_3+3 0.658278 0.195289 0.614675 0.981151
P4    P     P_3+3 0.596300 0.359310 0.301480 0.985606
P5    P     P_3+3 0.534379 0.805425 0.384835 0.953825
P6    P     P_3+3 0.211204 0.442456 0.772709 1.012832
P7    P     P_3+3 0.039347 0.782790 0.573962 0.928526
P8    P     P_3+3 0.976926 0.564107 0.228694 0.970210

loop_
_geom_bond_atom_site_label_1
_geom_bond_atom_site_label_2
_ccdc_geom_bond_type
C6    C7    S    
C38   O22   D    
C28   O30   S    
C18   H36   S    
O27   P4    D    
C43   H25   S    
C26   P7    S    
C27   P5    S    
C23   H10   S    
C30   H12   S    
C34   H13   S    
Ba2   O27   S    
C17   P6    S    
C13   C17   A    
O2    P5    D    
O3    P5    S    
C24   C25   A    
C16   H40   S    
C14   H28   S    
C33   C35   S    
C32   H50   S    
C20   H33   S    
O11   P6    D    
Ba1   P1    S    
C31   H45   S    
Ba1   O16   S    
C36   O18   D    
C6    P8    S    
Ba2   O6    S    
O28   P4    S    
C43   H27   S    
Ba1   Ba2   S    
C39   O25   D    
O7    P7    S    
O6    P7    D    
C33   O12   S    
C9    H31   S    
C2    C17   A    
C1    H9    S    
C14   C15   A    
C10   H32   S    
C33   H3    S    
Ba2   P4    S    
C10   C13   S    
C28   C39   S    
C42   H24   S    
O17   P3    D    
C7    C8    S    
O12   P2    S    
Ba1   O10   S    
C35   H7    S    
Ba2   O31   S    
Ba2   O4    S    
C24   C29   A    
C43   H26   S    
C23   H11   S    
C33   H2    S    
Ba1   O4    S    
C44   H29   S    
C1    H4    S    
C18   C27   A    
C1    H15   S    
C4    C16   S    
C16   H39   S    
C15   P1    S    
C5    C44   S    
Ba1   O31   S    
C32   H49   S    
Ba1   P2    S    
Ba1   O1    S    
C3    C5    D    
C35   H6    S    
O4    P1    S    
C16   H16   S    
C18   C26   A    
Ba2   O5    S    
C42   O9    S    
H44   O24   S    
C39   O26   S    
H46   O26   S    
C30   H34   S    
O15   P2    D    
O23   P3    S    
C19   H38   S    
O30   P4    S    
C41   H19   S    
C31   C32   S    
C21   P3    S    
C7    C9    S    
C5    P4    S    
C12   H1    S    
C1    C12   S    
O9    P8    S    
C2    C15   A    
O29   P8    S    
C12   H8    S    
H43   O21   S    
C20   C25   A    
C19   C21   A    
O13   P1    S    
C42   H22   S    
C31   O13   S    
C40   C41   S    
C19   C22   A    
Ba1   O5    S    
C4    O23   S    
C42   C43   S    
C12   O14   S    
C4    H37   S    
O8    P8    D    
C38   O24   S    
C4    C37   S    
C23   O7    S    
C32   H48   S    
C22   C24   A    
C34   H14   S    
C31   H47   S    
C40   H18   S    
C9    C10   D    
C30   H23   S    
Ba2   O28   S    
C29   H35   S    
H42   O19   S    
C11   C13   A    
Ba1   O28   S    
O1    P1    D    
C3    C8    S    
C27   C29   A    
C37   O21   S    
C40   O3    S    
O5    P2    S    
C28   C30   S    
C36   O19   S    
C41   H20   S    
C35   H5    S    
C34   C36   S    
O16   P3    S    
O31   P7    S    
C6    C44   D    
C2    H30   S    
O14   P6    S    
C23   C34   S    
Ba2   O29   S    
C22   P2    S    
O10   P6    S    
C41   H21   S    
C37   O20   D    
C11   C14   A    
C25   C26   A    
C20   C21   A    
C3    C38   S    
C28   H41   S    
O32   P5    S    
C40   H17   S    
Ba1   O15   S    
Ba2   O32   S    
