data_mof_unit_25506.cif
_audit_creation_date              2012-12-10T20:42:42-0500
_audit_creation_method            fapswitch 2.2
_symmetry_space_group_name_H-M    P1
_symmetry_Int_Tables_number       1
_space_group_crystal_system       triclinic
_cell_length_a                    8.890215
_cell_length_b                    10.691124
_cell_length_c                    9.914916
_cell_angle_alpha                 90.075493
_cell_angle_beta                  90.157649
_cell_angle_gamma                 90.607989
_cell_volume                      942.319504355

loop_
_atom_site_label
_atom_site_type_symbol
_atom_type_description
_atom_site_fract_x
_atom_site_fract_y
_atom_site_fract_z
_atom_type_partial_charge
C1    C     C_R   0.502240 0.260315 0.500044 0.861506
C2    C     C_R   0.409189 0.419177 0.928167 0.170879
C3    C     C_3   0.242384 0.409171 0.917297 -0.492845
C4    C     C_R   0.218908 0.500148 0.499884 0.938033
C5    C     C_3   0.237447 0.415628 0.070726 -0.292110
C6    C     C_R   0.502040 0.739778 0.500200 0.886857
C7    C     C_R   0.781115 0.500363 0.500139 0.935732
C8    C     C_1   0.065494 0.500462 0.499894 -0.189324
C9    C     C_1   0.934551 0.500546 0.500213 -0.177704
C10   C     C_R   0.490667 0.064347 0.620871 0.115424
C11   C     C_R   0.517874 0.128801 0.501615 -0.080413
C12   C     C_R   0.564991 0.935821 0.386414 -0.174521
C13   C     C_R   0.565857 0.065100 0.386264 -0.227729
C14   C     C_2   0.161018 0.532023 0.121094 0.545978
C15   C     C_2   0.217250 0.873544 0.656902 0.416192
C16   C     C_1   0.400580 0.879430 0.850178 0.322566
C17   C     C_1   0.707112 0.648652 0.145103 0.230571
C18   C     C_1   0.703527 0.651610 0.855592 0.249142
C19   C     C_R   0.516736 0.871740 0.502041 -0.124978
C20   C     C_R   0.489545 0.936589 0.621557 0.020032
C21   C     C_3   0.358540 0.930819 0.717372 -0.053529
C22   C     C_3   0.360609 0.073514 0.715716 -0.597496
C23   C     C_R   0.406541 0.421400 0.070023 0.168427
C24   C     C_R   0.601029 0.570713 0.072425 -0.000274
C25   C     C_R   0.600452 0.571239 0.928061 -0.030428
H1    H     H_    0.596470 0.114350 0.294761 0.171543
H2    H     H_    0.205984 0.316696 0.876714 0.179079
H3    H     H_    0.193504 0.328252 0.117663 0.128372
H4    H     H_    0.594485 0.886900 0.294764 0.187928
H5    H     H_    0.260591 0.116692 0.667480 0.186213
H6    H     H_    0.394600 0.118290 0.812694 0.207737
H7    H     H_    0.192007 0.490603 0.864788 0.256491
H8    H     H_    0.059820 0.522938 0.181343 0.047945
H9    H     H_    0.176391 0.906519 0.560091 0.060862
N1    N     N_R   0.499010 0.499140 0.142800 -0.117123
N2    N     N_R   0.499010 0.499180 0.857150 -0.119103
N3    N     N_1   0.432951 0.840030 0.954828 -0.181972
N4    N     N_1   0.793123 0.711262 0.202270 -0.206244
N5    N     N_1   0.786364 0.716571 0.798303 -0.149039
O1    O     O_R   0.500020 0.316790 0.614690 -0.617048
O2    O     O_2   0.148268 0.789970 0.714540 -0.543192
O3    O     O_R   0.500000 0.316760 0.385350 -0.635606
O4    O     O_R   0.285350 0.500020 0.614650 -0.598490
O5    O     O_R   0.285340 0.499980 0.385310 -0.628985
O6    O     O_R   0.500000 0.683240 0.614650 -0.611264
O7    O     O_R   0.499980 0.683210 0.385310 -0.603618
O8    O     O_R   0.714660 0.500020 0.614690 -0.616761
O9    O     O_R   0.714650 0.499980 0.385350 -0.628447
O10   O     O_2   0.208751 0.636242 0.092621 -0.535998
Zn1   Zn    Zn3+2 0.500010 0.500020 0.653130 0.977691
Zn2   Zn    Zn3+2 0.499990 0.499980 0.346870 0.969036

loop_
_geom_bond_atom_site_label_1
_geom_bond_atom_site_label_2
_ccdc_geom_bond_type
C18   N5    T    
O4    Zn1   S    
C16   C21   S    
C4    O4    A    
O5    Zn2   S    
C12   H4    S    
C5    H3    S    
C4    O5    A    
C16   N3    T    
C15   H9    S    
C19   C20   A    
C5    C23   S    
O3    Zn2   S    
C4    C8    S    
C7    O9    A    
C14   H8    S    
C3    H2    S    
C2    C3    S    
C21   C22   S    
C20   C21   S    
C6    C19   S    
C11   C13   A    
C6    O7    A    
C5    C14   S    
C18   C25   S    
O6    Zn1   S    
O1    Zn1   S    
C12   C19   A    
C6    O6    A    
O8    Zn1   S    
C23   N1    A    
C17   N4    T    
N1    Zn2   S    
C3    H7    S    
C13   H1    S    
C17   C24   S    
C22   H6    S    
C25   N2    A    
C14   O10   D    
C1    O3    A    
C15   C21   S    
N2    Zn1   S    
C24   C25   A    
C15   O2    D    
C10   C11   A    
C2    N2    A    
C2    C23   A    
C7    C9    S    
C22   H5    S    
C1    O1    A    
C12   C13   A    
C24   N1    A    
O7    Zn2   S    
O9    Zn2   S    
C10   C22   S    
C7    O8    A    
C10   C20   A    
C8    C9    T    
C3    C5    S    
C1    C11   S    
