data_mof_unit_23676.cif
_audit_creation_date              2013-03-05T16:47:55-0500
_audit_creation_method            fapswitch 2.2
_symmetry_space_group_name_H-M    P1
_symmetry_Int_Tables_number       1
_space_group_crystal_system       triclinic
_cell_length_a                    8.111098
_cell_length_b                    8.924048
_cell_length_c                    16.525917
_cell_angle_alpha                 89.898761
_cell_angle_beta                  83.530933
_cell_angle_gamma                 90.198089
_cell_volume                      1188.58275882

loop_
_atom_site_label
_atom_site_type_symbol
_atom_site_description
_atom_site_fract_x
_atom_site_fract_y
_atom_site_fract_z
_atom_type_partial_charge
O1    O     O_R   0.363150 0.714660 0.500000 -0.597346
O2    O     O_R   0.636850 0.285340 0.500000 -0.620842
O3    O     O_R   0.636850 0.714660 0.500000 -0.602568
O4    O     O_R   0.363150 0.285340 0.500000 -0.619654
C1    C     C_R   0.500168 0.781995 0.500051 0.981920
C2    C     C_R   0.499800 0.218001 0.500083 0.902462
O5    O     O_R   0.346950 0.500000 0.615800 -0.610297
O6    O     O_R   0.653050 0.500000 0.384200 -0.615305
O7    O     O_R   0.620700 0.500000 0.615800 -0.579785
O8    O     O_R   0.379300 0.500000 0.384200 -0.568667
C3    C     C_R   0.474692 0.498446 0.654262 0.961542
C4    C     C_R   0.525438 0.498213 0.345575 0.956848
Zn1   Zn    Zn3+2 0.317220 0.500000 0.500010 1.083927
Zn2   Zn    Zn3+2 0.682780 0.500000 0.499990 1.075327
H1    H     H_    0.398483 0.519298 0.079236 0.208567
H2    H     H_    0.556163 0.546017 0.925161 0.213198
N1    N     N_1   0.926360 0.500000 0.499990 0.009852
N2    N     N_1   0.073640 0.500000 0.500010 0.011153
C5    C     C_R   0.453566 0.453945 0.739106 -0.216734
C6    C     C_R   0.548272 0.459679 0.259583 -0.223941
C7    C     C_R   0.518877 0.538378 0.799411 0.457253
C8    C     C_R   0.453416 0.524572 0.202755 0.458933
C9    C     C_R   0.509679 0.479733 0.877755 -0.197132
C10   C     C_R   0.469081 0.468334 0.123828 -0.207553
C11   C     C_R   0.446546 0.334453 0.895605 -0.102394
C12   C     C_R   0.575230 0.347418 0.101114 -0.086532
C13   C     C_R   0.377449 0.251090 0.835202 0.397882
C14   C     C_R   0.673756 0.285122 0.157323 0.397095
C15   C     C_R   0.378979 0.314129 0.757687 -0.278034
C16   C     C_R   0.660152 0.343656 0.236001 -0.275886
C17   C     C_2   0.450812 0.277629 0.979337 0.203575
C18   C     C_2   0.590823 0.299410 0.015524 0.215374
C19   C     C_1   0.500228 0.934789 0.500119 -0.100970
C20   C     C_1   0.499707 0.065207 0.500131 -0.129484
H3    H     H_    0.731132 0.292847 0.280559 0.205025
H4    H     H_    0.331224 0.249604 0.709834 0.194871
N3    N     N_R   0.311645 0.102088 0.849949 0.255403
O9    O     O_R   0.374393 0.012042 0.900267 -0.268913
O10   O     O_R   0.199064 0.050446 0.807010 -0.291751
N4    N     N_R   0.783000 0.160600 0.136752 0.247398
O11   O     O_R   0.744317 0.057782 0.086349 -0.272346
O12   O     O_R   0.913098 0.140896 0.174967 -0.304579
S1    S     S_3+6 0.613483 0.715450 0.778538 0.089434
O13   O     O_2   0.774967 0.694056 0.725709 -0.263799
O14   O     O_2   0.501255 0.812062 0.734298 -0.288450
O15   O     O_3   0.650869 0.800267 0.865479 -0.457991
H5    H     H_    0.709742 0.894372 0.847953 0.423767
S2    S     S_3+6 0.318356 0.677440 0.227170 0.085059
O16   O     O_2   0.158342 0.619366 0.270969 -0.266101
O17   O     O_2   0.396260 0.785933 0.281216 -0.299850
O18   O     O_3   0.278566 0.766388 0.141687 -0.466872
H6    H     H_    0.195297 0.843630 0.160172 0.431654
N5    N     N_R   0.749980 0.315685 0.967730 0.233084
O19   O     O_R   0.857469 0.412430 0.988905 -0.282901
O20   O     O_R   0.788418 0.233031 0.903598 -0.305229
N6    N     N_R   0.297862 0.231919 0.026329 0.238394
O21   O     O_R   0.155902 0.262828 0.000869 -0.245457
O22   O     O_R   0.300305 0.147184 0.090383 -0.291635

loop_
_geom_bond_atom_site_label_1
_geom_bond_atom_site_label_2
_geom_bond_distance
_ccdc_geom_bond_type
C11   C17   1.476997 S    
S2    O16   1.503114 D    
C8    S2    1.771045 S    
O7    Zn2   1.923351 S    
C12   C18   1.470524 S    
N3    O9    1.300805 A    
C17   N6    1.444593 S    
C13   C15   1.396927 A    
S1    O14   1.503213 D    
C12   C14   1.406793 A    
C17   C18   1.355364 D    
Zn2   N1    1.975701 S    
O6    C4    1.275882 A    
C4    C6    1.454278 S    
C14   C16   1.395037 A    
C19   C20   1.163874 T    
N3    O10   1.301550 A    
C6    C16   1.405578 A    
N5    O19   1.300993 A    
O5    C3    1.275243 A    
O7    C3    1.279438 A    
C15   H4    1.084480 S    
C3    C5    1.447906 S    
O2    C2    1.261696 A    
O3    Zn2   1.952786 S    
O8    C4    1.281564 A    
Zn1   N2    1.975701 S    
C13   N3    1.441189 S    
O1    C1    1.261673 A    
C16   H3    1.084164 S    
S2    O17   1.503464 D    
H1    C10   1.083301 S    
C5    C7    1.400154 A    
C6    C8    1.404732 A    
N1    N2    1.194640 T    
H2    C9    1.082800 S    
N5    O20   1.301701 A    
C7    C9    1.389709 A    
S1    O13   1.502963 D    
O2    Zn2   1.950257 S    
S1    O15   1.682153 S    
C8    C10   1.390947 A    
C11   C13   1.410600 A    
C14   N4    1.440777 S    
O18   H6    0.991016 S    
C5    C15   1.403101 A    
C18   N5    1.442223 S    
O5    Zn1   1.955440 S    
C9    C11   1.410729 A    
O1    Zn1   1.950256 S    
N6    O21   1.299965 A    
O4    C2    1.262766 A    
O4    Zn1   1.952787 S    
O15   H5    0.991149 S    
N4    O11   1.301452 A    
O6    Zn2   1.955440 S    
O3    C1    1.262759 A    
C7    S1    1.770568 S    
S2    O18   1.682400 S    
C2    C20   1.363540 S    
N6    O22   1.301822 A    
N4    O12   1.301674 A    
C10   C12   1.407690 A    
O8    Zn1   1.923351 S    
C1    C19   1.363542 S    
