data_mof_unit_56628.cif
_audit_creation_date              2013-03-05T15:57:49-0500
_audit_creation_method            fapswitch 2.2
_symmetry_space_group_name_H-M    P1
_symmetry_Int_Tables_number       1
_space_group_crystal_system       triclinic
_cell_length_a                    15.07654
_cell_length_b                    13.965175
_cell_length_c                    14.295506
_cell_angle_alpha                 89.99999
_cell_angle_beta                  84.554978
_cell_angle_gamma                 90.0
_cell_volume                      2996.28762663

loop_
_atom_site_label
_atom_site_type_symbol
_atom_site_description
_atom_site_fract_x
_atom_site_fract_y
_atom_site_fract_z
_atom_type_partial_charge
O1    O     O_R   0.370260 0.582280 0.500020 -0.562138
O2    O     O_R   0.629740 0.417720 0.499980 -0.523611
O3    O     O_R   0.629740 0.582280 0.499980 -0.562139
O4    O     O_R   0.370260 0.417720 0.500020 -0.523612
C1    C     C_R   0.328681 0.500258 0.511971 0.864715
C2    C     C_R   0.671319 0.500258 0.488029 0.864717
O5    O     O_R   0.500000 0.582290 0.376050 -0.547661
O6    O     O_R   0.500000 0.417710 0.623950 -0.518541
O7    O     O_R   0.500000 0.582290 0.623950 -0.547661
O8    O     O_R   0.500000 0.417710 0.376050 -0.518542
C3    C     C_R   0.497894 0.500031 0.331644 0.828368
C4    C     C_R   0.502106 0.500031 0.668356 0.828370
Cu1   Cu    Cu3+1 0.500000 0.597420 0.500000 1.063941
Cu2   Cu    Cu3+1 0.500000 0.402580 0.500000 1.083668
C5    C     C_1   0.497124 0.500196 0.229293 -0.099985
C6    C     C_1   0.502876 0.500196 0.770707 -0.099977
C7    C     C_1   0.497725 0.500243 0.143705 0.049242
C8    C     C_1   0.502275 0.500243 0.856294 0.049250
C9    C     C_1   0.499256 0.500246 0.042840 0.074572
C10   C     C_1   0.500744 0.500246 0.957160 0.074573
C11   C     C_R   0.827310 0.513304 0.399620 0.408931
C12   C     C_R   0.172689 0.513303 0.600380 0.408931
C13   C     C_R   0.769185 0.502349 0.483830 -0.122156
C14   C     C_R   0.230815 0.502349 0.516170 -0.122154
C15   C     C_R   0.803128 0.502919 0.570777 -0.183586
C16   C     C_R   0.196872 0.502920 0.429223 -0.183589
C17   C     C_R   0.894359 0.510044 0.578908 -0.006513
C18   C     C_R   0.105641 0.510045 0.421092 -0.006511
C19   C     C_R   0.953557 0.517347 0.496441 -0.044290
C20   C     C_R   0.046443 0.517347 0.503559 -0.044289
C21   C     C_R   0.920531 0.525294 0.407120 -0.032754
C22   C     C_R   0.079469 0.525294 0.592879 -0.032755
C23   C     C_R   0.927343 0.517651 0.667745 0.409550
C24   C     C_R   0.072657 0.517653 0.332254 0.409548
C25   C     C_R   0.016839 0.543817 0.671632 0.039392
C26   C     C_R   0.983161 0.543819 0.328368 0.039392
H1    H     H_    0.755821 0.500748 0.632446 0.201884
H2    H     H_    0.244179 0.500749 0.367554 0.201875
C27   C     C_R   0.423217 0.797701 0.528464 0.445811
C28   C     C_R   0.575820 0.202338 0.469141 0.384982
C29   C     C_R   0.576783 0.797701 0.471536 0.445812
C30   C     C_R   0.424180 0.202338 0.530859 0.384981
N1    N     N_R   0.500000 0.743810 0.500000 -0.278745
N2    N     N_R   0.500000 0.256190 0.500000 -0.281334
C31   C     C_R   0.579708 0.898160 0.490403 -0.089502
C32   C     C_R   0.420476 0.102571 0.509984 -0.096022
C33   C     C_R   0.420292 0.898160 0.509597 -0.089502
C34   C     C_R   0.579524 0.102571 0.490016 -0.096022
C35   C     C_R   0.500000 0.949183 0.500000 0.038268
C36   C     C_R   0.500000 0.051309 0.500000 0.044618
C37   C     C_R   0.659929 0.950501 0.491360 -0.059551
C38   C     C_R   0.340137 0.051053 0.509419 -0.067842
C39   C     C_R   0.340071 0.950501 0.508640 -0.059550
C40   C     C_R   0.659863 0.051053 0.490581 -0.067842
H3    H     H_    0.723301 0.913870 0.490249 0.194295
H4    H     H_    0.277036 0.088516 0.512192 0.189199
H5    H     H_    0.276699 0.913870 0.509751 0.194296
H6    H     H_    0.722964 0.088516 0.487808 0.189199
S1    S     S_3+6 0.788929 0.493327 0.286417 0.033414
O9    O     O_2   0.787017 0.584807 0.231451 -0.289821
O10   O     O_2   0.850945 0.424037 0.232861 -0.194232
O11   O     O_3   0.686304 0.448047 0.293103 -0.516373
H7    H     H_    0.674190 0.439969 0.226659 0.397326
S2    S     S_3+6 0.211071 0.493326 0.713583 0.033415
O12   O     O_2   0.212983 0.584807 0.768549 -0.289821
O13   O     O_2   0.149055 0.424036 0.767138 -0.194231
O14   O     O_3   0.313696 0.448047 0.706896 -0.516374
H8    H     H_    0.325811 0.439968 0.773341 0.397326
S3    S     S_3+6 0.857410 0.501550 0.774567 0.029946
O15   O     O_2   0.911829 0.490454 0.856708 -0.199398
O16   O     O_2   0.797348 0.587130 0.790298 -0.296942
O17   O     O_3   0.795074 0.402406 0.766867 -0.520964
H9    H     H_    0.749046 0.406152 0.821007 0.381704
S4    S     S_3+6 0.142590 0.501555 0.225433 0.029952
O18   O     O_2   0.088171 0.490460 0.143291 -0.199383
O19   O     O_2   0.202652 0.587135 0.209704 -0.296954
O20   O     O_3   0.204926 0.402410 0.233132 -0.520951
H10   H     H_    0.250973 0.406173 0.179010 0.381690
C41   C     C_3   0.035027 0.619803 0.742588 -0.530125
H11   H     H_    0.975623 0.666163 0.758611 0.222891
H12   H     H_    0.051447 0.587084 0.809406 0.303780
H13   H     H_    0.088377 0.669100 0.713330 0.251706
C42   C     C_3   0.964972 0.619805 0.257413 -0.530127
H14   H     H_    0.024375 0.666166 0.241390 0.222892
H15   H     H_    0.948553 0.587087 0.190595 0.303779
H16   H     H_    0.911622 0.669101 0.286671 0.251706
S5    S     S_3+6 0.337023 0.758680 0.614707 0.063932
O21   O     O_2   0.299705 0.842902 0.671016 -0.219454
O22   O     O_2   0.261720 0.714884 0.567798 -0.331297
O23   O     O_3   0.374581 0.684047 0.693139 -0.454751
H17   H     H_    0.350391 0.621380 0.677517 0.390005
S6    S     S_3+6 0.649236 0.235426 0.369334 0.091990
O24   O     O_2   0.723393 0.297091 0.398023 -0.203714
O25   O     O_2   0.691285 0.148347 0.321667 -0.244255
O26   O     O_3   0.592537 0.289364 0.288889 -0.479123
H18   H     H_    0.546610 0.242348 0.274296 0.341751
S7    S     S_3+6 0.662977 0.758680 0.385293 0.063931
O27   O     O_2   0.700294 0.842902 0.328984 -0.219454
O28   O     O_2   0.738279 0.714885 0.432202 -0.331298
O29   O     O_3   0.625419 0.684047 0.306861 -0.454749
H19   H     H_    0.649609 0.621380 0.322483 0.390005
S8    S     S_3+6 0.350764 0.235426 0.630666 0.091990
O30   O     O_2   0.276607 0.297091 0.601977 -0.203714
O31   O     O_2   0.308715 0.148347 0.678333 -0.244254
O32   O     O_3   0.407463 0.289363 0.711111 -0.479122
H20   H     H_    0.453389 0.242348 0.725704 0.341751

loop_
_geom_bond_atom_site_label_1
_geom_bond_atom_site_label_2
_geom_bond_distance
_ccdc_geom_bond_type
S5    O21   1.503970 D    
C17   C19   1.413188 A    
S8    O30   1.498932 D    
O26   H18   0.990687 S    
C27   S5    1.789314 S    
O3    C2    1.309163 A    
S7    O27   1.503971 D    
C33   C35   1.392614 A    
O20   H10   0.990648 S    
C17   C23   1.411131 A    
C34   C40   1.409473 A    
C11   C21   1.429473 A    
C19   C20   1.413688 A    
C12   C22   1.429473 A    
O1    C1    1.309164 A    
C27   C33   1.430095 A    
C14   C16   1.388372 A    
C11   S1    1.791454 S    
C23   C25   1.404069 A    
C31   C37   1.414360 A    
C26   C42   1.510944 S    
C32   C38   1.409473 A    
S8    O32   1.675469 S    
C28   C34   1.427057 A    
C30   C32   1.427057 A    
S3    O16   1.503416 D    
O7    Cu1   1.784481 S    
S6    O24   1.498932 D    
C29   S7    1.789314 S    
C15   H1    1.080494 S    
C3    C5    1.464314 S    
C4    C6    1.464314 S    
S4    O20   1.682863 S    
C28   N2    1.403988 A    
C37   H3    1.082560 S    
O3    Cu1   1.967397 S    
C23   S3    1.785657 S    
C33   C39   1.414360 A    
C34   C36   1.392076 A    
C18   C24   1.411132 A    
S1    O9    1.501554 D    
Cu1   Cu2   2.720973 S    
C29   N1    1.408066 A    
O2    C2    1.315461 A    
C30   N2    1.403989 A    
C30   S8    1.781763 S    
S7    O28   1.502383 D    
S1    O10   1.503613 D    
S4    O18   1.502950 D    
O14   H8    0.990572 S    
C22   C25   1.422748 A    
O17   H9    0.990644 S    
O8    Cu2   1.784483 S    
C41   H12   1.107853 S    
C39   H5    1.082560 S    
C16   H2    1.080493 S    
C27   N1    1.408067 A    
S6    O26   1.675469 S    
S2    O13   1.503611 D    
S3    O17   1.682863 S    
O5    C3    1.314325 A    
S2    O14   1.665785 S    
O11   H7    0.990572 S    
C42   H14   1.111210 S    
C31   C35   1.392613 A    
O6    C4    1.315091 A    
S6    O25   1.504353 D    
C28   S6    1.781763 S    
S8    O31   1.504352 D    
S4    O19   1.503416 D    
C24   S4    1.785656 S    
C42   H15   1.107852 S    
C11   C13   1.428403 A    
C12   C14   1.428403 A    
O1    Cu1   1.967397 S    
Cu1   N1    2.044362 S    
S7    O29   1.668710 S    
C38   C39   1.404266 A    
Cu2   N2    2.044362 S    
C40   H6    1.083139 S    
C5    C7    1.222687 T    
S1    O11   1.665784 S    
O6    Cu2   1.784481 S    
O4    C1    1.315462 A    
C41   H13   1.109943 S    
C15   C17   1.394856 A    
O32   H20   0.990688 S    
C32   C36   1.392077 A    
C16   C18   1.394858 A    
C37   C40   1.404266 A    
S2    O12   1.501553 D    
C9    C10   1.222910 T    
C18   C20   1.413189 A    
C19   C21   1.418210 A    
C20   C22   1.418210 A    
O23   H17   0.981954 S    
C1    C14   1.471281 S    
C2    C13   1.471281 S    
C25   C41   1.510946 S    
O29   H19   0.981954 S    
C7    C9    1.439919 S    
C24   C26   1.404071 A    
C8    C10   1.439919 S    
C13   C15   1.388373 A    
O4    Cu2   1.967397 S    
S3    O15   1.502949 D    
O2    Cu2   1.967397 S    
O7    C4    1.314325 A    
O8    C3    1.315091 A    
C12   S2    1.791455 S    
C41   H11   1.111211 S    
O5    Cu1   1.784483 S    
C42   H16   1.109944 S    
C6    C8    1.222687 T    
C35   C36   1.426202 A    
S5    O23   1.668712 S    
S5    O22   1.502384 D    
C29   C31   1.430095 A    
C21   C26   1.422747 A    
C38   H4    1.083140 S    
