data_mof_unit_57173.cif
_audit_creation_date              2012-12-10T17:58:17-0500
_audit_creation_method            fapswitch 2.2
_symmetry_space_group_name_H-M    P1
_symmetry_Int_Tables_number       1
_space_group_crystal_system       triclinic
_cell_length_a                    9.52221
_cell_length_b                    10.820589
_cell_length_c                    15.382524
_cell_angle_alpha                 89.244383
_cell_angle_beta                  74.399452
_cell_angle_gamma                 89.724503
_cell_volume                      1526.4288042

loop_
_atom_site_label
_atom_site_type_symbol
_atom_type_description
_atom_site_fract_x
_atom_site_fract_y
_atom_site_fract_z
_atom_type_partial_charge
C1    C     C_R   0.000241 0.262078 0.500835 0.882097
C2    C     C_R   0.000154 0.737717 0.498820 0.870858
C3    C     C_R   0.580950 0.482712 0.096533 -0.133904
C4    C     C_R   0.423356 0.553109 0.905856 -0.159283
C5    C     C_R   0.724962 0.456826 0.052224 -0.109784
C6    C     C_R   0.279000 0.577035 0.950703 -0.116440
C7    C     C_R   0.903428 0.066476 0.463268 -0.287874
C8    C     C_R   0.098923 0.932663 0.534668 -0.318481
C9    C     C_R   0.905260 0.938500 0.458678 0.503456
C10   C     C_R   0.105138 0.061336 0.533323 0.503214
C11   C     C_R   0.000533 0.871414 0.497386 -0.167956
C12   C     C_R   0.002409 0.128062 0.500230 -0.162423
C13   C     C_R   0.550057 0.424516 0.558778 0.631069
C14   C     C_R   0.449232 0.578388 0.443723 0.631240
C15   C     C_R   0.400404 0.424097 0.557112 -0.235842
C16   C     C_R   0.599403 0.575686 0.442720 -0.200363
C17   C     C_R   0.918371 0.501725 0.672298 0.898863
C18   C     C_R   0.081707 0.499711 0.327664 0.882701
C19   C     C_R   0.874177 0.499927 0.771179 -0.207610
C20   C     C_R   0.126440 0.508671 0.228940 -0.205857
C21   C     C_R   0.915317 0.428263 0.912358 0.532389
C22   C     C_R   0.085887 0.592734 0.090744 0.540243
C23   C     C_R   0.962037 0.440211 0.818506 -0.350020
C24   C     C_R   0.037357 0.570937 0.183631 -0.372694
C25   C     C_R   0.741464 0.554092 0.818309 0.353331
C26   C     C_R   0.263389 0.463338 0.180505 0.376957
C27   C     C_R   0.679231 0.517679 0.909425 -0.104047
C28   C     C_R   0.325113 0.508826 0.091657 -0.095766
C29   C     C_R   0.773506 0.466712 0.958246 0.024390
C30   C     C_R   0.229745 0.560731 0.044164 0.017994
C31   C     C_R   0.527460 0.527768 0.953628 0.108195
C32   C     C_R   0.477157 0.503931 0.047943 0.122756
Cu1   Cu    Cu3+1 0.140660 0.500020 0.500000 1.043988
Cu2   Cu    Cu3+1 0.859340 0.499980 0.500000 1.040311
H1    H     H_    0.798342 0.429593 0.092048 0.196738
H2    H     H_    0.205349 0.605979 0.911496 0.196916
H3    H     H_    0.929468 0.601954 0.220059 0.178316
H4    H     H_    0.067941 0.404147 0.782835 0.180818
H5    H     H_    0.551379 0.483631 0.169195 0.197195
H6    H     H_    0.452171 0.556813 0.833491 0.198805
H7    H     H_    0.827240 0.117617 0.435317 0.190695
H8    H     H_    0.169532 0.880301 0.566175 0.182975
H9    H     H_    0.322534 0.362706 0.600736 0.178777
H10   H     H_    0.677311 0.633481 0.395738 0.172306
N1    N     N_R   0.352080 0.500030 0.499980 -0.206884
N2    N     N_R   0.647920 0.499970 0.500020 -0.210583
O1    O     O_R   0.118740 0.319660 0.500000 -0.530137
O2    O     O_R   0.881260 0.680340 0.500000 -0.534940
O3    O     O_R   0.881170 0.319630 0.500010 -0.563253
O4    O     O_R   0.118830 0.680370 0.499990 -0.578311
O5    O     O_R   0.055570 0.500030 0.629830 -0.604592
O6    O     O_R   0.944430 0.499970 0.370170 -0.606825
O7    O     O_R   0.818000 0.500000 0.629840 -0.499250
O8    O     O_R   0.182000 0.500000 0.370160 -0.495887
S1    S     S_3+6 0.324851 0.321181 0.218599 -0.017268
O9    O     O_2   0.410052 0.345459 0.285930 -0.313274
O10   O     O_2   0.194936 0.242732 0.263344 -0.322325
O11   O     O_3   0.429729 0.242923 0.130924 -0.538744
H11   H     H_    0.465051 0.169882 0.158371 0.369829
S2    S     S_3+6 0.690228 0.695957 0.773944 -0.008913
O12   O     O_2   0.600682 0.774542 0.848574 -0.281926
O13   O     O_2   0.825867 0.766024 0.726623 -0.310865
O14   O     O_3   0.594384 0.667708 0.698998 -0.560686
H12   H     H_    0.590416 0.747852 0.667875 0.375073
O15   O     O_3   0.008673 0.379691 0.959134 -0.577023
C33   C     C_3   0.007014 0.249776 0.953955 -0.314329
H13   H     H_    0.053317 0.218357 0.883431 0.170521
H14   H     H_    0.894950 0.212317 0.981910 0.166110
H15   H     H_    0.076325 0.211054 0.995260 0.213151
O16   O     O_3   0.991972 0.644495 0.045684 -0.573817
C34   C     C_3   0.995277 0.774013 0.053439 -0.324741
H16   H     H_    0.107065 0.811166 0.023945 0.170859
H17   H     H_    0.953355 0.802810 0.124901 0.148488
H18   H     H_    0.923124 0.815544 0.015067 0.215302
O17   O     O_3   0.811542 0.879885 0.417858 -0.578248
C35   C     C_3   0.883705 0.866600 0.325512 -0.358337
H19   H     H_    0.810577 0.817431 0.292449 0.171447
H20   H     H_    0.984711 0.810091 0.315700 0.151350
H21   H     H_    0.909496 0.958194 0.291248 0.184662
O18   O     O_3   0.201020 0.122701 0.571683 -0.581080
C36   C     C_3   0.346184 0.087963 0.528762 -0.269329
H22   H     H_    0.421011 0.157298 0.544083 0.195342
H23   H     H_    0.368082 0.085314 0.453863 0.175783
H24   H     H_    0.373322 0.997897 0.555652 0.155430
O19   O     O_3   0.603587 0.343978 0.613505 -0.551763
C37   C     C_3   0.504389 0.325643 0.699186 -0.323653
H25   H     H_    0.566779 0.297519 0.747620 0.201150
H26   H     H_    0.443173 0.411071 0.725667 0.156007
H27   H     H_    0.427886 0.249470 0.696703 0.171187
O20   O     O_3   0.400285 0.653205 0.384145 -0.556116
C38   C     C_3   0.436875 0.777849 0.392870 -0.328479
H28   H     H_    0.549575 0.797233 0.351782 0.177654
H29   H     H_    0.423312 0.804185 0.464456 0.151336
H30   H     H_    0.362540 0.837518 0.366201 0.191650

loop_
_geom_bond_atom_site_label_1
_geom_bond_atom_site_label_2
_ccdc_geom_bond_type
C33   H14   S    
S1    O9    D    
C27   C29   A    
Cu1   N1    S    
C35   H21   S    
C26   S1    S    
C17   O5    A    
C36   H22   S    
C18   O6    A    
O19   C37   S    
S2    O14   S    
C22   C24   A    
C8    H8    S    
C13   N2    A    
C37   H26   S    
C33   H15   S    
S2    O13   D    
C14   O20   S    
C2    O4    A    
C20   C24   A    
O16   C34   S    
Cu2   N2    S    
C25   S2    S    
C16   H10   S    
C33   H13   S    
C3    H5    S    
C1    C12   S    
C2    C11   S    
C36   H23   S    
C24   H3    S    
C14   N1    A    
C5    C29   A    
C21   C23   A    
C7    C12   A    
C27   C31   A    
C4    H6    S    
C28   C32   A    
C35   H19   S    
C4    C6    A    
C16   N2    A    
C38   H28   S    
C34   H17   S    
C10   O18   S    
C37   H25   S    
C1    O1    A    
C2    O2    A    
Cu1   O4    S    
C21   C29   A    
S2    O12   D    
C19   C23   A    
O17   C35   S    
C38   H29   S    
C31   C32   A    
C13   C15   A    
Cu1   Cu2   S    
C9    C11   A    
C10   C12   A    
C6    C30   A    
S1    O10   D    
C25   C27   A    
Cu1   O1    S    
C14   C16   A    
Cu2   O2    S    
C15   N1    A    
C17   O7    A    
C36   H24   S    
Cu1   O8    S    
C7    C9    A    
Cu2   O3    S    
C22   C30   A    
C21   O15   S    
Cu2   O6    S    
C35   H20   S    
O18   C36   S    
C3    C5    A    
C37   H27   S    
C34   H18   S    
Cu1   O5    S    
C23   H4    S    
C26   C28   A    
C28   C30   A    
O11   H11   S    
C15   H9    S    
C34   H16   S    
C38   H30   S    
O20   C38   S    
C20   C26   A    
C8    C11   A    
C5    H1    S    
C17   C19   S    
C6    H2    S    
C18   C20   S    
C7    H7    S    
C3    C32   A    
C19   C25   A    
C4    C31   A    
C18   O8    A    
O14   H12   S    
Cu2   O7    S    
C8    C10   A    
O15   C33   S    
S1    O11   S    
C13   O19   S    
C9    O17   S    
C1    O3    A    
C22   O16   S    
