data_mof_unit_57967.cif
_audit_creation_date              2012-12-10T19:00:44-0500
_audit_creation_method            fapswitch 2.2
_symmetry_space_group_name_H-M    P1
_symmetry_Int_Tables_number       1
_space_group_crystal_system       triclinic
_cell_length_a                    15.040571
_cell_length_b                    10.940855
_cell_length_c                    9.641235
_cell_angle_alpha                 88.736578
_cell_angle_beta                  87.899491
_cell_angle_gamma                 90.943682
_cell_volume                      1584.8413534

loop_
_atom_site_label
_atom_site_type_symbol
_atom_type_description
_atom_site_fract_x
_atom_site_fract_y
_atom_site_fract_z
_atom_type_partial_charge
C1    C     C_R   0.502093 0.263125 0.500384 0.856312
C2    C     C_R   0.907718 0.619023 0.468440 -0.001275
C3    C     C_R   0.952257 0.294041 0.572072 -0.270716
C4    C     C_R   0.044445 0.297080 0.582849 0.260727
C5    C     C_R   0.092455 0.405190 0.546403 0.087889
C6    C     C_R   0.047326 0.509796 0.499191 -0.015012
C7    C     C_R   0.096273 0.614428 0.450534 0.053772
C8    C     C_R   0.050650 0.719054 0.411125 -0.244386
C9    C     C_R   0.958332 0.725302 0.425410 0.240173
C10   C     C_R   0.184824 0.410995 0.556206 -0.302228
C11   C     C_R   0.233260 0.511784 0.502406 -0.144094
C12   C     C_R   0.329495 0.505677 0.501302 0.823214
C13   C     C_R   0.189992 0.611615 0.440660 0.205327
C14   C     C_R   0.487536 0.058952 0.615274 -0.094470
C15   C     C_R   0.505996 0.130575 0.496976 -0.175042
C16   C     C_R   0.526436 0.068729 0.370843 0.198573
C17   C     C_R   0.520923 0.939071 0.368202 0.167197
C18   C     C_R   0.503391 0.870270 0.493438 -0.177244
C19   C     C_R   0.489196 0.935442 0.613632 -0.002048
C20   C     C_3   0.476191 0.921784 0.767626 0.097765
C21   C     C_3   0.470587 0.063480 0.769503 0.105207
C22   C     C_R   0.577461 0.517771 0.066705 0.144116
C23   C     C_R   0.501101 0.737139 0.498293 0.838417
C24   C     C_R   0.429475 0.451677 0.081953 0.275413
C25   C     C_R   0.426645 0.461520 0.932541 0.272030
C26   C     C_R   0.576178 0.519632 0.921145 0.137452
C27   C     C_3   0.638954 0.624364 0.903236 -0.429527
C28   C     C_3   0.646196 0.619945 0.060973 0.007827
C29   C     C_R   0.670758 0.501446 0.498403 0.887514
C30   C     C_R   0.813431 0.617450 0.481082 0.151599
C31   C     C_R   0.767510 0.504469 0.496591 -0.153967
C32   C     C_R   0.812361 0.395742 0.525014 0.158992
C33   C     C_R   0.905689 0.398769 0.531832 0.039827
C34   C     C_R   0.953393 0.509081 0.498693 -0.059754
Cu1   Cu    Cu3+1 0.500000 0.499980 0.640670 0.959731
Cu2   Cu    Cu3+1 0.500000 0.500020 0.359330 0.955799
H1    H     H_    0.537053 0.888640 0.817171 0.061698
H2    H     H_    0.699574 0.598562 0.842392 0.217601
H3    H     H_    0.606271 0.707731 0.864294 0.164638
H4    H     H_    0.220518 0.334389 0.598922 0.190678
H5    H     H_    0.086280 0.799885 0.373577 0.194022
N1    N     N_R   0.500570 0.500930 0.147930 -0.241869
N2    N     N_R   0.500570 0.500890 0.852020 -0.219703
O1    O     O_R   0.500000 0.319640 0.618810 -0.569888
O2    O     O_R   0.500010 0.319680 0.381230 -0.535481
O3    O     O_R   0.370250 0.499950 0.618800 -0.546887
O4    O     O_R   0.370260 0.499990 0.381220 -0.565317
O5    O     O_R   0.499990 0.680320 0.618770 -0.583099
O6    O     O_R   0.500000 0.680360 0.381190 -0.563396
O7    O     O_R   0.629740 0.500010 0.618780 -0.581404
O8    O     O_R   0.629750 0.500050 0.381200 -0.614092
N3    N     N_2   0.765120 0.726788 0.504497 -0.430611
H6    H     H_    0.794566 0.788402 0.568678 0.255665
C35   C     C_3   0.722503 0.781155 0.386842 -0.664041
H7    H     H_    0.770078 0.796797 0.298364 0.259113
H8    H     H_    0.694494 0.870396 0.416509 0.213016
H9    H     H_    0.668306 0.721317 0.352945 0.248900
N4    N     N_2   0.539087 0.878653 0.241345 -0.425767
H10   H     H_    0.596402 0.907349 0.187412 0.238002
C36   C     C_3   0.463692 0.859782 0.154609 -0.696191
H11   H     H_    0.473037 0.915564 0.058052 0.209700
H12   H     H_    0.399934 0.885374 0.207152 0.236505
H13   H     H_    0.459301 0.762178 0.126511 0.240585
N5    N     N_2   0.396502 0.853731 0.816573 -0.401341
H14   H     H_    0.409799 0.774673 0.871631 0.250268
C37   C     C_3   0.321223 0.840998 0.728686 -0.676455
H15   H     H_    0.260318 0.820686 0.794131 0.213189
H16   H     H_    0.332572 0.764300 0.657512 0.232217
H17   H     H_    0.310113 0.925551 0.667438 0.232353
N6    N     N_2   0.383660 0.112757 0.806531 -0.383491
H18   H     H_    0.335709 0.113180 0.732885 0.262798
C38   C     C_3   0.351358 0.094472 0.948958 -0.687824
H19   H     H_    0.296212 0.157337 0.972186 0.205671
H20   H     H_    0.405584 0.111164 0.020903 0.207449
H21   H     H_    0.323813 0.000954 0.967418 0.260898
H22   H     H_    0.525816 0.108672 0.823719 0.104085
N7    N     N_2   0.373518 0.365242 0.158257 -0.371282
H23   H     H_    0.394070 0.276300 0.153294 0.244309
C39   C     C_3   0.278105 0.379912 0.173864 -0.661248
H24   H     H_    0.261132 0.476549 0.190777 0.235993
H25   H     H_    0.253233 0.326397 0.266866 0.221137
H26   H     H_    0.243082 0.343708 0.084263 0.203002
N8    N     N_2   0.346525 0.431545 0.867784 -0.361747
H27   H     H_    0.322802 0.344430 0.887848 0.255558
C40   C     C_3   0.279141 0.524914 0.874594 -0.672299
H28   H     H_    0.265360 0.555132 0.981473 0.202438
H29   H     H_    0.216493 0.490003 0.831386 0.226915
H30   H     H_    0.301958 0.606440 0.813722 0.250149
N9    N     N_2   0.733154 0.577400 0.100262 -0.399658
H31   H     H_    0.735785 0.546620 0.201241 0.286821
C41   C     C_3   0.808812 0.654926 0.057811 -0.706058
H32   H     H_    0.866245 0.633157 0.122748 0.229397
H33   H     H_    0.792753 0.753074 0.068179 0.215792
H34   H     H_    0.829194 0.637874 0.948333 0.235552
N10   N     N_2   0.762223 0.284416 0.546397 -0.454765
H35   H     H_    0.786860 0.211458 0.492030 0.244118
C42   C     C_3   0.737109 0.253112 0.689497 -0.683807
H36   H     H_    0.796339 0.228287 0.748629 0.212344
H37   H     H_    0.689982 0.173812 0.692501 0.213909
H38   H     H_    0.703940 0.330430 0.741287 0.259196
H39   H     H_    0.624946 0.703725 0.114106 0.157897
H40   H     H_    0.917944 0.208473 0.597443 0.150849
N11   N     N_2   0.088406 0.190206 0.629371 -0.438935
H41   H     H_    0.052221 0.139735 0.704153 0.248051
C43   C     C_3   0.122218 0.114513 0.518874 -0.746939
H42   H     H_    0.066260 0.074775 0.461581 0.229695
H43   H     H_    0.161002 0.039011 0.563994 0.225706
H44   H     H_    0.166916 0.168390 0.445483 0.236098
N12   N     N_2   0.238881 0.701013 0.356535 -0.440121
H45   H     H_    0.290407 0.671497 0.293339 0.272666
C44   C     C_3   0.252225 0.821776 0.410718 -0.791395
H46   H     H_    0.323486 0.836958 0.430788 0.234417
H47   H     H_    0.211487 0.834532 0.507442 0.235409
H48   H     H_    0.232936 0.891155 0.332188 0.237592
N13   N     N_2   0.917944 0.839784 0.397997 -0.422907
H49   H     H_    0.924479 0.900074 0.477891 0.242397
C45   C     C_3   0.937958 0.897068 0.263195 -0.744570
H50   H     H_    0.004392 0.943011 0.260870 0.217645
H51   H     H_    0.887512 0.967445 0.242327 0.227331
H52   H     H_    0.936077 0.828633 0.180050 0.239754
N14   N     N_2   0.553717 0.135743 0.247296 -0.408735
H53   H     H_    0.531953 0.100753 0.156134 0.245877
C46   C     C_3   0.646904 0.170973 0.238632 -0.672811
H54   H     H_    0.663652 0.228537 0.327443 0.253348
H55   H     H_    0.661217 0.225415 0.141570 0.222646
H56   H     H_    0.689244 0.088710 0.238083 0.195963

loop_
_geom_bond_atom_site_label_1
_geom_bond_atom_site_label_2
_ccdc_geom_bond_type
C37   H16   S    
N10   H35   S    
C24   N1    A    
Cu2   N1    S    
C19   C20   S    
C25   N2    A    
C42   H36   S    
C7    C8    A    
C22   N1    A    
N7    H23   S    
C43   H43   S    
C21   H22   S    
C26   C27   S    
C36   H13   S    
C14   C21   S    
C10   H4    S    
C38   H21   S    
C5    C6    A    
C46   H55   S    
C37   H17   S    
C3    C33   A    
C27   H2    S    
N4    C36   S    
C15   C16   A    
C4    N11   S    
Cu2   O4    S    
C36   H12   S    
C18   C19   A    
C13   N12   S    
N12   C44   S    
C28   H39   S    
N11   C43   S    
C44   H46   S    
C27   H3    S    
C8    C9    A    
N13   C45   S    
N6    H18   S    
C1    C15   S    
N9    C41   S    
Cu1   N2    S    
C17   N4    S    
C2    C34   A    
N7    C39   S    
C37   H15   S    
C22   C28   S    
C12   O4    A    
Cu1   O5    S    
C42   H37   S    
N3    C35   S    
C26   N2    A    
C33   C34   A    
C29   O7    A    
C40   H29   S    
C43   H44   S    
C35   H8    S    
C18   C23   S    
C9    N13   S    
C46   H54   S    
C2    C9    A    
C24   C25   A    
C38   H20   S    
C45   H52   S    
C41   H32   S    
C39   H25   S    
C16   C17   A    
C46   H56   S    
N4    H10   S    
C40   H28   S    
C6    C34   A    
C36   H11   S    
Cu1   Cu2   S    
N5    C37   S    
C20   N5    S    
C16   N14   S    
C41   H33   S    
C1    O1    A    
C31   C32   A    
C7    C13   A    
Cu1   O7    S    
C17   C18   A    
Cu2   O2    S    
C44   H47   S    
C8    H5    S    
Cu1   O1    S    
N14   H53   S    
C28   N9    S    
Cu2   O8    S    
C3    H40   S    
C12   O3    A    
N8    C40   S    
N8    H27   S    
C3    C4    A    
N11   H41   S    
C42   H38   S    
N3    H6    S    
C29   O8    A    
C40   H30   S    
C30   N3    S    
C35   H7    S    
C23   O5    A    
C14   C19   A    
C38   H19   S    
C39   H26   S    
C11   C12   S    
N10   C42   S    
C6    C7    A    
C43   H42   S    
C21   N6    S    
C2    C30   A    
N5    H14   S    
C45   H51   S    
C5    C10   A    
C29   C31   S    
C45   H50   S    
C32   C33   A    
C41   H34   S    
C20   H1    S    
C11   C13   A    
C1    O2    A    
C30   C31   A    
C44   H48   S    
N14   C46   S    
C23   O6    A    
C10   C11   A    
C39   H24   S    
C24   N7    S    
C4    C5    A    
C32   N10   S    
C20   C21   S    
C22   C26   A    
C27   C28   S    
C25   N8    S    
C14   C15   A    
N6    C38   S    
N9    H31   S    
N12   H45   S    
Cu1   O3    S    
Cu2   O6    S    
N13   H49   S    
C35   H9    S    
