data_mof_unit_38286.cif
_audit_creation_date              2012-12-11T15:36:30-0500
_audit_creation_method            fapswitch 2.2
_symmetry_space_group_name_H-M    P1
_symmetry_Int_Tables_number       1
_space_group_crystal_system       triclinic
_cell_length_a                    15.039407
_cell_length_b                    15.036262
_cell_length_c                    34.8337
_cell_angle_alpha                 91.493476
_cell_angle_beta                  92.014981
_cell_angle_gamma                 60.136434
_cell_volume                      6826.63183259

loop_
_atom_site_label
_atom_site_type_symbol
_atom_type_description
_atom_site_fract_x
_atom_site_fract_y
_atom_site_fract_z
_atom_type_partial_charge
C1    C     C_R   0.610189 0.303576 0.443706 0.542909
C2    C     C_R   0.608539 0.072647 0.759880 0.085310
C3    C     C_R   0.099377 0.763785 0.886859 0.222607
C4    C     C_R   0.127223 0.752604 0.848608 -0.115183
C5    C     C_R   0.130314 0.673338 0.825949 -0.008625
C6    C     C_R   0.111487 0.599692 0.842147 0.264632
C7    C     C_R   0.084874 0.609179 0.880916 0.061426
C8    C     C_R   0.226286 0.587468 0.767477 -0.131670
C9    C     C_R   0.235126 0.580965 0.727396 0.291741
C10   C     C_R   0.162263 0.663413 0.704968 0.044753
C11   C     C_R   0.081954 0.749803 0.722207 -0.135039
C12   C     C_R   0.072122 0.754786 0.761956 0.259388
C13   C     C_R   0.603291 0.150496 0.785187 0.020316
C14   C     C_R   0.640355 0.729755 0.158576 -0.134449
C15   C     C_R   0.144682 0.672924 0.784598 -0.003302
C16   C     C_R   0.198881 0.728632 0.646393 0.084175
C17   C     C_R   0.229980 0.712967 0.607966 0.090084
C18   C     C_R   0.201321 0.567229 0.603239 -0.145198
C19   C     C_R   0.167874 0.584056 0.640999 0.106885
C20   C     C_R   0.173062 0.660835 0.663207 0.108119
C21   C     C_R   0.238208 0.626964 0.587238 0.014620
C22   C     C_R   0.673181 0.078476 0.905204 0.000440
C23   C     C_R   0.594921 0.066711 0.886218 0.216361
C24   C     C_R   0.546192 0.194036 0.639372 -0.183019
C25   C     C_R   0.568413 0.096369 0.847827 -0.139928
C26   C     C_3   0.160263 0.484359 0.092036 -0.052796
C27   C     C_3   0.229272 0.882760 0.350317 -0.139331
C28   C     C_3   0.392709 0.742161 0.221653 -0.133784
C29   C     C_3   0.375361 0.502894 0.149948 -0.125331
C30   C     C_3   0.092333 0.535305 0.207481 -0.070743
C31   C     C_3   0.176369 0.456795 0.323019 -0.145996
C32   C     C_3   0.985008 0.933086 0.178084 -0.124511
C33   C     C_3   0.454928 0.445483 0.260905 -0.076347
C34   C     C_3   0.887131 0.974351 0.286615 -0.105292
C35   C     C_R   0.823226 0.611856 0.158892 -0.081486
C36   C     C_3   0.537146 0.079335 0.169513 -0.121538
C37   C     C_3   0.414552 0.686822 0.797835 -0.102133
C38   C     C_3   0.888988 0.495578 0.674923 -0.098438
C39   C     C_3   0.188445 0.816308 0.925605 -0.110963
C40   C     C_3   0.333841 0.404863 0.721763 -0.063740
C41   C     C_3   0.903110 0.840147 0.775834 -0.144679
C42   C     C_3   0.028414 0.544164 0.800463 -0.125857
C43   C     C_3   0.454288 0.087231 0.916032 -0.108146
C44   C     C_3   0.854545 0.047523 0.682925 -0.131846
C45   C     C_3   0.682164 0.348091 0.734295 -0.053761
C46   C     C_R   0.543854 0.226283 0.602135 -0.187461
C47   C     C_3   0.834391 0.112369 0.812110 -0.114354
C48   C     C_3   0.861202 0.125448 0.579614 -0.097077
C49   C     C_3   0.797439 0.814721 0.226475 -0.083716
C50   C     C_R   0.713748 0.205911 0.612457 0.290847
C51   C     C_R   0.716105 0.173239 0.650178 0.339915
C52   C     C_R   0.628815 0.173627 0.664245 0.016393
C53   C     C_R   0.624097 0.239210 0.588998 -0.029841
C54   C     C_R   0.046920 0.738552 0.048242 0.568515
C55   C     C_R   0.730859 0.661373 0.178263 0.023576
C56   C     C_R   0.746544 0.745404 0.063633 0.561639
C57   C     C_R   0.751058 0.040910 0.050638 0.533332
C58   C     C_R   0.018054 0.721830 0.939813 0.580456
C59   C     C_R   0.716945 0.730151 0.954824 0.548181
C60   C     C_R   0.826393 0.635440 0.120779 -0.157851
C61   C     C_R   0.721043 0.024775 0.941908 0.573306
C62   C     C_R   0.663200 0.618615 0.234159 -0.187545
C63   C     C_R   0.651577 0.617856 0.273459 -0.157908
C64   C     C_R   0.706819 0.646440 0.299217 -0.006934
C65   C     C_R   0.776957 0.674108 0.285343 0.119513
C66   C     C_R   0.620371 0.134852 0.827411 -0.023782
C67   C     C_R   0.786040 0.677668 0.245419 0.306900
C68   C     C_R   0.729137 0.649412 0.219870 0.003578
C69   C     C_R   0.592382 0.722894 0.354259 -0.120540
C70   C     C_R   0.592976 0.610029 0.449266 0.542427
C71   C     C_R   0.564810 0.714957 0.391210 -0.128408
C72   C     C_R   0.728622 0.559468 0.400739 -0.125532
C73   C     C_R   0.756343 0.567966 0.363807 -0.121868
C74   C     C_R   0.686953 0.647958 0.340139 0.030677
C75   C     C_R   0.631110 0.630956 0.414239 0.024342
C76   C     C_R   0.108178 0.727242 0.083797 -0.057606
C77   C     C_R   0.693839 0.153174 0.847032 0.269171
C78   C     C_R   0.172925 0.629760 0.099957 0.269362
C79   C     C_R   0.209883 0.622900 0.138225 0.259858
C80   C     C_R   0.173504 0.712241 0.161102 0.074726
C81   C     C_R   0.115525 0.809033 0.144128 0.255102
C82   C     C_R   0.304460 0.590872 0.442149 0.547323
C83   C     C_R   0.086331 0.815806 0.105298 -0.188305
C84   C     C_R   0.243079 0.733543 0.225029 0.259898
C85   C     C_R   0.246108 0.726394 0.265473 -0.117994
C86   C     C_R   0.188162 0.691072 0.283865 -0.014590
C87   C     C_R   0.124660 0.665176 0.261863 -0.088394
C88   C     C_R   0.715115 0.131331 0.886500 0.076408
C89   C     C_R   0.124344 0.666722 0.221679 0.236018
C90   C     C_R   0.181350 0.703794 0.203385 0.093824
C91   C     C_R   0.226952 0.574150 0.339335 0.234563
C92   C     C_R   0.255052 0.550808 0.378095 -0.120869
C93   C     C_R   0.222109 0.723305 0.390906 -0.135183
C94   C     C_R   0.606179 0.299266 0.553553 0.556288
C95   C     C_R   0.197028 0.747791 0.351742 0.244043
C96   C     C_R   0.201509 0.671972 0.325779 0.053551
C97   C     C_R   0.255100 0.623949 0.403838 -0.065969
C98   C     C_R   0.722149 0.102582 0.086383 -0.027434
C99   C     C_R   0.595058 0.239701 0.769758 -0.106922
C100  C     C_R   0.791844 0.125760 0.105664 -0.154526
C101  C     C_R   0.775294 0.161421 0.143575 -0.185003
C102  C     C_R   0.689247 0.174075 0.162606 0.034158
C103  C     C_R   0.615335 0.158118 0.142784 0.286107
C104  C     C_R   0.631048 0.124841 0.104402 -0.108489
C105  C     C_R   0.622317 0.282921 0.221117 -0.095602
C106  C     C_R   0.588033 0.606762 0.559174 0.542536
C107  C     C_R   0.609374 0.292537 0.261167 0.261798
C108  C     C_R   0.663967 0.204464 0.284173 0.070338
C109  C     C_R   0.731034 0.108646 0.267539 0.220297
C110  C     C_R   0.607899 0.246230 0.730463 0.289740
C111  C     C_R   0.738718 0.100323 0.227478 -0.133026
C112  C     C_R   0.684973 0.186991 0.204446 -0.025533
C113  C     C_R   0.736666 0.197714 0.349558 -0.108685
C114  C     C_R   0.725043 0.218312 0.388779 -0.138714
C115  C     C_R   0.546380 0.263566 0.382312 -0.110799
C116  C     C_R   0.557555 0.242668 0.342705 0.142969
C117  C     C_R   0.652613 0.213360 0.326158 0.134491
C118  C     C_R   0.297718 0.589767 0.551778 0.568148
C119  C     C_R   0.628824 0.255512 0.405239 -0.004260
C120  C     C_R   0.690216 0.691813 0.919304 -0.004041
C121  C     C_R   0.616585 0.167354 0.705647 0.024611
C122  C     C_R   0.766054 0.605347 0.899978 -0.115391
C123  C     C_R   0.750915 0.586407 0.861256 0.102048
C124  C     C_R   0.658563 0.655003 0.841968 0.093391
C125  C     C_R   0.579235 0.734760 0.862408 -0.116257
C126  C     C_R   0.594577 0.752662 0.900826 -0.118595
C127  C     C_R   0.578391 0.636430 0.779856 0.313234
C128  C     C_R   0.575317 0.636162 0.739269 0.101295
C129  C     C_R   0.641721 0.659045 0.719221 0.018800
C130  C     C_R   0.737056 0.709164 0.101419 0.054621
C131  C     C_R   0.709630 0.682029 0.739526 -0.142139
C132  C     C_R   0.612966 0.083301 0.720145 -0.175851
C133  C     C_R   0.714625 0.679364 0.779388 -0.151545
C134  C     C_R   0.650943 0.654904 0.799693 0.036906
C135  C     C_R   0.720094 0.566526 0.658211 0.328368
C136  C     C_R   0.707255 0.550795 0.618821 0.090621
C137  C     C_R   0.553460 0.719207 0.616621 -0.169321
C138  C     C_R   0.564227 0.732040 0.655830 -0.199789
C139  C     C_R   0.643940 0.653892 0.677024 0.005259
C140  C     C_R   0.620340 0.626453 0.597869 -0.021752
C141  C     C_R   0.071070 0.695940 0.902711 0.009190
C142  C     C_R   0.642364 0.753578 0.120203 0.087598
Cr1   Cr    Cr6+3 0.426010 0.422500 0.497000 1.004876
Cr2   Cr    Cr6+3 0.651300 0.426310 0.501970 1.014504
Cr3   Cr    Cr6+3 0.422670 0.651170 0.501050 1.029551
Cr4   Cr    Cr6+3 0.905130 0.911420 0.992650 1.058568
Cr5   Cr    Cr6+3 0.911860 0.682710 0.002320 1.026465
Cr6   Cr    Cr6+3 0.682710 0.906840 0.004710 1.041263
H1    H     H_    0.489095 0.770990 0.400734 0.121307
H2    H     H_    0.862547 0.109671 0.092472 0.147711
H3    H     H_    0.318119 0.780278 0.606465 0.231201
H4    H     H_    0.194270 0.855579 0.591270 0.211242
H5    H     H_    0.022975 0.585679 0.773821 0.114180
H6    H     H_    0.959503 0.590808 0.818097 0.122521
H7    H     H_    0.027637 0.473104 0.791701 0.156767
H8    H     H_    0.401130 0.127588 0.891423 0.106253
H9    H     H_    0.457587 0.143591 0.936583 0.115027
H10   H     H_    0.422462 0.046014 0.931403 0.134267
H11   H     H_    0.738216 0.212343 0.928811 0.217050
H12   H     H_    0.808135 0.196986 0.890461 0.270234
H13   H     H_    0.574847 0.110460 0.089584 0.134741
H14   H     H_    0.860932 0.997158 0.657886 0.077093
H15   H     H_    0.819630 0.031058 0.707305 0.119832
H16   H     H_    0.933683 0.027179 0.692223 0.156665
H17   H     H_    0.754096 0.275502 0.741488 0.146706
H18   H     H_    0.650514 0.395620 0.760579 0.154190
H19   H     H_    0.703535 0.391248 0.714859 0.189581
H20   H     H_    0.678718 0.941282 0.790416 0.219763
H21   H     H_    0.612711 0.934604 0.751810 0.225363
H22   H     H_    0.815564 0.708638 0.339112 0.232499
H23   H     H_    0.913114 0.644137 0.309152 0.220781
H24   H     H_    0.584133 0.349321 0.202823 0.101939
H25   H     H_    0.815115 0.076625 0.787298 0.134984
H26   H     H_    0.882389 0.053373 0.833878 0.167060
H27   H     H_    0.881202 0.144054 0.801174 0.142330
H28   H     H_    0.821182 0.114446 0.553995 0.101777
H29   H     H_    0.894544 0.056486 0.598119 0.106057
H30   H     H_    0.925669 0.133481 0.569183 0.141328
H31   H     H_    0.849024 0.837551 0.213387 0.137062
H32   H     H_    0.772921 0.855631 0.254517 0.178149
H33   H     H_    0.729905 0.839250 0.206597 0.094765
H34   H     H_    0.829406 0.509426 0.352958 0.106319
H35   H     H_    0.832831 0.172884 0.158863 0.124686
H36   H     H_    0.784183 0.025950 0.214081 0.086006
H37   H     H_    0.810141 0.174556 0.337096 0.113264
H38   H     H_    0.789990 0.211053 0.405778 0.132620
H39   H     H_    0.471823 0.291898 0.394695 0.116907
H40   H     H_    0.839583 0.556843 0.914073 0.129141
H41   H     H_    0.893212 0.557595 0.173731 0.132256
H42   H     H_    0.534332 0.819490 0.914994 0.153358
H43   H     H_    0.506906 0.800772 0.670093 0.117654
H44   H     H_    0.598491 0.595582 0.283921 0.145881
H45   H     H_    0.759433 0.701332 0.724474 0.100441
H46   H     H_    0.768202 0.696931 0.794595 0.117349
H47   H     H_    0.508311 0.788382 0.847854 0.113267
H48   H     H_    0.487768 0.779782 0.601588 0.143728
H49   H     H_    0.619534 0.596611 0.214715 0.114942
H50   H     H_    0.282981 0.526852 0.785531 0.143840
H51   H     H_    0.143476 0.808199 0.836191 0.154990
H52   H     H_    0.781254 0.494059 0.417892 0.121909
H53   H     H_    0.027257 0.813559 0.704768 0.119023
H54   H     H_    0.568729 0.768585 0.173523 0.095600
H55   H     H_    0.203604 0.503671 0.587036 0.129537
H56   H     H_    0.583770 0.302472 0.788725 0.163457
H57   H     H_    0.510115 0.084468 0.833444 0.171520
H58   H     H_    0.618198 0.023875 0.700507 0.104794
H59   H     H_    0.479727 0.192764 0.649721 0.121623
H60   H     H_    0.475252 0.248310 0.584607 0.150647
H61   H     H_    0.538081 0.784690 0.335981 0.103029
H62   H     H_    0.498723 0.794329 0.101407 0.230108
H63   H     H_    0.037855 0.891194 0.093202 0.156288
H64   H     H_    0.515153 0.893130 0.116257 0.219127
H65   H     H_    0.083108 0.532638 0.104507 0.106292
H66   H     H_    0.213569 0.428558 0.113587 0.168681
H67   H     H_    0.151185 0.439577 0.067945 0.124683
H68   H     H_    0.311672 0.822334 0.349043 0.099690
H69   H     H_    0.210483 0.916763 0.379626 0.118048
H70   H     H_    0.217641 0.944703 0.330642 0.140608
H71   H     H_    0.433405 0.660162 0.230258 0.087620
H72   H     H_    0.388178 0.792627 0.246254 0.122335
H73   H     H_    0.439010 0.750375 0.199516 0.136120
H74   H     H_    0.294481 0.746743 0.282775 0.130397
H75   H     H_    0.392624 0.558002 0.165804 0.111190
H76   H     H_    0.393769 0.499234 0.119061 0.150310
H77   H     H_    0.425981 0.425724 0.162131 0.156305
H78   H     H_    0.050408 0.532145 0.232556 0.132597
H79   H     H_    0.176632 0.484954 0.212301 0.147374
H80   H     H_    0.070448 0.503352 0.182227 0.114810
H81   H     H_    0.097527 0.517697 0.330565 0.098450
H82   H     H_    0.212059 0.401003 0.346766 0.110963
H83   H     H_    0.168869 0.414618 0.297656 0.131122
H84   H     H_    0.929843 0.951267 0.153439 0.116541
H85   H     H_    0.076802 0.641668 0.275950 0.153859
H86   H     H_    0.960631 0.004426 0.195170 0.136993
H87   H     H_    0.981870 0.876362 0.196942 0.116488
H88   H     H_    0.406934 0.280111 0.335358 0.227622
H89   H     H_    0.490450 0.182212 0.308201 0.220162
H90   H     H_    0.418519 0.398432 0.252959 0.169657
H91   H     H_    0.460466 0.484932 0.235395 0.081056
H92   H     H_    0.403777 0.505906 0.281243 0.176985
H93   H     H_    0.915499 0.030174 0.287215 0.118058
H94   H     H_    0.910823 0.927069 0.260005 0.106922
H95   H     H_    0.924844 0.921651 0.311102 0.182354
H96   H     H_    0.899848 0.599267 0.107046 0.121083
H97   H     H_    0.608808 0.029643 0.186342 0.107491
H98   H     H_    0.533493 0.039013 0.142833 0.111359
H99   H     H_    0.471660 0.093035 0.187291 0.144004
H100  H     H_    0.548461 0.549619 0.699914 0.267735
H101  H     H_    0.454290 0.673524 0.702820 0.220067
H102  H     H_    0.376053 0.674455 0.772178 0.176115
H103  H     H_    0.403939 0.765662 0.797530 0.086801
H104  H     H_    0.375064 0.682166 0.823379 0.125933
H105  H     H_    0.803249 0.452491 0.832358 0.249633
H106  H     H_    0.894670 0.459764 0.858766 0.217033
H107  H     H_    0.283898 0.472854 0.387435 0.138700
H108  H     H_    0.876840 0.573501 0.681758 0.077296
H109  H     H_    0.918351 0.472472 0.645386 0.143823
H110  H     H_    0.949234 0.441442 0.695149 0.142882
H111  H     H_    0.808339 0.469892 0.577078 0.218407
H112  H     H_    0.744938 0.412308 0.594985 0.306646
H113  H     H_    0.249157 0.794675 0.904101 0.100245
H114  H     H_    0.210384 0.752077 0.945844 0.114486
H115  H     H_    0.183042 0.882163 0.942603 0.140877
H116  H     H_    0.135564 0.461138 0.894552 0.250942
H117  H     H_    0.009019 0.529420 0.882553 0.237656
H118  H     H_    0.218956 0.780590 0.411130 0.127288
H119  H     H_    0.056185 0.566973 0.663972 0.199880
H120  H     H_    0.137603 0.464945 0.637955 0.217309
H121  H     H_    0.260378 0.404245 0.723900 0.125398
H122  H     H_    0.377600 0.382664 0.749504 0.119279
H123  H     H_    0.380520 0.345647 0.700197 0.153637
H124  H     H_    0.910814 0.769195 0.788279 0.107647
H125  H     H_    0.874587 0.849159 0.745488 0.099822
H126  H     H_    0.845078 0.905442 0.792697 0.135205
H127  H     H_    0.273301 0.798740 0.670477 0.230071
H128  H     H_    0.149545 0.879590 0.656418 0.222130
N1    N     N_3   0.548480 0.823993 0.100804 -0.602472
N2    N     N_3   0.781848 0.159389 0.907607 -0.573974
N3    N     N_3   0.610826 0.982766 0.774359 -0.641856
N4    N     N_3   0.836688 0.702655 0.310550 -0.608959
N5    N     N_3   0.472245 0.254748 0.318934 -0.595835
N6    N     N_3   0.506599 0.610168 0.718926 -0.582825
N7    N     N_3   0.830817 0.501839 0.840675 -0.652154
N8    N     N_3   0.780560 0.455280 0.601826 -0.577169
N9    N     N_3   0.068876 0.532191 0.897612 -0.588096
N10   N     N_3   0.133655 0.520217 0.657742 -0.632204
N11   N     N_3   0.199135 0.809284 0.669326 -0.651770
N12   N     N_3   0.257317 0.781318 0.590629 -0.600674
O1    O     O_R   0.324990 0.503440 0.453910 -0.523171
O2    O     O_R   0.675430 0.831160 0.051290 -0.474938
O3    O     O_R   0.698870 0.998880 0.039560 -0.510722
O4    O     O_R   0.522030 0.339050 0.458320 -0.505289
O5    O     O_R   0.811290 0.006780 0.950620 -0.467014
O6    O     O_R   0.980960 0.812920 0.953200 -0.448729
O7    O     O_R   0.001480 0.656720 0.955830 -0.482741
O8    O     O_R   0.809240 0.683250 0.968050 -0.504117
O9    O     O_R   0.652500 0.818540 0.967340 -0.492560
O10   O     O_R   0.677620 0.987170 0.961730 -0.459993
O11   O     O_3   0.833240 0.833660 0.999890 -0.261526
O12   O     O_R   0.639980 0.519500 0.542640 -0.510628
O13   O     O_R   0.676180 0.324490 0.458320 -0.519018
O14   O     O_R   0.643570 0.521510 0.464260 -0.502097
O15   O     O_R   0.504630 0.675350 0.460920 -0.521691
O16   O     O_R   0.339850 0.642450 0.459830 -0.499031
O17   O     O_R   0.321120 0.501280 0.538470 -0.529940
O18   O     O_R   0.518440 0.337050 0.536710 -0.506952
O19   O     O_R   0.672300 0.322330 0.542880 -0.481702
O20   O     O_3   0.202074 0.542323 0.077600 -0.544744
O21   O     O_3   0.162424 0.846231 0.338300 -0.574865
O22   O     O_3   0.294221 0.773756 0.205580 -0.534363
O23   O     O_R   0.500750 0.673190 0.545480 -0.506706
O24   O     O_3   0.272711 0.528098 0.154484 -0.579704
O25   O     O_3   0.064040 0.637945 0.199632 -0.548036
O26   O     O_3   0.239155 0.497625 0.313314 -0.581240
O27   O     O_3   0.085473 0.897523 0.165667 -0.524393
O28   O     O_3   0.551997 0.387314 0.279176 -0.564091
O29   O     O_3   0.779864 0.022735 0.290679 -0.582567
O30   O     O_3   0.528185 0.174848 0.161212 -0.566458
O31   O     O_3   0.518589 0.608992 0.800429 -0.554381
O32   O     O_3   0.799193 0.489763 0.679556 -0.544343
O33   O     O_3   0.092351 0.846582 0.907567 -0.534840
O34   O     O_R   0.336260 0.640450 0.538210 -0.452962
O35   O     O_3   0.318739 0.500367 0.709582 -0.519368
O36   O     O_3   0.995562 0.842372 0.778996 -0.576295
O37   O     O_3   0.121507 0.516400 0.820703 -0.580614
O38   O     O_3   0.552750 0.014908 0.903403 -0.542516
O39   O     O_3   0.799778 0.152926 0.673960 -0.529857
O40   O     O_3   0.607170 0.331123 0.715330 -0.540054
O41   O     O_3   0.744689 0.193607 0.827897 -0.601207
O42   O     O_3   0.795529 0.214856 0.600462 -0.520999
O43   O     O_3   0.851943 0.707560 0.231404 -0.545023
O44   O     O_3   0.499990 0.499990 0.500010 -0.238496
O45   O     O_R   0.834210 0.019400 0.034570 -0.519414
O46   O     O_R   0.002210 0.824620 0.031030 -0.515062
O47   O     O_R   0.024400 0.669340 0.039790 -0.481028
O48   O     O_R   0.830490 0.694950 0.045870 -0.522152

loop_
_geom_bond_atom_site_label_1
_geom_bond_atom_site_label_2
_ccdc_geom_bond_type
Cr6   O10   S    
C99   H56   S    
C18   C21   A    
C70   O15   A    
C38   H108  S    
C19   C20   A    
C136  C140  A    
C43   H10   S    
H127  N11   S    
H100  N6    S    
C32   H86   S    
C135  C139  A    
C33   O28   S    
C5    C6    A    
C58   O6    A    
C135  O32   S    
C108  C109  A    
C41   H124  S    
C91   C96   A    
Cr1   O1    S    
C4    H51   S    
H119  N10   S    
C10   C20   S    
C133  H46   S    
C31   H83   S    
C18   H55   S    
H21   N3    S    
H22   N4    S    
C85   H74   S    
C56   O48   A    
Cr3   O16   S    
C28   H72   S    
C116  N5    S    
C142  N1    S    
H112  N8    S    
C137  C140  A    
C50   C53   A    
H101  N6    S    
C51   C52   A    
C30   H80   S    
H12   N2    S    
C39   H113  S    
C72   C73   A    
C93   H118  S    
C100  H2    S    
C37   H103  S    
C99   C110  A    
C17   C21   A    
C26   H67   S    
Cr3   O44   S    
Cr2   O12   S    
C122  H40   S    
C16   C20   A    
C69   C74   A    
C105  C112  A    
C87   C89   A    
C27   H68   S    
C43   H8    S    
C30   O25   S    
C41   H125  S    
C44   O39   S    
C66   C77   A    
C34   H95   S    
C4    C5    A    
H4    N12   S    
C6    C7    A    
C40   H122  S    
C24   H59   S    
C87   H85   S    
C62   C68   A    
Cr4   O46   S    
C24   C46   A    
C45   O40   S    
C58   C141  S    
Cr5   O48   S    
C31   H81   S    
C46   C53   A    
C41   O36   S    
C136  N8    S    
C5    C15   S    
C47   H26   S    
C92   H107  S    
C57   O45   A    
C47   O41   S    
C27   H70   S    
C94   O18   A    
C22   C23   A    
C106  O23   A    
C89   O25   S    
C42   O37   S    
H105  N7    S    
C49   H31   S    
H128  N11   S    
Cr2   O13   S    
C29   H76   S    
C32   H84   S    
C59   C120  S    
C26   O20   S    
C30   H78   S    
C8    H50   S    
C138  H43   S    
C3    C141  A    
C127  C134  A    
C128  N6    S    
C128  C129  A    
C48   H30   S    
Cr4   O6    S    
C123  C124  A    
C85   C86   A    
C46   H60   S    
C105  C107  A    
C26   H65   S    
C42   H6    S    
C76   C78   A    
C43   O38   S    
C109  C111  A    
C110  C121  A    
C118  O34   A    
Cr5   O8    S    
C125  H47   S    
C63   H44   S    
C126  H42   S    
C33   H90   S    
C59   O8    A    
C107  C108  A    
C29   O24   S    
C9    C10   A    
C114  C119  A    
Cr2   O19   S    
H117  N9    S    
C14   C55   A    
C113  H37   S    
C93   C95   A    
C103  O30   S    
C34   H93   S    
C36   H97   S    
C131  H45   S    
C84   C90   A    
C72   C75   A    
C38   H110  S    
C81   C83   A    
C82   O16   A    
C92   C97   A    
C13   C66   S    
H62   N1    S    
C77   C88   A    
C91   C92   A    
C109  O29   S    
C54   O46   A    
C13   C99   A    
C82   O1    A    
C115  H39   S    
C129  C139  S    
Cr6   O2    S    
C65   N4    S    
C16   N11   S    
C113  C117  A    
C31   O26   S    
Cr5   O11   S    
C115  C119  A    
C49   H33   S    
C121  C132  A    
C3    C4    A    
C93   C97   A    
C7    C141  A    
C53   C94   S    
C108  C117  S    
C25   C66   A    
C62   H49   S    
C43   H9    S    
C124  C134  S    
C33   H92   S    
C22   C61   S    
Cr5   O47   S    
C58   O7    A    
C3    O33   S    
C51   O39   S    
C36   O30   S    
C14   H54   S    
C100  C101  A    
C102  C103  A    
C130  C142  A    
C10   C11   A    
C63   C64   A    
C56   O2    A    
Cr1   O4    S    
C70   C75   S    
C36   H99   S    
C28   O22   S    
Cr2   O44   S    
C88   N2    S    
C34   O29   S    
C47   H27   S    
H23   N4    S    
Cr3   O15   S    
C48   H28   S    
C24   C52   A    
C101  C102  A    
C73   C74   A    
C102  C112  S    
C14   C142  A    
C55   C68   S    
C135  C136  A    
H111  N8    S    
C120  C126  A    
C37   H102  S    
C118  O17   A    
C76   C83   A    
C18   C19   A    
C1    C119  S    
C95   O21   S    
C127  O31   S    
C111  C112  A    
C16   C17   A    
C65   C67   A    
C2    C132  A    
C27   O21   S    
C22   C88   A    
C101  H35   S    
H64   N1    S    
Cr6   O9    S    
C137  H48   S    
C35   H41   S    
C70   O14   A    
Cr3   O34   S    
C44   H14   S    
C25   H57   S    
C91   O26   S    
C60   H96   S    
C67   C68   A    
C84   C85   A    
C104  H13   S    
C17   N12   S    
C86   C87   A    
Cr4   O11   S    
C19   N10   S    
C77   O41   S    
C21   C118  S    
C7    N9    S    
C52   C121  S    
C106  C140  S    
C12   C15   A    
C50   C51   A    
C47   H25   S    
C86   C96   S    
C27   H69   S    
C28   H71   S    
C61   O5    A    
C94   O19   A    
C45   H19   S    
C133  C134  A    
C82   C97   S    
C127  C128  A    
C113  C114  A    
Cr2   O14   S    
C29   H75   S    
C30   H79   S    
C39   H114  S    
C37   H104  S    
C114  H38   S    
C26   H66   S    
C64   C65   A    
Cr1   O17   S    
C42   H7    S    
C73   H34   S    
C39   O33   S    
C71   H1    S    
Cr5   O7    S    
C78   O20   S    
C57   C98   S    
C37   O31   S    
C38   O32   S    
C138  C139  A    
C48   O42   S    
Cr6   O11   S    
C103  C104  A    
C64   C74   S    
C35   C60   A    
C123  N7    S    
C44   H16   S    
C89   C90   A    
C45   H17   S    
C41   H126  S    
C115  C116  A    
H20   N3    S    
C32   H87   S    
C9    O35   S    
C132  H58   S    
C105  H24   S    
C34   H94   S    
C36   H98   S    
C95   C96   A    
C29   H77   S    
H3    N12   S    
C84   O22   S    
C40   H121  S    
C62   C63   A    
Cr4   O45   S    
H116  N9    S    
C67   O43   S    
C31   H82   S    
C116  C117  A    
C54   O47   A    
C11   H53   S    
C69   C71   A    
C2    C13   A    
C59   O9    A    
C107  O28   S    
C81   O27   S    
C8    C9    A    
H89   N5    S    
C57   O3    A    
C49   H32   S    
H106  N7    S    
C1    O13   A    
C48   H29   S    
Cr4   O5    S    
C120  C122  A    
Cr1   O44   S    
C35   C55   A    
C42   H5    S    
C79   O24   S    
Cr1   O18   S    
C60   C130  A    
C2    N3    S    
C78   C79   A    
C28   H73   S    
C32   O27   S    
C1    O4    A    
C6    O37   S    
C33   H91   S    
C72   H52   S    
Cr3   O23   S    
C12   O36   S    
C54   C76   S    
C44   H15   S    
C69   H61   S    
C110  O40   S    
C38   H109  S    
C45   H18   S    
C40   H123  S    
C61   O10   A    
H120  N10   S    
H88   N5    S    
C80   C81   A    
C131  C133  A    
C40   O35   S    
C11   C12   A    
C49   O43   S    
C8    C15   A    
C137  C138  A    
C98   C100  A    
C50   O42   S    
C39   H115  S    
C71   C75   A    
C23   O38   S    
C125  C126  A    
C98   C104  A    
C111  H36   S    
C23   C25   A    
C80   C90   S    
C56   C130  S    
C79   C80   A    
H11   N2    S    
Cr6   O3    S    
C122  C123  A    
C106  O12   A    
C83   H63   S    
C124  C125  A    
C129  C131  A    
