data_mof_unit_43454.cif
_audit_creation_date              2012-12-11T14:27:45-0500
_audit_creation_method            fapswitch 2.2
_symmetry_space_group_name_H-M    P1
_symmetry_Int_Tables_number       1
_space_group_crystal_system       triclinic
_cell_length_a                    6.976618
_cell_length_b                    14.786633
_cell_length_c                    16.127348
_cell_angle_alpha                 90.994289
_cell_angle_beta                  90.23598
_cell_angle_gamma                 89.55831
_cell_volume                      1663.39520271

loop_
_atom_site_label
_atom_site_type_symbol
_atom_type_description
_atom_site_fract_x
_atom_site_fract_y
_atom_site_fract_z
_atom_type_partial_charge
O1    O     O_R   0.494510 0.415970 0.413200 -0.535373
O2    O     O_R   0.823800 0.407430 0.586200 -0.495674
O3    O     O_R   0.994130 0.584030 0.586800 -0.530855
C1    C     C_R   0.655215 0.383551 0.612060 0.807488
O4    O     O_R   0.824220 0.405090 0.413820 -0.490309
O5    O     O_R   0.994560 0.581670 0.413190 -0.515573
C2    C     C_R   0.656256 0.381244 0.386649 0.805521
O6    O     O_R   0.494090 0.418330 0.586810 -0.536936
O7    O     O_3   0.660810 0.557940 0.500000 -0.373114
V1    V     V_3+5 0.935650 0.489250 0.500000 1.853767
O8    O     O_R   0.324270 0.592570 0.413800 -0.532154
C3    C     C_R   0.154186 0.611837 0.383562 0.800072
O9    O     O_R   0.323850 0.594910 0.586180 -0.542382
C4    C     C_R   0.155068 0.615394 0.615784 0.781648
V2    V     V_3+5 0.435660 0.510750 0.500000 1.732829
O10   O     O_3   0.160630 0.442060 0.500000 -0.342217
C5    C     C_3   0.004940 0.680432 0.759903 0.318379
C6    C     C_3   0.169550 0.708042 0.818784 0.328211
C7    C     C_3   0.119247 0.808499 0.807383 -0.308088
C8    C     C_3   0.956679 0.781087 0.748161 0.394140
C9    C     C_3   0.092975 0.784309 0.673462 -0.306428
C10   C     C_3   0.256613 0.812503 0.733151 -0.060451
C11   C     C_3   0.309420 0.710651 0.745031 -0.024889
C12   C     C_3   0.143654 0.683592 0.686067 -0.274787
H1    H     H_    0.061227 0.816079 0.613016 0.163071
H2    H     H_    0.345280 0.872643 0.721298 0.234342
H3    H     H_    0.452972 0.679187 0.745623 0.264591
C13   C     C_2   0.990128 0.692238 0.263831 0.481909
C14   C     C_2   0.141664 0.680241 0.316704 -0.407593
H4    H     H_    0.262808 0.725529 0.313176 0.125993
C15   C     C_2   0.978801 0.769135 0.205260 -0.178603
C16   C     C_2   0.130885 0.808564 0.170748 -0.310838
H5    H     H_    0.836484 0.790361 0.185731 0.187104
H6    H     H_    0.274872 0.786505 0.186770 0.158814
C17   C     C_2   0.727691 0.181089 0.757746 -0.366832
C18   C     C_2   0.622691 0.188119 0.827762 0.186507
H7    H     H_    0.790858 0.115829 0.741491 0.195128
C19   C     C_2   0.778345 0.256738 0.703205 0.435792
C20   C     C_2   0.637443 0.310388 0.672902 -0.234973
H8    H     H_    0.491443 0.295587 0.690779 0.209128
C21   C     C_2   0.755807 0.185028 0.227317 -0.355385
C22   C     C_2   0.617392 0.184468 0.169001 0.528028
H9    H     H_    0.856669 0.128715 0.227700 0.111153
C23   C     C_2   0.791656 0.260039 0.287954 0.482645
C24   C     C_2   0.643741 0.307913 0.322715 -0.304378
H10   H     H_    0.498731 0.289420 0.305691 0.223658
O11   O     O_R   0.771000 0.074870 0.906030 -0.550740
O12   O     O_R   0.440710 0.088040 0.078970 -0.519960
O13   O     O_R   0.270540 0.911420 0.079570 -0.549041
C25   C     C_R   0.609070 0.110836 0.106481 0.637827
O14   O     O_R   0.441280 0.085700 0.906600 -0.533321
O15   O     O_R   0.271110 0.909060 0.905960 -0.520423
C26   C     C_R   0.609905 0.108942 0.880877 0.747268
O16   O     O_R   0.770430 0.077230 0.079640 -0.570892
O17   O     O_3   0.604340 0.935220 0.992820 -0.346776
V3    V     V_3+5 0.329430 0.003850 0.992770 1.649997
O18   O     O_R   0.941400 0.898110 0.906530 -0.500736
C27   C     C_R   0.109866 0.877528 0.877074 0.844831
O19   O     O_R   0.940830 0.900450 0.078910 -0.548406
C28   C     C_R   0.111257 0.878622 0.106625 0.772563
V4    V     V_3+5 0.829450 0.982250 0.992700 1.636172
O20   O     O_3   0.104410 0.051000 0.992740 -0.387128
S1    S     S_3+6 0.225549 0.658969 0.916397 0.114722
O21   O     O_2   0.390415 0.708780 0.955696 -0.292020
O22   O     O_2   0.053923 0.666102 0.972184 -0.288908
O23   O     O_3   0.286104 0.549628 0.901726 -0.422090
H11   H     H_    0.317637 0.527336 0.957753 0.406836
S2    S     S_3+6 0.545949 0.293068 0.872080 0.071007
O24   O     O_2   0.359137 0.322084 0.834092 -0.262763
O25   O     O_2   0.517705 0.283575 0.963876 -0.293081
O26   O     O_3   0.710283 0.373182 0.856059 -0.442626
H12   H     H_    0.829176 0.349914 0.882164 0.376852
S3    S     S_3+6 0.021292 0.261285 0.671943 0.065145
O27   O     O_2   0.033043 0.245198 0.579945 -0.295006
O28   O     O_2   0.103683 0.352421 0.693113 -0.276052
O29   O     O_3   0.151388 0.180778 0.719291 -0.491188
H13   H     H_    0.131484 0.191725 0.779404 0.348762
F1    F     F_    0.490803 0.254352 0.162208 -0.580493
S4    S     S_3+6 0.036681 0.275172 0.315116 0.061713
O30   O     O_2   0.098176 0.369634 0.295871 -0.264133
O31   O     O_2   0.065380 0.259105 0.406058 -0.330737
O32   O     O_3   0.175494 0.202079 0.260760 -0.478123
H14   H     H_    0.184825 0.147272 0.295050 0.321541
S5    S     S_3+6 0.844540 0.590386 0.780353 0.117019
O33   O     O_2   0.712313 0.575142 0.707892 -0.346871
O34   O     O_2   0.960521 0.506011 0.794329 -0.260495
O35   O     O_3   0.716254 0.616346 0.865555 -0.421413
H15   H     H_    0.681936 0.557466 0.889475 0.425005
S6    S     S_3+6 0.734187 0.836100 0.741154 -0.021579
O36   O     O_2   0.621511 0.816688 0.817834 -0.300438
O37   O     O_2   0.762139 0.936376 0.734913 -0.374737
O38   O     O_3   0.625346 0.796542 0.654751 -0.528149
H16   H     H_    0.691124 0.826139 0.608304 0.334807
S7    S     S_3+6 0.789524 0.619276 0.259722 0.033127
O39   O     O_2   0.854690 0.522257 0.260101 -0.291501
O40   O     O_2   0.664760 0.638784 0.333601 -0.368713
O41   O     O_3   0.661381 0.637165 0.172818 -0.472985
H17   H     H_    0.541978 0.602345 0.179907 0.384246

loop_
_geom_bond_atom_site_label_1
_geom_bond_atom_site_label_2
_ccdc_geom_bond_type
O35   H15   S    
S1    O22   D    
C3    C14   S    
S3    O28   D    
C21   C22   D    
C7    C8    S    
S5    O35   S    
C1    O6    A    
O41   H17   S    
C24   H10   S    
C25   O16   A    
O13   C28   A    
C2    C24   S    
C13   C14   D    
C17   H7    S    
S5    O34   D    
C6    C7    S    
O5    C3    A    
C19   C20   D    
C6    S1    S    
V2    O10   S    
C5    C8    S    
C13   S7    S    
O14   V3    S    
S3    O27   D    
C4    C12   S    
C18   C26   S    
O8    V2    S    
C17   C18   D    
S2    O24   D    
C11   C12   S    
C15   H5    S    
O1    V2    S    
C11   H3    S    
S6    O37   D    
O7    V1    S    
O11   C26   A    
O12   C25   A    
O23   H11   S    
S1    O23   S    
O19   C28   A    
O9    C4    A    
C21   H9    S    
V4    O20   S    
C23   S4    S    
C7    C27   S    
O19   V4    S    
C5    C12   S    
C6    C11   S    
C7    C10   S    
S5    O33   D    
C20   H8    S    
O4    C2    A    
S7    O41   S    
S1    O21   D    
O14   C26   A    
C16   H6    S    
O2    C1    A    
O5    V1    S    
C14   H4    S    
C15   C16   D    
C1    C20   S    
C17   C19   S    
O17   V3    S    
C5    C6    S    
O29   H13   S    
S6    O38   S    
S7    O40   D    
O3    C4    A    
O15   C27   A    
C22   C25   S    
C22   F1    S    
O6    V2    S    
O9    V2    S    
C21   C23   S    
V3    O20   S    
C16   C28   S    
O2    V1    S    
C23   C24   D    
S4    O31   D    
O12   V3    S    
C9    H1    S    
O1    C2    A    
C13   C15   S    
O11   V4    S    
S4    O32   S    
O8    C3    A    
C18   S2    S    
O18   V4    S    
O16   V4    S    
O13   V3    S    
C8    S6    S    
C5    S5    S    
O7    V2    S    
O4    V1    S    
O3    V1    S    
V1    O10   S    
O18   C27   A    
S2    O26   S    
O17   V4    S    
O38   H16   S    
S3    O29   S    
S7    O39   D    
S4    O30   D    
O26   H12   S    
C8    C9    S    
S2    O25   D    
O32   H14   S    
C10   H2    S    
C9    C12   S    
C10   C11   S    
S6    O36   D    
C9    C10   S    
O15   V3    S    
C19   S3    S    
