data_mof_unit_31361.cif
_audit_creation_date              2012-12-10T16:57:43-0500
_audit_creation_method            fapswitch 2.2
_symmetry_space_group_name_H-M    P1
_symmetry_Int_Tables_number       1
_space_group_crystal_system       triclinic
_cell_length_a                    7.731716
_cell_length_b                    8.578712
_cell_length_c                    19.119614
_cell_angle_alpha                 90.876656
_cell_angle_beta                  85.966706
_cell_angle_gamma                 93.651141
_cell_volume                      1262.38586538

loop_
_atom_site_label
_atom_site_type_symbol
_atom_type_description
_atom_site_fract_x
_atom_site_fract_y
_atom_site_fract_z
_atom_type_partial_charge
C1    C     C_R   0.545928 0.794900 0.498180 0.964156
C2    C     C_R   0.454071 0.205100 0.501820 0.970273
C3    C     C_2   0.570220 0.958265 0.497145 -0.347832
C4    C     C_2   0.429773 0.041723 0.502843 -0.348425
C5    C     C_R   0.503002 0.502389 0.634767 0.920601
C6    C     C_R   0.497904 0.503887 0.365249 0.915152
C7    C     C_R   0.372742 0.600849 0.746055 -0.226425
C8    C     C_R   0.645534 0.483473 0.247712 -0.224526
C9    C     C_R   0.374802 0.635578 0.816958 0.307909
C10   C     C_R   0.657287 0.505955 0.175794 0.313354
C11   C     C_R   0.517331 0.596637 0.853246 -0.046538
C12   C     C_R   0.517343 0.567106 0.144480 -0.051991
C13   C     C_R   0.657771 0.527347 0.817739 -0.180471
C14   C     C_R   0.367980 0.603342 0.185463 -0.183679
C15   C     C_R   0.655807 0.491348 0.746700 0.276737
C16   C     C_R   0.355774 0.581688 0.257380 0.282963
C17   C     C_R   0.511065 0.527697 0.710253 -0.166215
C18   C     C_R   0.496567 0.521081 0.289298 -0.173388
C19   C     C_R   0.517123 0.585880 0.069141 0.330566
C20   C     C_R   0.513723 0.608360 0.929026 0.337389
H1    H     H_    0.262528 0.633590 0.718807 0.212609
H2    H     H_    0.754051 0.435550 0.271031 0.217604
H3    H     H_    0.766362 0.494671 0.846054 0.213159
H4    H     H_    0.260016 0.650414 0.161331 0.214560
H5    H     H_    0.702845 0.009343 0.491725 0.188060
H6    H     H_    0.297148 0.990641 0.508259 0.188569
H7    H     H_    0.014107 0.382694 0.447491 0.207992
H8    H     H_    0.985894 0.617301 0.552513 0.207138
N1    N     N_R   0.661150 0.647641 0.961288 -0.115609
N2    N     N_R   0.369364 0.548985 0.036890 -0.116770
N3    N     N_R   0.662361 0.637814 0.030486 -0.088279
N4    N     N_R   0.368044 0.559066 0.967876 -0.089045
N5    N     N_2   0.950330 0.457950 0.481240 -0.143020
N6    N     N_2   0.049670 0.542050 0.518760 -0.142726
O1    O     O_R   0.389250 0.738570 0.504600 -0.611429
O2    O     O_R   0.610750 0.261430 0.495400 -0.611108
O3    O     O_R   0.678400 0.711620 0.492580 -0.624202
O4    O     O_R   0.321600 0.288380 0.507420 -0.623663
O5    O     O_R   0.355380 0.513500 0.607880 -0.610661
O6    O     O_R   0.644620 0.486500 0.392120 -0.610058
O7    O     O_R   0.644530 0.486550 0.595850 -0.589694
O8    O     O_R   0.355470 0.513450 0.404150 -0.586967
Zn1   Zn    Zn3+2 0.306930 0.517990 0.508030 1.006101
Zn2   Zn    Zn3+2 0.693070 0.482010 0.491970 1.005942
Br1   Br    Br    0.182291 0.741008 0.860427 -0.414173
Br2   Br    Br    0.862957 0.441255 0.123792 -0.417350
Br3   Br    Br    0.850589 0.385340 0.705403 -0.460980
Br4   Br    Br    0.144651 0.643993 0.306490 -0.475614

loop_
_geom_bond_atom_site_label_1
_geom_bond_atom_site_label_2
_ccdc_geom_bond_type
C10   Br2   S    
C4    H6    S    
C9    Br1   S    
C1    O3    A    
C11   C13   A    
C2    O4    A    
C8    H2    S    
C15   Br3   S    
C19   N3    A    
C16   Br4   S    
O3    Zn2   S    
C5    O5    A    
N5    N6    D    
H8    N6    S    
O4    Zn1   S    
N1    N3    A    
C7    H1    S    
H7    N5    S    
N2    N4    A    
C9    C11   A    
C13   H3    S    
C10   C12   A    
C2    C4    S    
C12   C19   S    
C16   C18   A    
C12   C14   A    
C14   C16   A    
C20   N1    A    
C13   C15   A    
C6    O8    A    
C6    C18   S    
O7    Zn2   S    
C6    O6    A    
C11   C20   S    
O2    Zn2   S    
C5    C17   S    
O8    Zn1   S    
N5    Zn2   S    
C14   H4    S    
C3    C4    D    
O6    Zn2   S    
C3    H5    S    
O1    Zn1   S    
C1    O1    A    
C8    C10   A    
C20   N4    A    
C2    O2    A    
C7    C9    A    
C5    O7    A    
O5    Zn1   S    
C1    C3    S    
C15   C17   A    
C19   N2    A    
C8    C18   A    
N6    Zn1   S    
C7    C17   A    
