data_mof_unit_24219.cif
_audit_creation_date              2012-12-11T14:28:12-0500
_audit_creation_method            fapswitch 2.2
_symmetry_space_group_name_H-M    P1
_symmetry_Int_Tables_number       1
_space_group_crystal_system       triclinic
_cell_length_a                    10.964836
_cell_length_b                    19.101543
_cell_length_c                    18.481775
_cell_angle_alpha                 90.0
_cell_angle_beta                  90.79941
_cell_angle_gamma                 90.000012
_cell_volume                      3870.54389149

loop_
_atom_site_label
_atom_site_type_symbol
_atom_type_description
_atom_site_fract_x
_atom_site_fract_y
_atom_site_fract_z
_atom_type_partial_charge
C1    C     C_R   0.318933 0.969443 0.645699 0.583146
C2    C     C_R   0.321733 0.971066 0.852747 0.575828
C3    C     C_R   0.321733 0.028934 0.352747 0.575827
C4    C     C_R   0.318933 0.030557 0.145699 0.583147
C5    C     C_R   0.818933 0.469443 0.645699 0.583146
C6    C     C_R   0.821733 0.471066 0.852747 0.575828
C7    C     C_R   0.821733 0.528934 0.352747 0.575827
C8    C     C_R   0.818933 0.530557 0.145699 0.583147
C9    C     C_3   0.072025 0.681409 0.480682 -0.095658
C10   C     C_3   0.190919 0.733889 0.036726 -0.152056
C11   C     C_3   0.190919 0.266109 0.536726 -0.152056
C12   C     C_3   0.072030 0.318591 0.980681 -0.095659
C13   C     C_3   0.572029 0.181409 0.480681 -0.095659
C14   C     C_3   0.690919 0.233889 0.036726 -0.152056
C15   C     C_3   0.690918 0.766111 0.536725 -0.152055
C16   C     C_3   0.572030 0.818591 0.980681 -0.095659
C17   C     C_3   0.067758 0.744940 0.430205 0.055239
C18   C     C_3   0.066714 0.744735 0.070176 0.057187
C19   C     C_3   0.066713 0.255265 0.570176 0.057187
C20   C     C_3   0.067759 0.255059 0.930204 0.055240
C21   C     C_3   0.567759 0.244941 0.430204 0.055240
C22   C     C_3   0.566713 0.244735 0.070176 0.057187
C23   C     C_3   0.566713 0.755265 0.570176 0.057187
C24   C     C_3   0.567759 0.755059 0.930204 0.055240
C25   C     C_R   0.333616 0.989256 0.421657 -0.006245
C26   C     C_R   0.322318 0.996908 0.073141 -0.013901
C27   C     C_R   0.322318 0.003092 0.573141 -0.013901
C28   C     C_R   0.333616 0.010744 0.921657 -0.006245
C29   C     C_R   0.833616 0.489256 0.421657 -0.006245
C30   C     C_R   0.822318 0.496908 0.073141 -0.013901
C31   C     C_R   0.822318 0.503092 0.573141 -0.013900
C32   C     C_R   0.833616 0.510744 0.921657 -0.006245
C33   C     C_R   0.559744 0.986792 0.432326 0.225355
C34   C     C_R   0.541910 0.968274 0.076402 0.244319
C35   C     C_R   0.541910 0.031726 0.576402 0.244319
C36   C     C_R   0.559743 0.013208 0.932326 0.225356
C37   C     C_R   0.059743 0.486791 0.432326 0.225358
C38   C     C_R   0.041910 0.468274 0.076402 0.244319
C39   C     C_R   0.041910 0.531726 0.576402 0.244319
C40   C     C_R   0.059743 0.513208 0.932326 0.225356
C41   C     C_R   0.663963 0.004314 0.472510 -0.171142
C42   C     C_R   0.654699 0.971369 0.043193 -0.142182
C43   C     C_R   0.654699 0.028631 0.543193 -0.142182
C44   C     C_R   0.663962 0.995687 0.972510 -0.171142
C45   C     C_R   0.163962 0.504314 0.472510 -0.171140
C46   C     C_R   0.154699 0.471369 0.043193 -0.142182
C47   C     C_R   0.154699 0.528631 0.543193 -0.142182
C48   C     C_R   0.163962 0.495686 0.972510 -0.171142
C49   C     C_R   0.435644 0.009579 0.538445 -0.042627
C50   C     C_R   0.442980 0.005301 0.963212 -0.039471
C51   C     C_R   0.442980 0.994699 0.463212 -0.039472
C52   C     C_R   0.435644 0.990421 0.038445 -0.042627
C53   C     C_R   0.935644 0.509578 0.538445 -0.042628
C54   C     C_R   0.942980 0.505301 0.963212 -0.039471
C55   C     C_R   0.942980 0.494699 0.463211 -0.039473
C56   C     C_R   0.935644 0.490421 0.038445 -0.042627
C57   C     C_R   0.214432 0.998561 0.530015 -0.012574
C58   C     C_R   0.223343 0.021816 0.957477 -0.008896
C59   C     C_R   0.223343 0.978185 0.457478 -0.008897
C60   C     C_R   0.214432 0.001440 0.030015 -0.012571
C61   C     C_R   0.714432 0.498560 0.530015 -0.012572
C62   C     C_R   0.723343 0.521816 0.957477 -0.008896
C63   C     C_R   0.723343 0.478184 0.457477 -0.008896
C64   C     C_R   0.714432 0.501440 0.030015 -0.012571
C65   C     C_R   0.096815 0.010220 0.557942 -0.089977
C66   C     C_R   0.118198 0.045739 0.919922 -0.069368
C67   C     C_R   0.118198 0.954261 0.419922 -0.069368
C68   C     C_R   0.096815 0.989780 0.057942 -0.089979
C69   C     C_R   0.596815 0.510219 0.557942 -0.089979
C70   C     C_R   0.618198 0.545739 0.919922 -0.069368
C71   C     C_R   0.618198 0.454260 0.419922 -0.069368
C72   C     C_R   0.596815 0.489780 0.057942 -0.089979
C73   C     C_R   0.992947 0.990496 0.518713 -0.145244
C74   C     C_R   0.003691 0.039233 0.950383 -0.123452
C75   C     C_R   0.003691 0.960767 0.450383 -0.123452
C76   C     C_R   0.992947 0.009504 0.018712 -0.145246
C77   C     C_R   0.492947 0.490496 0.518712 -0.145246
C78   C     C_R   0.503691 0.539233 0.950383 -0.123452
C79   C     C_R   0.503691 0.460767 0.450383 -0.123452
C80   C     C_R   0.492947 0.509504 0.018712 -0.145246
C81   C     C_R   0.132132 0.757316 0.644210 0.585932
C82   C     C_R   0.137648 0.758817 0.857588 0.579069
C83   C     C_R   0.137648 0.241183 0.357588 0.579070
C84   C     C_R   0.132132 0.242684 0.144210 0.585932
C85   C     C_R   0.632132 0.257316 0.644210 0.585932
C86   C     C_R   0.637648 0.258817 0.857588 0.579069
C87   C     C_R   0.637648 0.741183 0.357588 0.579069
C88   C     C_R   0.632131 0.742684 0.144210 0.585931
C89   C     C_R   0.541406 0.769469 0.644825 0.538179
C90   C     C_R   0.543352 0.768968 0.854874 0.533439
C91   C     C_R   0.543351 0.231032 0.354874 0.533438
C92   C     C_R   0.541406 0.230531 0.144825 0.538179
C93   C     C_R   0.041405 0.269469 0.644825 0.538179
C94   C     C_R   0.043352 0.268968 0.854874 0.533439
C95   C     C_R   0.043351 0.731032 0.354874 0.533439
C96   C     C_R   0.041406 0.730531 0.144825 0.538179
C97   C     C_3   0.180193 0.776948 0.465984 -0.157108
C98   C     C_3   0.042584 0.810892 0.025499 -0.116733
C99   C     C_3   0.042580 0.189109 0.525498 -0.116733
C100  C     C_3   0.180192 0.223049 0.965984 -0.157108
C101  C     C_3   0.680192 0.276950 0.465984 -0.157107
C102  C     C_3   0.542584 0.310892 0.025499 -0.116733
C103  C     C_3   0.542585 0.689108 0.525499 -0.116732
C104  C     C_3   0.680192 0.723049 0.965984 -0.157108
C105  C     C_3   0.185704 0.713184 0.517035 -0.098137
C106  C     C_3   0.168405 0.800230 0.990524 -0.120302
C107  C     C_3   0.168402 0.199769 0.490524 -0.120303
C108  C     C_3   0.185707 0.286814 0.017035 -0.098139
C109  C     C_3   0.685707 0.213185 0.517035 -0.098138
C110  C     C_3   0.668405 0.300230 0.990524 -0.120302
C111  C     C_3   0.668406 0.699771 0.490524 -0.120302
C112  C     C_3   0.685707 0.786814 0.017035 -0.098139
C113  C     C_3   0.099743 0.751240 0.568887 0.070140
C114  C     C_3   0.106269 0.753798 0.932888 0.065027
C115  C     C_3   0.106270 0.246202 0.432888 0.065027
C116  C     C_3   0.099742 0.248760 0.068887 0.070141
C117  C     C_3   0.599743 0.251240 0.568887 0.070141
C118  C     C_3   0.606269 0.253798 0.932888 0.065027
C119  C     C_3   0.606269 0.746202 0.432888 0.065027
C120  C     C_3   0.599742 0.748760 0.068887 0.070141
C121  C     C_3   0.095136 0.814971 0.519016 -0.129306
C122  C     C_3   0.981742 0.765080 0.966115 -0.134460
C123  C     C_3   0.981741 0.234922 0.466114 -0.134460
C124  C     C_3   0.095131 0.185028 0.019016 -0.129306
C125  C     C_3   0.595132 0.314972 0.519016 -0.129306
C126  C     C_3   0.481742 0.265080 0.966115 -0.134460
C127  C     C_3   0.481742 0.734919 0.466115 -0.134460
C128  C     C_3   0.595131 0.685028 0.019016 -0.129306
C129  C     C_3   0.981306 0.783010 0.481676 -0.126691
C130  C     C_3   0.004297 0.698737 0.012338 -0.097839
C131  C     C_3   0.004300 0.301264 0.512338 -0.097838
C132  C     C_3   0.981304 0.216992 0.981676 -0.126692
C133  C     C_3   0.481304 0.283009 0.481676 -0.126690
C134  C     C_3   0.504297 0.198737 0.012338 -0.097839
C135  C     C_3   0.504296 0.801262 0.512338 -0.097840
C136  C     C_3   0.481304 0.716992 0.981676 -0.126692
C137  C     C_3   0.987176 0.719315 0.533278 -0.135366
C138  C     C_3   0.129881 0.688021 0.978190 -0.094851
C139  C     C_3   0.129885 0.311978 0.478191 -0.094851
C140  C     C_3   0.987178 0.280688 0.033277 -0.135365
C141  C     C_3   0.487177 0.219312 0.533277 -0.135365
C142  C     C_3   0.629881 0.188021 0.978190 -0.094851
C143  C     C_3   0.629880 0.811979 0.478190 -0.094852
C144  C     C_3   0.487178 0.780688 0.033277 -0.135365
Cr1   Cr    Cr6+3 0.488160 0.884660 0.750000 1.111993
Cr2   Cr    Cr6+3 0.488160 0.115340 0.250000 1.111993
Cr3   Cr    Cr6+3 0.988160 0.384660 0.750000 1.111992
Cr4   Cr    Cr6+3 0.988160 0.615340 0.250000 1.111992
Cr5   Cr    Cr6+3 0.173480 0.883120 0.750000 1.025395
Cr6   Cr    Cr6+3 0.173480 0.116880 0.250000 1.025394
Cr7   Cr    Cr6+3 0.673480 0.383120 0.750000 1.025394
Cr8   Cr    Cr6+3 0.673480 0.616880 0.250000 1.025394
Cr9   Cr    Cr6+3 0.333410 0.727260 0.750000 1.064817
Cr10  Cr    Cr6+3 0.333410 0.272740 0.250000 1.064817
Cr11  Cr    Cr6+3 0.833410 0.227260 0.750000 1.064817
Cr12  Cr    Cr6+3 0.833410 0.772740 0.250000 1.064817
H1    H     H_    0.267634 0.682607 0.533263 0.132547
H2    H     H_    0.235754 0.842058 0.978958 0.120989
H3    H     H_    0.235748 0.157939 0.478958 0.120991
H4    H     H_    0.267639 0.317389 0.033263 0.132547
H5    H     H_    0.767638 0.182610 0.533262 0.132546
H6    H     H_    0.735754 0.342058 0.978958 0.120990
H7    H     H_    0.735754 0.657942 0.478958 0.120990
H8    H     H_    0.767639 0.817389 0.033263 0.132547
H9    H     H_    0.905052 0.995395 0.543018 0.105630
H10   H     H_    0.924207 0.057680 0.920877 0.124370
H11   H     H_    0.924208 0.942320 0.420878 0.124369
H12   H     H_    0.905052 0.004605 0.043017 0.105630
H13   H     H_    0.405051 0.495394 0.543017 0.105630
H14   H     H_    0.424208 0.557680 0.920877 0.124370
H15   H     H_    0.424207 0.442320 0.420877 0.124370
H16   H     H_    0.405052 0.504605 0.043017 0.105630
H17   H     H_    0.253875 0.803538 0.436070 0.114025
H18   H     H_    0.003503 0.859537 0.047876 0.118927
H19   H     H_    0.003496 0.140464 0.547875 0.118927
H20   H     H_    0.253873 0.196457 0.936072 0.114025
H21   H     H_    0.753873 0.303542 0.436071 0.114025
H22   H     H_    0.503503 0.359537 0.047876 0.118927
H23   H     H_    0.503505 0.640463 0.547876 0.118927
H24   H     H_    0.753873 0.696457 0.936072 0.114025
H25   H     H_    0.107533 0.867791 0.541640 0.164167
H26   H     H_    0.901994 0.780468 0.932364 0.118252
H27   H     H_    0.901994 0.219535 0.432363 0.118252
H28   H     H_    0.107523 0.132208 0.041641 0.164168
H29   H     H_    0.607526 0.367792 0.541641 0.164168
H30   H     H_    0.401994 0.280468 0.932364 0.118252
H31   H     H_    0.401995 0.719530 0.432365 0.118252
H32   H     H_    0.607523 0.632208 0.041641 0.164168
H33   H     H_    0.899792 0.813111 0.463943 0.131858
H34   H     H_    0.936469 0.657035 0.023434 0.119375
H35   H     H_    0.936475 0.342968 0.523434 0.119376
H36   H     H_    0.899788 0.186892 0.963943 0.131858
H37   H     H_    0.399788 0.313109 0.463944 0.131857
H38   H     H_    0.436470 0.157035 0.023434 0.119375
H39   H     H_    0.436469 0.842965 0.523434 0.119375
H40   H     H_    0.399788 0.686892 0.963943 0.131858
H41   H     H_    0.913439 0.692930 0.563310 0.137600
H42   H     H_    0.170888 0.639032 0.958296 0.166736
H43   H     H_    0.170894 0.360967 0.458296 0.166733
H44   H     H_    0.913441 0.307074 0.063309 0.137601
H45   H     H_    0.413440 0.192926 0.563309 0.137601
H46   H     H_    0.670888 0.139032 0.958296 0.166736
H47   H     H_    0.670886 0.860968 0.458295 0.166737
H48   H     H_    0.413441 0.807074 0.063309 0.137601
H49   H     H_    0.057704 0.627932 0.460321 0.150357
H50   H     H_    0.271307 0.718662 0.070081 0.121747
H51   H     H_    0.271307 0.281334 0.570082 0.121747
H52   H     H_    0.057714 0.372069 0.960319 0.150359
H53   H     H_    0.557711 0.127931 0.460319 0.150358
H54   H     H_    0.771307 0.218662 0.070081 0.121747
H55   H     H_    0.771306 0.781339 0.570081 0.121747
H56   H     H_    0.557714 0.872069 0.960319 0.150359
H57   H     H_    0.751982 0.001620 0.447587 0.139485
H58   H     H_    0.734403 0.952071 0.071796 0.143009
H59   H     H_    0.734403 0.047929 0.571796 0.143008
H60   H     H_    0.751982 0.998381 0.947587 0.139485
H61   H     H_    0.251981 0.501619 0.447586 0.139484
H62   H     H_    0.234403 0.452071 0.071796 0.143009
H63   H     H_    0.234403 0.547929 0.571796 0.143008
H64   H     H_    0.251982 0.498381 0.947587 0.139485
H65   H     H_    0.124761 0.932092 0.366132 0.134589
H66   H     H_    0.084429 0.966025 0.110507 0.141497
H67   H     H_    0.084430 0.033975 0.610507 0.141497
H68   H     H_    0.124761 0.067908 0.866132 0.134588
H69   H     H_    0.624761 0.432091 0.366132 0.134588
H70   H     H_    0.584429 0.466026 0.110507 0.141497
H71   H     H_    0.584429 0.533974 0.610507 0.141497
H72   H     H_    0.624761 0.567909 0.866132 0.134588
O1    O     O_R   0.575450 0.828820 0.667950 -0.509665
O2    O     O_R   0.575450 0.828820 0.832050 -0.512923
O3    O     O_R   0.575450 0.171180 0.332050 -0.512923
O4    O     O_R   0.575450 0.171180 0.167950 -0.509665
O5    O     O_R   0.075450 0.328820 0.667950 -0.509666
O6    O     O_R   0.075450 0.328820 0.832050 -0.512923
O7    O     O_R   0.075450 0.671180 0.332050 -0.512923
O8    O     O_R   0.075450 0.671180 0.167950 -0.509665
O9    O     O_R   0.416860 0.942890 0.674680 -0.438419
O10   O     O_R   0.416860 0.942890 0.825320 -0.438742
O11   O     O_R   0.416860 0.057110 0.325320 -0.438741
O12   O     O_R   0.416860 0.057110 0.174680 -0.438419
O13   O     O_R   0.916860 0.442890 0.674680 -0.438419
O14   O     O_R   0.916860 0.442890 0.825320 -0.438742
O15   O     O_R   0.916860 0.557110 0.325320 -0.438742
O16   O     O_R   0.916860 0.557110 0.174680 -0.438419
O17   O     O_R   0.213790 0.953680 0.668330 -0.542776
O18   O     O_R   0.213790 0.953680 0.831670 -0.527324
O19   O     O_R   0.213790 0.046320 0.331670 -0.527324
O20   O     O_R   0.213790 0.046320 0.168330 -0.542776
O21   O     O_R   0.713790 0.453680 0.668330 -0.542777
O22   O     O_R   0.713790 0.453680 0.831670 -0.527324
O23   O     O_R   0.713790 0.546320 0.331670 -0.527324
O24   O     O_R   0.713790 0.546320 0.168330 -0.542776
O25   O     O_R   0.121360 0.817890 0.672660 -0.521948
O26   O     O_R   0.121360 0.817890 0.827340 -0.509375
O27   O     O_R   0.121360 0.182110 0.327340 -0.509375
O28   O     O_R   0.121360 0.182110 0.172660 -0.521949
O29   O     O_R   0.621360 0.317890 0.672660 -0.521949
O30   O     O_R   0.621360 0.317890 0.827340 -0.509375
O31   O     O_R   0.621360 0.682110 0.327340 -0.509375
O32   O     O_R   0.621360 0.682110 0.172660 -0.521949
O33   O     O_R   0.206850 0.711370 0.665820 -0.471257
O34   O     O_R   0.206850 0.711370 0.834180 -0.474684
O35   O     O_R   0.206850 0.288630 0.334180 -0.474684
O36   O     O_R   0.206850 0.288630 0.165820 -0.471256
O37   O     O_R   0.706850 0.211370 0.665820 -0.471257
O38   O     O_R   0.706850 0.211370 0.834180 -0.474684
O39   O     O_R   0.706850 0.788630 0.334180 -0.474684
O40   O     O_R   0.706850 0.788630 0.165820 -0.471257
O41   O     O_R   0.457710 0.733190 0.672630 -0.522103
O42   O     O_R   0.457710 0.733190 0.827370 -0.519701
O43   O     O_R   0.457710 0.266810 0.327370 -0.519701
O44   O     O_R   0.457710 0.266810 0.172630 -0.522103
O45   O     O_R   0.957710 0.233190 0.672630 -0.522103
O46   O     O_R   0.957710 0.233190 0.827370 -0.519701
O47   O     O_R   0.957710 0.766810 0.327370 -0.519701
O48   O     O_R   0.957710 0.766810 0.172630 -0.522103
O49   O     O_3   0.331690 0.831680 0.750000 -0.290247
O50   O     O_3   0.331690 0.168320 0.250000 -0.290247
O51   O     O_3   0.831690 0.331680 0.750000 -0.290247
O52   O     O_3   0.831690 0.668320 0.250000 -0.290247
Cl1   Cl    Cl    0.581915 0.946846 0.347373 -0.547694
Cl2   Cl    Cl    0.535964 0.924254 0.160225 -0.549780
Cl3   Cl    Cl    0.535964 0.075746 0.660225 -0.549780
Cl4   Cl    Cl    0.581915 0.053155 0.847373 -0.547694
Cl5   Cl    Cl    0.081914 0.446845 0.347373 -0.547693
Cl6   Cl    Cl    0.035964 0.424254 0.160225 -0.549780
Cl7   Cl    Cl    0.035964 0.575746 0.660225 -0.549779
Cl8   Cl    Cl    0.081915 0.553155 0.847373 -0.547694

loop_
_geom_bond_atom_site_label_1
_geom_bond_atom_site_label_2
_ccdc_geom_bond_type
C6    C32   S    
Cr1   O2    S    
C7    C29   S    
C119  C143  S    
C120  C144  S    
C65   H67   S    
C110  C118  S    
C11   H51   S    
C121  H25   S    
C16   C144  S    
C70   H72   S    
C21   C91   S    
C57   C59   A    
C8    O16   A    
C58   C60   A    
C62   C70   A    
C61   C63   A    
C62   C64   A    
Cr10  O35   S    
C144  H48   S    
C23   C103  S    
C49   C51   A    
C34   C42   A    
C84   O28   A    
Cr4   O15   S    
C50   C52   A    
C23   C89   S    
C41   C43   A    
C97   C105  S    
C71   H69   S    
C87   C119  S    
C90   O42   A    
C42   C44   A    
C20   C132  S    
Cr10  O44   S    
C21   C133  S    
C33   Cl1   S    
C77   C79   A    
C112  H8    S    
C46   C48   A    
C115  C123  S    
C6    O22   A    
C27   C57   A    
C37   Cl5   S    
C112  C120  S    
C19   C99   S    
C88   O40   A    
C29   C55   A    
C39   Cl7   S    
C30   C56   A    
C40   Cl8   S    
C100  C124  S    
C68   H66   S    
C83   C115  S    
C41   H57   S    
C104  C128  S    
C16   H56   S    
C12   C20   S    
C13   C21   S    
C85   C117  S    
C82   C114  S    
Cr11  O37   S    
C137  H41   S    
C34   Cl2   S    
C113  C137  S    
C36   C44   A    
C33   C51   A    
C86   O38   A    
C37   C45   A    
C130  C138  S    
C36   C50   A    
C39   C47   A    
C40   C48   A    
C20   C94   S    
C44   H60   S    
C133  C141  S    
Cr1   O49   S    
C24   C90   S    
C136  H40   S    
C28   C58   A    
C98   C106  S    
C140  H44   S    
C121  C129  S    
C33   C41   A    
C111  H7    S    
C1    O17   A    
C10   C18   S    
C76   H12   S    
Cr12  O48   S    
C2    C28   S    
C32   C62   A    
C134  H38   S    
C129  C137  S    
C126  C134  S    
C7    O23   A    
C92   O4    A    
C84   O36   A    
C10   C138  S    
C81   O25   A    
C130  H34   S    
C143  H47   S    
C14   C142  S    
C81   O33   A    
Cr5   O18   S    
C83   O35   A    
C71   C79   A    
C110  H6    S    
C95   O47   A    
Cr6   O20   S    
C74   C76   A    
C105  C113  S    
C124  H28   S    
C78   C80   A    
Cr3   O13   S    
Cr5   O25   S    
C66   C74   A    
C78   H14   S    
C124  C132  S    
C125  H29   S    
C67   H65   S    
C97   C121  S    
C59   C67   A    
C129  H33   S    
C35   C49   A    
C101  C125  S    
Cr5   O49   S    
C35   C43   A    
C132  H36   S    
C24   C136  S    
C135  C143  S    
C84   C116  S    
C9    C137  S    
Cr11  O46   S    
Cr7   O22   S    
Cr2   O3    S    
C100  C108  S    
C13   H53   S    
C103  C127  S    
C73   H9    S    
C104  C112  S    
C1    O9    A    
C91   O3    A    
C93   O45   A    
C127  H31   S    
Cr12  O40   S    
Cr1   O10   S    
C15   C143  S    
C40   C54   A    
C96   O48   A    
C10   C106  S    
C67   C75   A    
C81   C113  S    
C138  H42   S    
Cr8   O24   S    
Cr7   O29   S    
C14   C110  S    
Cr1   O1    S    
C8    O24   A    
C102  C126  S    
C103  C111  S    
C68   C76   A    
Cr4   O7    S    
C85   O29   A    
C14   C22   S    
C10   H50   S    
C72   C80   A    
Cr8   O31   S    
Cr6   O27   S    
C102  H22   S    
C35   Cl3   S    
C114  C138  S    
C38   C46   A    
C99   H19   S    
Cr10  O36   S    
C37   C55   A    
Cr3   O6    S    
C113  C121  S    
C133  H37   S    
Cr4   O16   S    
C22   C92   S    
C90   O2    A    
C25   C59   A    
C85   O37   A    
Cr2   O50   S    
C17   C97   S    
C27   C49   A    
C87   O39   A    
C119  C127  S    
C29   C63   A    
C46   H62   S    
C30   C64   A    
C73   C75   A    
C31   C61   A    
Cr9   O42   S    
C109  C117  S    
C11   C19   S    
C142  H46   S    
C127  C135  S    
Cr12  O52   S    
C128  C136  S    
C92   O44   A    
C101  C109  S    
C45   H61   S    
Cr9   O49   S    
C79   H15   S    
C11   C139  S    
C86   O30   A    
C69   C77   A    
C105  H1    S    
C82   O34   A    
C12   C140  S    
C17   C95   S    
C13   C141  S    
C88   C120  S    
C19   C93   S    
C45   C47   A    
C72   H70   S    
C3    O19   A    
C32   C54   A    
C123  H27   S    
C5    O21   A    
C126  H30   S    
C97   H17   S    
C93   O5    A    
Cr4   O52   S    
C83   O27   A    
C117  C141  S    
C134  C142  S    
C107  H3    S    
C20   C100  S    
C3    C25   S    
C4    O12   A    
C86   C118  S    
C63   C71   A    
C22   C134  S    
C102  C110  S    
C87   O31   A    
Cr10  O43   S    
C74   H10   S    
C16   C112  S    
C12   C108  S    
C48   H64   S    
Cr5   O17   S    
C116  C124  S    
C123  C131  S    
C128  H32   S    
C94   O6    A    
C57   C65   A    
C94   O46   A    
C4    C26   S    
C120  C128  S    
C100  H20   S    
C132  C140  S    
C99   C107  S    
Cr2   O12   S    
C34   C52   A    
C23   C135  S    
C8    C30   S    
C108  C116  S    
C2    O18   A    
C136  C144  S    
C39   C53   A    
C103  H23   S    
Cr11  O38   S    
C101  H21   S    
C88   O32   A    
C135  H39   S    
Cr2   O11   S    
C60   C68   A    
Cr4   O8    S    
C82   O26   A    
C9    H49   S    
C9    C105  S    
C3    O11   A    
C70   C78   A    
C18   C96   S    
Cr11  O45   S    
C43   H59   S    
Cr7   O21   S    
Cr2   O4    S    
C106  C114  S    
C89   O41   A    
C12   H52   S    
C111  C119  S    
C141  H45   S    
C91   O43   A    
C98   H18   S    
C139  H43   S    
C5    C31   S    
C65   C73   A    
Cr7   O51   S    
C4    O20   A    
Cr12  O47   S    
C15   H55   S    
Cr8   O52   S    
C28   C50   A    
C58   C66   A    
Cr1   O9    S    
Cr11  O51   S    
C38   Cl6   S    
C21   C101  S    
C15   C23   S    
C13   C109  S    
C16   C24   S    
C95   O7    A    
C69   H71   S    
C53   C55   A    
C19   C131  S    
Cr6   O19   S    
C54   C56   A    
C14   H54   S    
C17   C129  S    
C15   C111  S    
Cr10  O50   S    
C131  C139  S    
C36   Cl4   S    
C66   H68   S    
C2    O10   A    
Cr3   O14   S    
Cr5   O26   S    
C106  H2    S    
C47   H63   S    
C24   C104  S    
Cr6   O50   S    
C42   H58   S    
C26   C52   A    
Cr8   O32   S    
Cr6   O28   S    
C125  C133  S    
C96   O8    A    
C38   C56   A    
C31   C53   A    
Cr9   O34   S    
C107  C115  S    
C98   C122  S    
Cr3   O5    S    
C9    C17   S    
C11   C107  S    
Cr9   O33   S    
C99   C123  S    
C61   C69   A    
Cr9   O41   S    
C115  C139  S    
C118  C142  S    
Cr3   O51   S    
C108  H4    S    
C131  H35   S    
C118  C126  S    
C25   C51   A    
C22   C102  S    
C5    O13   A    
C109  H5    S    
C104  H24   S    
Cr12  O39   S    
C26   C60   A    
C64   C72   A    
C18   C130  S    
C114  C122  S    
C122  H26   S    
C77   H13   S    
C7    O15   A    
C1    C27   S    
C80   H16   S    
C6    O14   A    
C75   H11   S    
C18   C98   S    
C89   O1    A    
C117  C125  S    
C122  C130  S    
Cr8   O23   S    
Cr7   O30   S    
C116  C140  S    
