data_mof_unit_22977.cif
_audit_creation_date              2012-12-11T15:41:14-0500
_audit_creation_method            fapswitch 2.2
_symmetry_space_group_name_H-M    P1
_symmetry_Int_Tables_number       1
_space_group_crystal_system       triclinic
_cell_length_a                    14.847652
_cell_length_b                    14.865261
_cell_length_c                    14.824105
_cell_angle_alpha                 108.945405
_cell_angle_beta                  109.38321
_cell_angle_gamma                 109.481882
_cell_volume                      2537.23107061

loop_
_atom_site_label
_atom_site_type_symbol
_atom_type_description
_atom_site_fract_x
_atom_site_fract_y
_atom_site_fract_z
_atom_type_partial_charge
C1    C     C_R   0.251919 0.066807 0.974264 -0.095918
C2    C     C_R   0.804906 0.005293 0.096988 -0.150352
C3    C     C_R   0.784409 0.327282 0.325128 -0.120326
C4    C     C_R   0.132060 0.703509 0.700016 -0.015573
C5    C     C_R   0.505495 0.945481 0.311841 0.021588
C6    C     C_R   0.500699 0.938455 0.676220 0.070427
C7    C     C_R   0.504254 0.298998 0.925472 0.091201
C8    C     C_R   0.501017 0.673545 0.955192 0.064327
C9    C     C_R   0.281434 0.091505 0.570440 -0.138254
C10   C     C_R   0.675685 0.745150 0.284644 -0.150219
C11   C     C_R   0.359054 0.200970 0.647378 -0.146502
C12   C     C_R   0.617780 0.660731 0.176309 -0.121685
C13   C     C_R   0.333333 0.266267 0.715422 0.074169
C14   C     C_R   0.668303 0.654300 0.111105 0.066485
C15   C     C_R   0.228204 0.220701 0.704338 -0.282267
C16   C     C_R   0.779254 0.731538 0.157579 -0.255557
C17   C     C_R   0.150284 0.110702 0.628050 0.581349
C18   C     C_R   0.836747 0.818141 0.265168 0.585289
C19   C     C_R   0.177899 0.045966 0.561369 -0.272802
C20   C     C_R   0.784278 0.824353 0.328792 -0.275861
C21   C     C_R   0.424780 0.474401 0.819892 0.068280
C22   C     C_R   0.611205 0.481862 0.955155 0.090528
C23   C     C_R   0.759718 0.224261 0.315659 0.524935
C24   C     C_R   0.195480 0.797434 0.704476 0.446654
C25   C     C_R   0.506905 0.572016 0.921334 -0.027893
C26   C     C_R   0.513477 0.381270 0.888479 -0.026655
C27   C     C_R   0.599835 0.573273 0.991868 -0.039356
C28   C     C_R   0.422148 0.374934 0.809850 -0.022149
C29   C     C_R   0.917055 0.519395 0.414378 -0.183084
C30   C     C_R   0.950799 0.541513 0.619233 -0.189409
C31   C     C_R   0.002634 0.612301 0.507014 -0.126173
C32   C     C_R   0.862068 0.447572 0.524490 -0.217270
C33   C     C_R   0.024170 0.620965 0.609553 0.186253
C34   C     C_R   0.851507 0.433263 0.422525 0.173936
C35   C     C_R   0.605533 0.938992 0.580463 -0.213645
C36   C     C_R   0.414650 0.837977 0.384034 -0.241339
C37   C     C_R   0.611340 0.970078 0.502622 0.117530
C38   C     C_R   0.409832 0.821119 0.470270 0.157495
C39   C     C_R   0.511947 0.917853 0.400582 0.043543
C40   C     C_R   0.504662 0.888202 0.574531 0.037547
C41   C     C_R   0.129797 0.060046 0.160257 -0.159570
C42   C     C_R   0.038195 0.162272 0.062091 -0.170825
C43   C     C_R   0.038327 0.062612 0.162878 -0.166924
C44   C     C_R   0.129620 0.159614 0.059464 -0.158983
C45   C     C_R   0.411722 0.911894 0.215980 -0.134714
C46   C     C_R   0.591942 0.019214 0.778835 -0.119944
C47   C     C_R   0.985414 0.103428 0.103486 0.129439
C48   C     C_R   0.167473 0.097268 0.097297 0.133147
C49   C     C_R   0.592826 0.297616 0.993015 -0.142714
C50   C     C_R   0.408481 0.684234 0.940362 -0.132867
C51   C     C_R   0.592895 0.996216 0.299481 -0.075840
C52   C     C_R   0.408865 0.930697 0.686251 -0.181839
C53   C     C_R   0.411427 0.208733 0.900638 -0.148843
C54   C     C_R   0.591662 0.777998 0.023171 -0.107347
C55   C     C_R   0.749136 0.313867 0.220497 -0.201473
C56   C     C_R   0.194735 0.700800 0.790930 -0.254572
C57   C     C_R   0.251206 0.973957 0.066456 -0.119302
C58   C     C_R   0.805115 0.097159 0.005569 -0.139882
C59   C     C_R   0.225937 0.052067 0.052078 0.030117
C60   C     C_R   0.869635 0.068754 0.068822 0.054665
H1    H     H_    0.242804 0.120591 0.942026 0.099631
H2    H     H_    0.831913 0.981337 0.157920 0.119796
H3    H     H_    0.302499 0.041128 0.519634 0.140033
H4    H     H_    0.635514 0.750676 0.333667 0.139482
H5    H     H_    0.440503 0.233985 0.656550 0.113715
H6    H     H_    0.532329 0.602124 0.141927 0.116918
H7    H     H_    0.208995 0.269041 0.759405 0.141090
H8    H     H_    0.818928 0.730571 0.108236 0.132536
H9    H     H_    0.911448 0.511932 0.337441 0.116189
H10   H     H_    0.965668 0.548911 0.698603 0.123747
H11   H     H_    0.058782 0.670730 0.496239 0.158809
H12   H     H_    0.807329 0.383589 0.531088 0.135336
H13   H     H_    0.679402 0.970217 0.654594 0.121316
H14   H     H_    0.340464 0.791837 0.305487 0.123973
H15   H     H_    0.162375 0.018329 0.197472 0.120369
H16   H     H_    0.003557 0.200782 0.021581 0.108965
H17   H     H_    0.003802 0.022628 0.201876 0.158039
H18   H     H_    0.161954 0.196233 0.017137 0.112288
H19   H     H_    0.327977 0.854900 0.188363 0.090306
H20   H     H_    0.677383 0.048971 0.802406 0.090660
H21   H     H_    0.677534 0.345350 0.017655 0.104962
H22   H     H_    0.323990 0.620363 0.894161 0.111082
H23   H     H_    0.673049 0.005385 0.337520 0.147307
H24   H     H_    0.324066 0.880981 0.623081 0.121816
H25   H     H_    0.327578 0.177411 0.842837 0.119152
H26   H     H_    0.675868 0.800945 0.045797 0.112085
H27   H     H_    0.754435 0.375598 0.196251 0.129086
H28   H     H_    0.166517 0.644246 0.819240 0.130902
H29   H     H_    0.240508 0.941115 0.119446 0.094551
H30   H     H_    0.832458 0.158359 0.982077 0.087195
H31   H     H_    0.120143 0.960054 0.503705 0.162831
H32   H     H_    0.826785 0.890900 0.411849 0.127047
N1    N     N_R   0.293810 0.002730 0.945950 -0.043031
N2    N     N_R   0.706190 0.997270 0.054050 -0.043252
N3    N     N_R   0.706160 0.152130 0.208910 -0.067585
N4    N     N_R   0.293840 0.847870 0.791090 -0.095643
N5    N     N_R   0.443140 0.945920 0.152090 -0.045071
N6    N     N_R   0.556860 0.054080 0.847910 -0.039539
N7    N     N_R   0.556830 0.208940 0.002760 -0.038899
N8    N     N_R   0.443170 0.791060 0.997240 -0.041253
N9    N     N_R   0.556790 0.002750 0.208910 -0.044611
N10   N     N_R   0.443210 0.997250 0.791090 -0.044965
N11   N     N_R   0.443180 0.152110 0.945950 -0.046222
N12   N     N_R   0.556820 0.847890 0.054050 -0.046679
N13   N     N_R   0.706170 0.208950 0.152090 -0.063428
N14   N     N_R   0.293830 0.791050 0.847910 -0.054185
N15   N     N_R   0.293800 0.945910 0.002760 -0.039078
N16   N     N_R   0.706200 0.054090 0.997240 -0.039243
Ni1   Ni    Ni4+2 0.369690 0.999990 0.869700 0.217628
Ni2   Ni    Ni4+2 0.630310 0.000010 0.130300 0.237949
Ni3   Ni    Ni4+2 0.369670 0.869670 0.000000 0.202598
Ni4   Ni    Ni4+2 0.630330 0.130330 0.000000 0.198810
O1    O     O_3   0.049980 0.068175 0.623524 -0.776764
H33   H     H_    0.007259 0.988632 0.570728 0.311962
O2    O     O_3   0.942132 0.897321 0.304057 -0.797292
H34   H     H_    0.966404 0.958311 0.375665 0.309104
C61   C     C_3   0.359637 0.480729 0.720218 -0.393608
C62   C     C_3   0.235670 0.432239 0.679371 -0.247920
C63   C     C_3   0.184500 0.471696 0.603936 -0.930111
H35   H     H_    0.227067 0.562345 0.645439 0.266522
H36   H     H_    0.190638 0.440727 0.528472 0.263923
H37   H     H_    0.096381 0.440173 0.580163 0.258800
H38   H     H_    0.193368 0.342241 0.629727 0.216240
H39   H     H_    0.219086 0.453094 0.748808 0.187715
H40   H     H_    0.395391 0.567313 0.738454 0.197933
H41   H     H_    0.371574 0.437785 0.652025 0.183052
C64   C     C_3   0.719347 0.496380 0.959464 -0.421104
C65   C     C_3   0.704879 0.407654 0.857408 -0.241469
C66   C     C_3   0.815503 0.428840 0.864428 -0.950969
H42   H     H_    0.859197 0.510044 0.871862 0.264978
H43   H     H_    0.867199 0.425917 0.936232 0.261732
H44   H     H_    0.802164 0.365046 0.788881 0.257957
H45   H     H_    0.662998 0.325183 0.847889 0.197435
H46   H     H_    0.653485 0.407395 0.782952 0.197803
H47   H     H_    0.762025 0.575137 0.962097 0.191045
H48   H     H_    0.774515 0.502996 0.036234 0.181146
C67   C     C_3   0.720187 0.064602 0.534938 -0.416259
C68   C     C_3   0.802735 0.140086 0.658686 -0.269586
C69   C     C_3   0.897902 0.241176 0.679841 -0.876424
H49   H     H_    0.941470 0.216603 0.637004 0.290711
H50   H     H_    0.867276 0.290702 0.650776 0.248272
H51   H     H_    0.957078 0.292640 0.769201 0.239477
H52   H     H_    0.760782 0.167082 0.702473 0.194635
H53   H     H_    0.838316 0.095929 0.692789 0.210648
H54   H     H_    0.762667 0.030147 0.497457 0.200601
H55   H     H_    0.701327 0.118967 0.504943 0.227481
C70   C     C_3   0.304397 0.733351 0.449342 -0.464632
C71   C     C_3   0.267331 0.619338 0.360324 -0.228221
C72   C     C_3   0.160575 0.533248 0.340667 -0.929431
H56   H     H_    0.171004 0.531878 0.417803 0.266143
H57   H     H_    0.093325 0.551384 0.309992 0.257232
H58   H     H_    0.137130 0.451146 0.278494 0.254170
H59   H     H_    0.253254 0.618429 0.281575 0.191249
H60   H     H_    0.332226 0.597032 0.386310 0.201205
H61   H     H_    0.316389 0.727417 0.524787 0.193211
H62   H     H_    0.238815 0.755105 0.424770 0.194771
O3    O     O_3   0.798920 0.198869 0.396346 -0.808852
H63   H     H_    0.864108 0.266193 0.461356 0.312119
O4    O     O_3   0.154181 0.849440 0.654954 -0.786946
H64   H     H_    0.213781 0.925897 0.690733 0.313821

loop_
_geom_bond_atom_site_label_1
_geom_bond_atom_site_label_2
_ccdc_geom_bond_type
N7    N11   A    
O3    H63   S    
C8    C50   A    
C69   H50   S    
C3    C23   A    
C70   C71   S    
C65   C66   S    
C24   O4    S    
C17   O1    S    
C32   H12   S    
C20   H32   S    
N2    N16   A    
C7    C26   S    
C57   H29   S    
C55   N13   A    
C67   H54   S    
C35   C37   A    
C64   H47   S    
C66   H42   S    
C68   H52   S    
C72   H57   S    
C43   H17   S    
N5    Ni3   S    
C69   H51   S    
C2    C60   A    
C56   H28   S    
C72   H56   S    
C41   H15   S    
C58   C60   A    
O2    H34   S    
N8    N12   A    
C49   H21   S    
C52   H24   S    
C62   C63   S    
C21   C61   S    
N3    N13   A    
C47   C60   S    
C3    C55   A    
C9    C19   A    
C35   H13   S    
C10   C20   A    
C71   H60   S    
C31   C33   A    
C13   C28   S    
C16   H8    S    
C14   C27   S    
C70   H61   S    
C61   H41   S    
C18   C20   A    
C42   C47   A    
C66   H44   S    
C31   H11   S    
C46   N6    A    
C38   C40   A    
C37   C67   S    
C4    C56   A    
C29   C31   A    
C8    C25   S    
C41   C43   A    
C42   C44   A    
C26   C28   A    
C30   H10   S    
C29   H9    S    
N14   Ni3   S    
C63   H36   S    
C38   C70   S    
N6    Ni4   S    
C67   H55   S    
C2    N2    A    
C6    C40   S    
C19   H31   S    
C64   H48   S    
C7    C49   A    
C21   C25   A    
C72   H58   S    
C8    C54   A    
C54   H26   S    
C3    C34   S    
N9    Ni2   S    
N6    N10   A    
C12   H6    S    
C29   C34   A    
N2    Ni2   S    
N16   Ni4   S    
C32   C34   A    
C44   H18   S    
C65   H46   S    
C49   N7    A    
C58   H30   S    
O4    H64   S    
C13   C15   A    
C63   H35   S    
C15   H7    S    
C24   N4    A    
C45   H19   S    
C62   H39   S    
C71   C72   S    
C70   H62   S    
C9    C11   A    
C56   N14   A    
C10   C12   A    
C16   C18   A    
C57   N15   A    
C21   C28   A    
C12   C14   A    
C22   C27   A    
C5    C39   S    
C14   C16   A    
N12   Ni2   S    
C51   N9    A    
C71   H59   S    
C7    C53   A    
C64   C65   S    
C51   H23   S    
C50   H22   S    
C48   C59   S    
O1    H33   S    
C67   C68   S    
C63   H37   S    
C54   N12   A    
C15   C17   A    
N4    N14   A    
C4    C33   S    
C36   H14   S    
C6    C46   A    
C30   C33   A    
C9    H3    S    
N15   Ni3   S    
N13   Ni4   S    
C36   C39   A    
C10   H4    S    
C43   C47   A    
N3    Ni2   S    
C1    H1    S    
C18   O2    S    
C53   H25   S    
C69   H49   S    
C25   C27   A    
N4    Ni1   S    
C42   H16   S    
C52   N10   A    
N11   Ni1   S    
C1    C59   A    
C35   C40   A    
C37   C39   A    
C44   C48   A    
C68   H53   S    
C61   C62   S    
N1    N15   A    
C30   C32   A    
C11   C13   A    
C22   C64   S    
C5    C45   A    
C53   N11   A    
C4    C24   A    
N7    Ni4   S    
C23   O3    S    
C36   C38   A    
C17   C19   A    
C41   C48   A    
C23   N3    A    
C58   N16   A    
C62   H38   S    
C55   H27   S    
C50   N8    A    
C57   C59   A    
C68   C69   S    
C2    H2    S    
N8    Ni3   S    
C1    N1    A    
C22   C26   A    
C5    C51   A    
N10   Ni1   S    
C45   N5    A    
C46   H20   S    
C6    C52   A    
C65   H45   S    
C61   H40   S    
N5    N9    A    
C11   H5    S    
N1    Ni1   S    
C66   H43   S    
