data_mof_unit_44640.cif
_audit_creation_date              2012-10-26T18:40:19-0400
_audit_creation_method            fapswitch 2.2
_symmetry_space_group_name_H-M    P1
_symmetry_Int_Tables_number       1
_space_group_crystal_system       triclinic
_cell_length_a                    8.763215
_cell_length_b                    15.080112
_cell_length_c                    13.833762
_cell_angle_alpha                 90.2191
_cell_angle_beta                  97.905987
_cell_angle_gamma                 91.161069
_cell_volume                      1810.34692113

loop_
_atom_site_label
_atom_site_type_symbol
_atom_type_description
_atom_site_fract_x
_atom_site_fract_y
_atom_site_fract_z
_atom_type_partial_charge
C1    C     C_R   0.492805 0.329648 0.498960 0.585531
C2    C     C_R   0.594278 0.557669 0.901851 0.422685
C3    C     C_R   0.497950 0.501085 0.054351 -0.029305
C4    C     C_R   0.498023 0.498703 0.945304 -0.029844
C5    C     C_R   0.204121 0.502387 0.475326 0.605441
C6    C     C_R   0.795988 0.498866 0.524701 0.615960
C7    C     C_2   0.039166 0.504358 0.461584 0.372910
C8    C     C_2   0.961014 0.498737 0.538562 0.395719
C9    C     C_R   0.589607 0.095645 0.563525 0.408749
C10   C     C_R   0.385990 0.904000 0.515563 0.417170
C11   C     C_R   0.582994 0.187175 0.566688 -0.089931
C12   C     C_R   0.506256 0.670062 0.500740 0.581228
C13   C     C_R   0.386380 0.812406 0.519125 -0.079069
C14   C     C_R   0.485032 0.232391 0.496340 -0.061557
C15   C     C_R   0.516463 0.766735 0.501689 -0.073305
C16   C     C_R   0.387706 0.184705 0.422347 0.217869
C17   C     C_R   0.651422 0.813081 0.482671 0.169842
C18   C     C_R   0.408106 0.092150 0.412273 0.238525
C19   C     C_R   0.645151 0.906173 0.467838 0.236296
C20   C     C_R   0.504957 0.048040 0.486422 0.055649
C21   C     C_R   0.512714 0.951058 0.488513 0.052429
C22   C     C_R   0.404962 0.560034 0.099479 0.204001
C23   C     C_R   0.402783 0.438680 0.883748 0.200135
C24   C     C_R   0.408187 0.557601 0.202293 0.496762
C25   C     C_R   0.406096 0.441207 0.781469 0.505504
C26   C     C_R   0.591351 0.443643 0.216091 0.553316
C27   C     C_R   0.593660 0.557277 0.800073 0.522296
C28   C     C_R   0.591979 0.443241 0.114435 0.427314
Cu1   Cu    Cu3+1 0.500000 0.499990 0.596430 1.235719
Cu2   Cu    Cu3+1 0.500000 0.500010 0.403570 1.284528
F1    F     F_    0.967405 0.510930 0.368077 -0.545072
F2    F     F_    0.689181 0.615473 0.958016 -0.485414
F3    F     F_    0.032771 0.492758 0.632126 -0.547098
F4    F     F_    0.681552 0.053100 0.634992 -0.538023
F5    F     F_    0.260079 0.947238 0.536689 -0.519771
F6    F     F_    0.319444 0.613278 0.246404 -0.515094
F7    F     F_    0.315485 0.384447 0.721597 -0.500040
F8    F     F_    0.683324 0.387156 0.272102 -0.513838
F9    F     F_    0.688030 0.614629 0.760290 -0.519212
F10   F     F_    0.684764 0.386523 0.074673 -0.488225
H1    H     H_    0.655358 0.223107 0.624304 0.196939
H2    H     H_    0.284873 0.776690 0.536010 0.199124
H3    H     H_    0.053865 0.324718 0.395097 0.391244
H4    H     H_    0.841359 0.725801 0.643947 0.398595
H5    H     H_    0.368358 0.910743 0.231242 0.402956
H6    H     H_    0.816387 0.087335 0.337015 0.412032
H7    H     H_    0.336511 0.754834 0.947090 0.390804
H8    H     H_    0.325585 0.250775 0.034209 0.405891
N1    N     N_R   0.500000 0.500020 0.258690 -0.295771
N2    N     N_R   0.500000 0.499980 0.741310 -0.305392
O1    O     O_R   0.500010 0.371450 0.581430 -0.472838
O2    O     O_2   0.100565 0.175837 0.317097 -0.182492
O3    O     O_3   0.159864 0.313311 0.426968 -0.527839
O4    O     O_2   0.826542 0.699634 0.398929 -0.175479
O5    O     O_2   0.968227 0.813203 0.504010 -0.167409
O6    O     O_3   0.838071 0.685947 0.586590 -0.495106
O7    O     O_2   0.167796 0.997113 0.321395 -0.149119
O8    O     O_2   0.308770 0.091343 0.217899 -0.156264
O9    O     O_3   0.433103 0.945978 0.282484 -0.484343
O10   O     O_2   0.917756 0.993569 0.496451 -0.123684
O11   O     O_2   0.858667 0.907373 0.344361 -0.122346
O12   O     O_R   0.499990 0.628550 0.418570 -0.439182
O13   O     O_3   0.724525 0.056563 0.356407 -0.493535
O14   O     O_2   0.201125 0.593730 0.940427 -0.216592
O15   O     O_2   0.176095 0.679812 0.087414 -0.101924
O16   O     O_3   0.404791 0.718055 0.993036 -0.441018
O17   O     O_2   0.191032 0.405331 0.003049 -0.210104
O18   O     O_2   0.173067 0.313718 0.855464 -0.109182
O19   O     O_3   0.394612 0.283918 0.995501 -0.429500
O20   O     O_R   0.500010 0.371460 0.418560 -0.444039
O21   O     O_R   0.499990 0.628540 0.581440 -0.472482
O22   O     O_R   0.274840 0.499990 0.562640 -0.447348
O23   O     O_R   0.725160 0.500010 0.437360 -0.447423
O24   O     O_R   0.274840 0.500000 0.399770 -0.417002
O25   O     O_R   0.725160 0.500000 0.600230 -0.429311
O26   O     O_2   0.283410 0.287052 0.269238 -0.197399
S1    S     S_3+6 0.229627 0.239539 0.354108 0.139347
S2    S     S_3+6 0.827051 0.753974 0.490220 0.099117
S3    S     S_3+6 0.324243 0.032058 0.305658 0.156915
S4    S     S_3+6 0.792663 0.965533 0.416075 0.174486
S5    S     S_3+6 0.288778 0.638235 0.029106 0.154422
S6    S     S_3+6 0.282490 0.359837 0.933797 0.161468

loop_
_geom_bond_atom_site_label_1
_geom_bond_atom_site_label_2
_ccdc_geom_bond_type
C23   S6    S    
O7    S3    D    
C2    C4    A    
H8    O19   S    
C6    O25   A    
C24   F6    S    
C3    C28   A    
C19   C21   A    
C4    C23   A    
C5    O22   A    
Cu2   O24   S    
C11   C14   A    
C28   F10   S    
O11   S4    D    
O6    S2    S    
C2    F2    S    
C16   S1    S    
C5    O24   A    
C25   N2    A    
O19   S6    S    
C25   F7    S    
H3    O3    S    
O10   S4    D    
C27   F9    S    
C18   S3    S    
C10   F5    S    
C14   C16   A    
H7    O16   S    
C27   N2    A    
C9    C11   A    
Cu1   O22   S    
C13   H2    S    
Cu2   O20   S    
O13   S4    S    
C10   C21   A    
C7    F1    S    
C22   S5    S    
C7    C8    D    
O26   S1    D    
C26   N1    A    
O9    S3    S    
C5    C7    S    
O5    S2    D    
C26   F8    S    
C6    C8    S    
Cu2   O23   S    
O3    S1    S    
Cu1   Cu2   S    
C12   O12   A    
H4    O6    S    
C9    C20   A    
O15   S5    D    
C12   C15   S    
C1    O1    A    
C2    C27   A    
O8    S3    D    
Cu2   N1    S    
C13   C15   A    
C9    F4    S    
C22   C24   A    
O2    S1    D    
C6    O23   A    
Cu1   O1    S    
C24   N1    A    
C15   C17   A    
H5    O9    S    
C12   O21   A    
C10   C13   A    
Cu1   O25   S    
C26   C28   A    
C1    O20   A    
H6    O13   S    
O18   S6    D    
Cu2   O12   S    
O16   S5    S    
Cu1   N2    S    
C17   S2    S    
C17   C19   A    
C11   H1    S    
C18   C20   A    
C8    F3    S    
C23   C25   A    
C19   S4    S    
O14   S5    D    
C20   C21   S    
O17   S6    D    
C16   C18   A    
C3    C22   A    
C1    C14   S    
O4    S2    D    
C3    C4    S    
Cu1   O21   S    
