data_mof_unit_28768.cif
_audit_creation_date              2012-12-10T17:02:29-0500
_audit_creation_method            fapswitch 2.2
_symmetry_space_group_name_H-M    P1
_symmetry_Int_Tables_number       1
_space_group_crystal_system       triclinic
_cell_length_a                    10.830927
_cell_length_b                    11.023633
_cell_length_c                    9.860525
_cell_angle_alpha                 110.445501
_cell_angle_beta                  98.471384
_cell_angle_gamma                 92.423159
_cell_volume                      1085.51284528

loop_
_atom_site_label
_atom_site_type_symbol
_atom_type_description
_atom_site_fract_x
_atom_site_fract_y
_atom_site_fract_z
_atom_type_partial_charge
C1    C     C_R   0.495045 0.254736 0.441137 0.891615
C2    C     C_R   0.510045 0.745741 0.559044 0.861901
C3    C     C_2   0.499511 0.116441 0.408515 -0.372603
C4    C     C_2   0.516466 0.885189 0.592690 -0.365360
C5    C     C_2   0.511583 0.070541 0.517216 -0.170185
C6    C     C_2   0.510485 0.932081 0.484932 -0.152057
C7    C     C_2   0.465984 0.532161 0.076732 0.440702
C8    C     C_2   0.472252 0.497676 0.912987 0.467030
C9    C     C_R   0.261265 0.494567 0.499722 0.841999
C10   C     C_R   0.734618 0.479853 0.495358 0.807004
C11   C     C_R   0.144189 0.596215 0.768257 -0.142140
C12   C     C_R   0.833037 0.328363 0.221499 -0.177162
C13   C     C_R   0.103777 0.599135 0.897090 -0.220724
C14   C     C_R   0.881704 0.268455 0.094320 -0.224916
C15   C     C_R   0.995123 0.523259 0.888936 -0.231611
C16   C     C_R   0.008822 0.254555 0.103973 -0.203076
C17   C     C_R   0.916901 0.459325 0.752945 0.334442
C18   C     C_R   0.088188 0.304346 0.240834 0.297583
C19   C     C_R   0.950141 0.473695 0.624530 0.051501
C20   C     C_R   0.044093 0.392132 0.364362 0.049697
C21   C     C_R   0.074844 0.516934 0.629423 0.020476
C22   C     C_R   0.912592 0.393177 0.357835 0.033640
C23   C     C_R   0.865524 0.445719 0.490853 -0.203558
C24   C     C_R   0.125188 0.472179 0.497125 -0.201443
Cu1   Cu    Cu3+1 0.521920 0.521810 0.644910 0.991372
Cu2   Cu    Cu3+1 0.478080 0.478190 0.355090 1.004788
H1    H     H_    0.042671 0.191740 0.008136 0.127544
H2    H     H_    0.972118 0.513836 0.988240 0.146677
H3    H     H_    0.229618 0.655775 0.780192 0.158923
H4    H     H_    0.733300 0.313489 0.212282 0.177241
H5    H     H_    0.160615 0.654249 0.002854 0.154655
H6    H     H_    0.819167 0.220297 0.990652 0.150794
H7    H     H_    0.502705 0.868275 0.371511 0.228755
H8    H     H_    0.520074 0.135295 0.630582 0.191462
H9    H     H_    0.525661 0.950067 0.706627 0.142290
H10   H     H_    0.489911 0.051422 0.294587 0.147839
N1    N     N_2   0.445130 0.445420 0.137360 -0.085931
N2    N     N_2   0.554870 0.554580 0.862640 -0.101010
O1    O     O_R   0.511700 0.332340 0.577400 -0.524516
O2    O     O_R   0.488300 0.667660 0.422600 -0.510158
O3    O     O_R   0.474680 0.295500 0.332650 -0.565121
O4    O     O_R   0.525320 0.704500 0.667350 -0.612531
O5    O     O_R   0.338170 0.518410 0.622370 -0.554883
O6    O     O_R   0.661830 0.481590 0.377630 -0.587056
O7    O     O_R   0.301150 0.481570 0.377630 -0.560129
O8    O     O_R   0.698850 0.518430 0.622370 -0.554833
N3    N     N_2   0.815474 0.368345 0.743615 -0.396920
H11   H     H_    0.784547 0.383040 0.841571 0.245207
C25   C     C_3   0.834975 0.233692 0.670033 -0.718128
H12   H     H_    0.754623 0.169511 0.672984 0.230409
H13   H     H_    0.921727 0.209431 0.726570 0.218859
H14   H     H_    0.842188 0.214502 0.553326 0.237610
N4    N     N_2   0.195986 0.238959 0.260787 -0.405178
H15   H     H_    0.234233 0.199475 0.166951 0.254705
C26   C     C_3   0.175380 0.145057 0.329740 -0.698098
H16   H     H_    0.255515 0.085927 0.327169 0.228520
H17   H     H_    0.089913 0.077228 0.269575 0.221726
H18   H     H_    0.165141 0.195621 0.446054 0.241374
O9    O     O_3   0.384442 0.403831 0.810713 -0.709486
H19   H     H_    0.307567 0.403978 0.854085 0.289132
O10   O     O_3   0.477892 0.661368 0.164630 -0.737873
H20   H     H_    0.455782 0.712764 0.101334 0.295598
N5    N     N_2   0.628939 0.664902 0.958652 -0.374678
H21   H     H_    0.656087 0.726589 0.908148 0.281091
C27   C     C_3   0.731131 0.643193 0.057713 -0.642048
H22   H     H_    0.725354 0.704499 0.172437 0.251298
H23   H     H_    0.822293 0.672419 0.033769 0.205076
H24   H     H_    0.727988 0.539923 0.049114 0.204857
N6    N     N_2   0.422459 0.315323 0.049118 -0.333375
H25   H     H_    0.332741 0.283236 0.991291 0.221670
C28   C     C_3   0.526260 0.251256 0.988357 -0.623021
H26   H     H_    0.497595 0.200522 0.868445 0.209109
H27   H     H_    0.551777 0.177718 0.038081 0.211513
H28   H     H_    0.608964 0.321779 0.007918 0.192120

loop_
_geom_bond_atom_site_label_1
_geom_bond_atom_site_label_2
_ccdc_geom_bond_type
Cu1   O4    S    
C10   O8    A    
C28   H28   S    
C19   C23   A    
C26   H16   S    
N5    C27   S    
C9    C24   S    
C9    O7    A    
N1    N6    S    
C10   C23   S    
C11   C21   A    
C2    C4    S    
N3    H11   S    
C18   N4    S    
C6    H7    S    
C3    C5    D    
C25   H14   S    
C12   H4    S    
C5    H8    S    
C27   H24   S    
C16   H1    S    
C26   H17   S    
C7    N1    D    
C4    H9    S    
Cu2   O6    S    
C28   H26   S    
N3    C25   S    
Cu2   N1    S    
N4    H15   S    
Cu1   O1    S    
C20   C24   A    
C11   C13   A    
Cu2   O2    S    
C15   H2    S    
C5    C6    S    
C8    N2    D    
C3    H10   S    
C2    O4    A    
C1    O3    A    
Cu1   O5    S    
C19   C21   A    
C20   C22   A    
C27   H22   S    
C18   C20   A    
N6    H25   S    
N4    C26   S    
C13   C15   A    
O10   H20   S    
Cu1   N2    S    
C14   C16   A    
C9    O5    A    
C4    C6    D    
C7    C8    S    
C1    O1    A    
C10   O6    A    
N5    H21   S    
C12   C22   A    
C28   H27   S    
O9    H19   S    
C14   H6    S    
C11   H3    S    
C16   C18   A    
C25   H12   S    
C21   C24   A    
C8    O9    S    
C1    C3    S    
C15   C17   A    
C25   H13   S    
C26   H18   S    
C22   C23   A    
C7    O10   S    
Cu2   O7    S    
C17   C19   A    
Cu1   Cu2   S    
N2    N5    S    
Cu1   O8    S    
C13   H5    S    
C2    O2    A    
C17   N3    S    
Cu2   O3    S    
C12   C14   A    
N6    C28   S    
C27   H23   S    
