data_mof_unit_47523.cif
_audit_creation_date              2012-12-11T15:41:28-0500
_audit_creation_method            fapswitch 2.2
_symmetry_space_group_name_H-M    P1
_symmetry_Int_Tables_number       1
_space_group_crystal_system       triclinic
_cell_length_a                    19.073642
_cell_length_b                    11.282917
_cell_length_c                    18.636283
_cell_angle_alpha                 90.384746
_cell_angle_beta                  91.092435
_cell_angle_gamma                 90.096559
_cell_volume                      4009.81988954

loop_
_atom_site_label
_atom_site_type_symbol
_atom_type_description
_atom_site_fract_x
_atom_site_fract_y
_atom_site_fract_z
_atom_type_partial_charge
C1    C     C_R   0.708546 0.003304 0.860898 0.562877
C2    C     C_R   0.292453 0.005097 0.139445 0.580599
C3    C     C_R   0.207934 0.504751 0.860959 0.577303
C4    C     C_R   0.791778 0.503363 0.139438 0.566674
C5    C     C_R   0.712749 0.495352 0.032119 -0.016407
C6    C     C_R   0.278573 0.527796 0.977236 0.007576
C7    C     C_R   0.221817 0.027876 0.023754 0.016087
C8    C     C_R   0.787959 0.993691 0.968185 -0.017472
C9    C     C_R   0.699893 0.464388 0.960789 -0.008489
C10   C     C_R   0.288181 0.495028 0.049189 -0.007172
C11   C     C_R   0.211495 0.993498 0.952003 -0.005840
C12   C     C_R   0.800334 0.963297 0.039503 -0.011767
C13   C     C_R   0.823343 0.424688 0.947022 -0.135556
C14   C     C_R   0.174708 0.405712 0.049020 -0.105010
C15   C     C_R   0.325400 0.906115 0.951001 -0.155723
C16   C     C_R   0.676851 0.924763 0.053039 -0.129259
C17   C     C_R   0.834969 0.451331 0.019112 -0.096529
C18   C     C_R   0.164083 0.437228 0.977831 -0.127774
C19   C     C_R   0.336492 0.938835 0.022094 -0.141385
C20   C     C_R   0.665369 0.952332 0.981196 -0.094733
C21   C     C_3   0.666227 0.600985 0.029396 -0.198848
C22   C     C_3   0.299426 0.651559 0.997745 -0.224184
C23   C     C_3   0.200393 0.150818 0.003185 -0.231488
C24   C     C_3   0.835761 0.098063 0.971494 -0.198881
C25   C     C_3   0.650313 0.566458 0.951716 0.397880
C26   C     C_3   0.307093 0.615036 0.075961 0.389982
C27   C     C_3   0.190727 0.111815 0.925276 0.373520
C28   C     C_3   0.850321 0.064942 0.049391 0.408648
C29   C     C_R   0.755204 0.429443 0.917353 0.017149
C30   C     C_R   0.240739 0.423065 0.082046 0.048300
C31   C     C_R   0.259121 0.922499 0.918530 0.030099
C32   C     C_R   0.744961 0.928664 0.082766 0.041060
C33   C     C_R   0.453666 0.163914 0.435653 0.010833
C34   C     C_R   0.496916 0.160521 0.578094 0.090864
C35   C     C_R   0.953688 0.663920 0.435635 0.012202
C36   C     C_R   0.996943 0.660555 0.578069 0.092275
C37   C     C_R   0.523881 0.168077 0.453764 0.007738
C38   C     C_R   0.544636 0.169779 0.523977 -0.015925
C39   C     C_R   0.023907 0.668062 0.453733 0.006481
C40   C     C_R   0.044662 0.669804 0.523948 -0.014686
C41   C     C_R   0.426955 0.131132 0.560991 -0.081734
C42   C     C_R   0.404905 0.134067 0.488434 -0.162274
C43   C     C_R   0.926981 0.631188 0.560971 -0.083210
C44   C     C_R   0.904926 0.634125 0.488420 -0.159869
C45   C     C_R   0.528601 0.177728 0.849253 0.541385
C46   C     C_R   0.468946 0.177642 0.149305 0.543237
C47   C     C_R   0.031502 0.678032 0.850974 0.533705
C48   C     C_R   0.971792 0.677343 0.151021 0.532401
C49   C     C_3   0.573717 0.263416 0.436846 -0.181947
C50   C     C_3   0.599242 0.260944 0.513686 -0.249559
C51   C     C_3   0.073752 0.763376 0.436789 -0.182281
C52   C     C_3   0.099265 0.760966 0.513636 -0.249908
C53   C     C_R   0.757086 0.433578 0.427470 0.000251
C54   C     C_R   0.250426 0.400488 0.582079 -0.015916
C55   C     C_R   0.257064 0.933513 0.427450 -0.003449
C56   C     C_R   0.750440 0.900498 0.582076 -0.021070
C57   C     C_R   0.813051 0.388114 0.467344 -0.014523
C58   C     C_R   0.194806 0.365413 0.537227 0.010176
C59   C     C_R   0.313019 0.888008 0.467318 -0.021062
C60   C     C_R   0.694816 0.865337 0.537251 0.008145
C61   C     C_R   0.812004 0.379907 0.540216 0.014521
C62   C     C_R   0.203710 0.345856 0.465708 0.101310
C63   C     C_R   0.311980 0.879810 0.540193 0.014275
C64   C     C_R   0.703704 0.845804 0.465728 0.101955
C65   C     C_R   0.701336 0.481811 0.540990 -0.165467
C66   C     C_R   0.327828 0.377068 0.480742 -0.190193
C67   C     C_R   0.201337 0.981796 0.540976 -0.161501
C68   C     C_R   0.827817 0.877156 0.480711 -0.189066
C69   C     C_R   0.700524 0.486568 0.465140 0.201664
C70   C     C_R   0.319022 0.403166 0.554394 0.204551
C71   C     C_R   0.200516 0.986528 0.465123 0.198126
C72   C     C_R   0.819029 0.903271 0.554359 0.207700
C73   C     C_3   0.855010 0.277721 0.457824 0.008556
C74   C     C_3   0.129452 0.434494 0.523113 -0.000790
C75   C     C_3   0.354920 0.777555 0.457793 0.011193
C76   C     C_3   0.629425 0.934346 0.523178 0.001713
C77   C     C_3   0.853163 0.266336 0.539092 -0.005143
C78   C     C_3   0.139692 0.415580 0.443742 -0.005095
C79   C     C_3   0.353088 0.766183 0.539062 -0.010538
C80   C     C_3   0.639667 0.915517 0.443807 -0.004123
C81   C     C_R   0.753611 0.416827 0.578102 -0.060366
C82   C     C_R   0.269339 0.349430 0.436206 -0.055807
C83   C     C_R   0.253607 0.916796 0.578089 -0.052996
C84   C     C_R   0.769326 0.849455 0.436204 -0.055004
C85   C     C_R   0.739619 0.366047 0.851104 0.529294
C86   C     C_R   0.259992 0.363837 0.148353 0.575137
C87   C     C_R   0.239831 0.863336 0.851961 0.580778
C88   C     C_R   0.760388 0.865857 0.148928 0.564977
C89   C     C_R   0.729489 0.951587 0.650160 0.583052
C90   C     C_R   0.272203 0.957819 0.352884 0.604708
C91   C     C_R   0.229488 0.451577 0.650166 0.601898
C92   C     C_R   0.772212 0.457844 0.352896 0.583095
C93   C     C_R   0.525656 0.175177 0.648742 0.576000
C94   C     C_R   0.434891 0.180279 0.361519 0.504335
C95   C     C_R   0.025678 0.675183 0.648722 0.572022
C96   C     C_R   0.934897 0.680280 0.361515 0.505904
C97   C     C_R   0.739766 0.362534 0.647030 0.533090
C98   C     C_R   0.274542 0.315616 0.361262 0.527261
C99   C     C_R   0.239768 0.862541 0.647033 0.558374
C100  C     C_R   0.774533 0.815640 0.361263 0.527889
C101  C     C_2   0.491327 0.168382 0.917376 -0.121559
C102  C     C_2   0.497017 0.169775 0.077115 -0.108884
C103  C     C_2   0.004581 0.670673 0.923646 -0.111515
C104  C     C_2   0.010304 0.667273 0.083569 -0.084421
C105  C     C_2   0.492117 0.070896 0.036976 -0.183541
C106  C     C_2   0.497226 0.070503 0.957718 -0.195101
C107  C     C_2   0.003838 0.570021 0.042041 -0.169388
C108  C     C_2   0.009145 0.571383 0.962793 -0.183317
C109  C     C_R   0.779895 0.487060 0.062580 0.048852
C110  C     C_R   0.216812 0.493746 0.939557 0.026773
C111  C     C_R   0.283929 0.995106 0.060817 0.024375
C112  C     C_R   0.720671 0.986991 0.937759 0.049846
Cr1   Cr    Cr6+3 0.769260 0.163750 0.750730 1.071616
Cr2   Cr    Cr6+3 0.230740 0.163750 0.249270 1.108512
Cr3   Cr    Cr6+3 0.269260 0.663750 0.750730 1.099676
Cr4   Cr    Cr6+3 0.730740 0.663750 0.249270 1.085589
Cr5   Cr    Cr6+3 0.612640 0.009910 0.748780 1.098378
Cr6   Cr    Cr6+3 0.387360 0.009910 0.251220 1.080122
Cr7   Cr    Cr6+3 0.112640 0.509910 0.748780 1.097135
Cr8   Cr    Cr6+3 0.887360 0.509910 0.251220 1.052249
Cr9   Cr    Cr6+3 0.614190 0.322400 0.747710 1.142721
Cr10  Cr    Cr6+3 0.385810 0.322400 0.252290 1.118423
Cr11  Cr    Cr6+3 0.114190 0.822400 0.747710 1.131420
Cr12  Cr    Cr6+3 0.885810 0.822400 0.252290 1.129476
H1    H     H_    0.486495 0.986365 0.063331 0.171351
H2    H     H_    0.508792 0.986674 0.931991 0.173218
H3    H     H_    0.991432 0.486197 0.066698 0.170221
H4    H     H_    0.014487 0.486967 0.935556 0.169871
H5    H     H_    0.041314 0.840976 0.424367 0.264773
H6    H     H_    0.153364 0.725809 0.520178 0.110239
H7    H     H_    0.541272 0.341024 0.424452 0.265332
H8    H     H_    0.653338 0.225765 0.520212 0.112702
H9    H     H_    0.613899 0.239944 0.397055 0.185900
H10   H     H_    0.588129 0.343380 0.543754 0.223530
H11   H     H_    0.113935 0.739877 0.397002 0.187814
H12   H     H_    0.088137 0.843408 0.543691 0.222962
H13   H     H_    0.656687 0.515025 0.569916 0.188642
H14   H     H_    0.379583 0.378998 0.458077 0.178510
H15   H     H_    0.156697 0.015043 0.569904 0.190752
H16   H     H_    0.879563 0.879118 0.458025 0.177959
H17   H     H_    0.907714 0.294712 0.435336 0.191130
H18   H     H_    0.136489 0.525424 0.543674 0.162739
H19   H     H_    0.407627 0.794469 0.435290 0.192108
H20   H     H_    0.636409 0.025279 0.543758 0.165009
H21   H     H_    0.824373 0.187320 0.558534 0.197970
H22   H     H_    0.095955 0.365986 0.417575 0.181515
H23   H     H_    0.324274 0.687202 0.558521 0.194107
H24   H     H_    0.595933 0.865946 0.417619 0.181506
H25   H     H_    0.509686 0.252339 0.053128 0.181143
H26   H     H_    0.468760 0.248203 0.939504 0.189799
H27   H     H_    0.033622 0.746892 0.062405 0.193215
H28   H     H_    0.992888 0.753371 0.948495 0.183369
H29   H     H_    0.866984 0.393287 0.915783 0.153993
H30   H     H_    0.133102 0.359777 0.076184 0.166023
H31   H     H_    0.366880 0.860042 0.923485 0.166739
H32   H     H_    0.633048 0.893799 0.084037 0.154071
H33   H     H_    0.886347 0.439044 0.041617 0.158688
H34   H     H_    0.116274 0.410397 0.951481 0.175302
H35   H     H_    0.384381 0.912729 0.048045 0.179887
H36   H     H_    0.613816 0.941437 0.958757 0.157082
H37   H     H_    0.244530 0.213111 0.012965 0.124992
H38   H     H_    0.806907 0.182372 0.963721 0.145926
H39   H     H_    0.696342 0.684432 0.036647 0.141831
H40   H     H_    0.255535 0.713206 0.986504 0.134650
H41   H     H_    0.621511 0.591632 0.066354 0.198367
H42   H     H_    0.349907 0.674593 0.972627 0.176811
H43   H     H_    0.150577 0.174081 0.029593 0.177993
H44   H     H_    0.880873 0.086342 0.935224 0.197523
H45   H     H_    0.389402 0.115224 0.602689 0.160083
H46   H     H_    0.350052 0.122812 0.474386 0.093424
H47   H     H_    0.889428 0.615294 0.602668 0.146014
H48   H     H_    0.850070 0.622899 0.474377 0.094028
O1    O     O_R   0.784290 0.290360 0.830540 -0.542414
O2    O     O_R   0.215710 0.290360 0.169460 -0.531833
O3    O     O_R   0.284290 0.790360 0.830540 -0.530346
O4    O     O_R   0.715710 0.790360 0.169460 -0.545664
O5    O     O_R   0.554690 0.080440 0.673480 -0.507950
O6    O     O_R   0.445310 0.080440 0.326520 -0.502496
O7    O     O_R   0.054690 0.580440 0.673480 -0.510504
O8    O     O_R   0.945310 0.580440 0.326520 -0.501867
O9    O     O_R   0.543980 0.282110 0.666770 -0.447042
O10   O     O_R   0.456020 0.282110 0.333230 -0.486489
O11   O     O_R   0.043980 0.782110 0.666770 -0.444738
O12   O     O_R   0.956020 0.782110 0.333230 -0.490793
O13   O     O_R   0.679070 0.374030 0.674430 -0.494680
O14   O     O_R   0.320930 0.374030 0.325570 -0.489783
O15   O     O_R   0.179070 0.874030 0.674430 -0.488871
O16   O     O_R   0.820930 0.874030 0.325570 -0.498257
O17   O     O_3   0.665360 0.165350 0.749070 -0.334160
O18   O     O_3   0.334640 0.165350 0.250930 -0.376958
O19   O     O_3   0.165360 0.665350 0.749070 -0.343409
O20   O     O_3   0.834640 0.665350 0.250930 -0.366732
O21   O     O_R   0.762610 0.041070 0.825230 -0.484696
O22   O     O_R   0.237390 0.041070 0.174770 -0.452585
O23   O     O_R   0.262610 0.541070 0.825230 -0.449338
O24   O     O_R   0.737390 0.541070 0.174770 -0.486835
O25   O     O_R   0.667390 0.924160 0.829970 -0.399502
O26   O     O_R   0.332610 0.924160 0.170030 -0.410535
O27   O     O_R   0.167390 0.424160 0.829970 -0.417998
O28   O     O_R   0.832610 0.424160 0.170030 -0.419100
O29   O     O_R   0.553980 0.081420 0.821780 -0.527736
O30   O     O_R   0.446020 0.081420 0.178220 -0.517189
O31   O     O_R   0.053980 0.581420 0.821780 -0.526844
O32   O     O_R   0.946020 0.581420 0.178220 -0.519220
O33   O     O_R   0.543210 0.283170 0.826740 -0.435730
O34   O     O_R   0.456790 0.283170 0.173260 -0.478669
O35   O     O_R   0.043210 0.783170 0.826740 -0.480205
O36   O     O_R   0.956790 0.783170 0.173260 -0.437132
O37   O     O_R   0.678350 0.375000 0.822720 -0.447288
O38   O     O_R   0.321650 0.375000 0.177280 -0.470560
O39   O     O_R   0.178350 0.875000 0.822720 -0.470141
O40   O     O_R   0.821650 0.875000 0.177280 -0.435408
O41   O     O_R   0.785060 0.289300 0.670580 -0.511020
O42   O     O_R   0.214940 0.289300 0.329420 -0.458523
O43   O     O_R   0.285060 0.789300 0.670580 -0.507302
O44   O     O_R   0.714940 0.789300 0.329420 -0.460417
O45   O     O_R   0.763330 0.040090 0.676940 -0.439868
O46   O     O_R   0.236670 0.040090 0.323060 -0.438360
O47   O     O_R   0.263330 0.540090 0.676940 -0.443847
O48   O     O_R   0.736670 0.540090 0.323060 -0.434695
O49   O     O_R   0.668160 0.923110 0.670000 -0.475971
O50   O     O_R   0.331840 0.923110 0.330000 -0.487351
O51   O     O_R   0.168160 0.423110 0.670000 -0.466302
O52   O     O_R   0.831840 0.423110 0.330000 -0.514953
S1    S     S_3+6 0.622128 0.535411 0.420550 -0.033166
O53   O     O_2   0.608035 0.461280 0.354415 -0.299372
O54   O     O_2   0.561073 0.531282 0.470309 -0.319956
O55   O     O_3   0.627395 0.673120 0.392428 -0.515504
H49   H     H_    0.587422 0.682244 0.358126 0.366274
S2    S     S_3+6 0.393819 0.427560 0.610479 0.005320
O56   O     O_2   0.394099 0.335869 0.668576 -0.263552
O57   O     O_2   0.459099 0.416957 0.567220 -0.293925
O58   O     O_3   0.393790 0.561751 0.649718 -0.526847
H50   H     H_    0.435226 0.561937 0.682588 0.374028
S3    S     S_3+6 0.122129 0.035388 0.420524 -0.033294
O59   O     O_2   0.108054 0.961300 0.354366 -0.294775
O60   O     O_2   0.061062 0.031225 0.470266 -0.320798
O61   O     O_3   0.127406 0.173122 0.392450 -0.516631
H51   H     H_    0.087462 0.182259 0.358114 0.364995
S4    S     S_3+6 0.893857 0.927758 0.610387 -0.001722
O62   O     O_2   0.894221 0.836054 0.668471 -0.292054
O63   O     O_2   0.959114 0.917226 0.567083 -0.289740
O64   O     O_3   0.893799 0.061925 0.649655 -0.525687
H52   H     H_    0.935501 0.062402 0.682171 0.373106
N1    N     N_3   0.815851 0.184544 0.419304 -0.614031
H53   H     H_    0.768454 0.167796 0.444765 0.235488
H54   H     H_    0.845613 0.107030 0.422204 0.258345
N2    N     N_3   0.067475 0.374767 0.550435 -0.574472
H55   H     H_    0.066922 0.286064 0.533558 0.274333
H56   H     H_    0.023650 0.415465 0.526936 0.248249
N3    N     N_3   0.315704 0.684436 0.419283 -0.580094
H57   H     H_    0.268304 0.667769 0.444754 0.231849
H58   H     H_    0.345424 0.606877 0.422182 0.258964
N4    N     N_3   0.567477 0.874519 0.550488 -0.574929
H59   H     H_    0.566925 0.785853 0.533539 0.273574
H60   H     H_    0.523633 0.915259 0.527053 0.248497
N5    N     N_3   0.922421 0.282504 0.572014 -0.626906
H61   H     H_    0.916825 0.289637 0.627538 0.285145
H62   H     H_    0.951321 0.205692 0.562102 0.290264
N6    N     N_3   0.155716 0.525834 0.406475 -0.669688
H63   H     H_    0.197077 0.513739 0.371393 0.279996
H64   H     H_    0.112912 0.543109 0.372335 0.243942
N7    N     N_3   0.422362 0.782274 0.571963 -0.625197
H65   H     H_    0.416784 0.789425 0.627489 0.287769
H66   H     H_    0.451229 0.705427 0.562047 0.289613
N8    N     N_3   0.655674 0.025834 0.406610 -0.672627
H67   H     H_    0.697057 0.013823 0.371545 0.272945
H68   H     H_    0.612873 0.043118 0.372473 0.244613
S5    S     S_3+6 0.560679 0.527028 0.937617 0.104846
O65   O     O_2   0.515086 0.625180 0.965116 -0.194283
O66   O     O_2   0.544481 0.508936 0.859154 -0.193988
O67   O     O_3   0.545142 0.403764 0.983001 -0.546767
H69   H     H_    0.581114 0.346762 0.967018 0.318116
S6    S     S_3+6 0.395783 0.615325 0.111575 0.090700
O68   O     O_2   0.429321 0.734165 0.101500 -0.276806
O69   O     O_2   0.396810 0.587400 0.190328 -0.216131
O70   O     O_3   0.443669 0.512880 0.068981 -0.431789
H70   H     H_    0.421133 0.435980 0.079064 0.345798
S7    S     S_3+6 0.100964 0.108655 0.892767 0.087427
O71   O     O_2   0.066479 0.226013 0.905759 -0.280089
O72   O     O_2   0.097429 0.081754 0.813687 -0.228076
O73   O     O_3   0.055950 0.003538 0.935680 -0.429897
H71   H     H_    0.080105 0.928139 0.925212 0.343099
S8    S     S_3+6 0.939298 0.024565 0.065549 0.106914
O74   O     O_2   0.986223 0.120695 0.038287 -0.188886
O75   O     O_2   0.953840 0.009682 0.144438 -0.190990
O76   O     O_3   0.954505 0.898915 0.021600 -0.549131
H72   H     H_    0.917805 0.843176 0.037269 0.316754
S9    S     S_3+6 0.674390 0.672964 0.887551 0.051702
O77   O     O_2   0.613176 0.755966 0.884319 -0.225627
O78   O     O_2   0.740407 0.736176 0.911088 -0.350150
O79   O     O_3   0.684721 0.613481 0.805440 -0.472551
H73   H     H_    0.735556 0.618973 0.796033 0.347650
S10   S     S_3+6 0.242790 0.682496 0.136287 0.051473
O80   O     O_2   0.278415 0.720717 0.205195 -0.178437
O81   O     O_2   0.209681 0.788184 0.101156 -0.310279
O82   O     O_3   0.176716 0.592014 0.158799 -0.552180
H74   H     H_    0.146889 0.639897 0.190856 0.371726
S11   S     S_3+6 0.252277 0.178930 0.862316 0.062700
O83   O     O_2   0.213636 0.217448 0.795585 -0.151677
O84   O     O_2   0.287275 0.284959 0.896325 -0.321053
O85   O     O_3   0.316408 0.088273 0.834574 -0.522503
H75   H     H_    0.357722 0.107305 0.865464 0.351588
S12   S     S_3+6 0.825659 0.172964 0.113053 0.046974
O86   O     O_2   0.887500 0.255131 0.117111 -0.253279
O87   O     O_2   0.760120 0.235668 0.088639 -0.327757
O88   O     O_3   0.813323 0.114440 0.194534 -0.486358
H76   H     H_    0.807937 0.183451 0.227088 0.380123

loop_
_geom_bond_atom_site_label_1
_geom_bond_atom_site_label_2
_ccdc_geom_bond_type
Cr2   O18   S    
C55   C59   A    
S3    O60   D    
Cr10  O34   S    
Cr4   O44   S    
C53   C69   A    
C99   O15   A    
C97   O13   A    
C49   H7    S    
O73   H71   S    
C21   H39   S    
S8    O74   D    
C100  O16   A    
C96   O12   A    
C73   N1    S    
S1    O55   S    
C28   S8    S    
S6    O68   D    
C94   O6    A    
C4    O24   A    
C64   C84   A    
N4    H60   S    
C42   H46   S    
C93   O9    A    
S12   O88   S    
O67   H69   S    
C56   C72   A    
Cr3   O19   S    
C98   O42   A    
N1    H53   S    
Cr12  O36   S    
C82   C98   S    
Cr7   O7    S    
O55   H49   S    
Cr5   O5    S    
C2    C111  S    
C31   C87   S    
C51   C52   S    
C84   C100  S    
C27   S11   S    
C92   O52   A    
C50   H10   S    
C41   H45   S    
C60   C76   S    
C3    O23   A    
C17   C109  A    
C86   O2    A    
C1    O21   A    
C43   C44   A    
C44   H48   S    
C37   C38   A    
C66   C82   A    
C10   C30   A    
C54   C70   A    
C11   C27   S    
C68   C72   A    
C48   O36   A    
Cr7   O51   S    
Cr3   O43   S    
C96   O8    A    
S2    O57   D    
C75   H19   S    
C103  H28   S    
C23   H43   S    
C76   H20   S    
S5    O66   D    
C68   H16   S    
N7    H66   S    
C49   H9    S    
C100  O44   A    
C43   H47   S    
Cr2   O22   S    
S8    O76   S    
C85   O37   A    
C57   C61   A    
C19   C111  A    
C59   C63   A    
C105  H1    S    
C60   C64   A    
C107  H3    S    
C95   O11   A    
C66   C70   A    
S7    O72   D    
C78   H22   S    
C102  H25   S    
C22   H42   S    
Cr2   O2    S    
C5    C21   S    
C88   O40   A    
C73   C77   S    
C75   C79   S    
C104  C107  D    
C55   C71   A    
C39   C51   S    
C4    C109  S    
C67   C83   A    
Cr6   O50   S    
Cr2   O42   S    
C33   C94   S    
C51   H5    S    
C35   C96   S    
C20   H36   S    
C80   N8    S    
C33   C42   A    
Cr12  O12   S    
C55   C90   S    
C1    C112  S    
Cr9   O17   S    
Cr10  O14   S    
C3    C110  S    
C32   C88   S    
C74   N2    S    
N5    H61   S    
C57   C73   S    
Cr3   O3    S    
C61   C77   S    
Cr11  O11   S    
C107  C108  S    
Cr10  O38   S    
C71   S3    S    
Cr4   O48   S    
C76   N4    S    
O58   H50   S    
C15   H31   S    
S12   O87   D    
Cr8   O52   S    
C77   N5    S    
O70   H70   S    
C14   H30   S    
Cr6   O30   S    
Cr2   O46   S    
C39   C40   A    
Cr12  O16   S    
C93   O5    A    
C5    C9    A    
C22   H40   S    
C66   H14   S    
C80   H24   S    
C8    C12   A    
S9    O77   D    
C108  H4    S    
N8    H68   S    
Cr6   O6    S    
C56   C89   S    
C22   C26   S    
C52   H12   S    
S3    O61   S    
Cr6   O26   S    
C58   C74   S    
C101  C106  D    
C46   O34   A    
C21   C25   S    
C87   O39   A    
C62   C78   S    
C1    O25   A    
C24   C28   S    
N6    H63   S    
C15   C31   A    
C16   C32   A    
C87   O3    A    
C48   O32   A    
C88   O4    A    
C13   C17   A    
S8    O75   D    
C65   H13   S    
C61   C81   A    
C36   C95   S    
Cr8   O32   S    
S4    O62   D    
S1    O54   D    
S6    O69   D    
Cr4   O20   S    
S11   O85   S    
C25   S5    S    
C90   O46   A    
Cr4   O24   S    
C4    O28   A    
C49   C50   S    
C78   N6    S    
C26   S10   S    
C97   O41   A    
C58   C62   A    
C59   C75   S    
S6    O70   S    
C79   N7    S    
C41   C42   A    
Cr9   O33   S    
Cr5   O17   S    
C9    C25   S    
N3    H57   S    
C73   H17   S    
C15   C19   A    
C12   C28   S    
Cr7   O27   S    
C13   C29   A    
C8    C112  A    
S10   O80   D    
O64   H52   S    
C6    C22   S    
C101  H26   S    
S9    O79   S    
C21   H41   S    
C102  C105  D    
C20   C112  A    
N2    H56   S    
C16   H32   S    
S3    O59   D    
C62   C82   A    
C83   C99   S    
S5    O65   D    
C64   C80   S    
C34   C41   A    
C75   N3    S    
Cr10  O18   S    
C47   C103  S    
O88   H76   S    
C68   C84   A    
C76   C80   S    
Cr7   O31   S    
C67   H15   S    
S10   O82   S    
C53   C57   A    
C79   H23   S    
Cr12  O40   S    
S4    O64   S    
C33   C37   A    
C56   C60   A    
C63   C83   A    
C2    O22   A    
C35   C39   A    
S11   O83   D    
N4    H59   S    
C18   H34   S    
C37   C49   S    
C65   C81   A    
O76   H72   S    
C47   O31   A    
C13   H29   S    
C50   H8    S    
N1    H54   S    
Cr11  O19   S    
Cr12  O20   S    
N2    H55   S    
Cr9   O9    S    
Cr3   O23   S    
O61   H51   S    
C45   O33   A    
Cr1   O21   S    
C86   O38   A    
C69   S1    S    
C6    C10   A    
Cr1   O17   S    
C105  C106  S    
C106  H2    S    
C19   H35   S    
Cr8   O8    S    
S7    O71   D    
C54   C91   S    
C98   O14   A    
C89   O49   A    
Cr6   O18   S    
C5    C109  A    
C65   C69   A    
Cr8   O28   S    
C7    C111  A    
C67   C71   A    
S2    O56   D    
C46   O30   A    
C18   C110  A    
C74   C78   S    
S5    O67   S    
C36   C43   A    
C94   O10   A    
O82   H74   S    
C14   C18   A    
Cr5   O49   S    
C34   C93   S    
Cr1   O41   S    
C63   C79   S    
C7    C11   A    
C46   C102  S    
C81   C97   S    
C104  H27   S    
O79   H73   S    
C24   H44   S    
Cr7   O19   S    
C90   O50   A    
Cr8   O20   S    
C7    C23   S    
N3    H58   S    
C48   C104  S    
C2    O26   A    
S2    O58   S    
S7    O73   S    
C92   O48   A    
C28   S12   S    
C8    C24   S    
C51   H11   S    
Cr11  O39   S    
C85   O1    A    
C72   S4    S    
C103  C108  D    
C23   C27   S    
C30   C86   S    
C16   C20   A    
C10   C26   S    
C74   H18   S    
C11   C31   A    
C12   C32   A    
C91   O47   A    
C6    C110  A    
Cr3   O47   S    
C14   C30   A    
Cr5   O29   S    
Cr1   O45   S    
Cr4   O4    S    
C36   C40   A    
N6    H64   S    
C26   S6    S    
C27   S7    S    
C40   C52   S    
C89   O45   A    
C25   S9    S    
N5    H62   S    
C70   S2    S    
C3    O27   A    
C17   H33   S    
C53   C92   S    
S4    O63   D    
S1    O53   D    
Cr11  O35   S    
C35   C44   A    
S11   O84   D    
C45   C101  S    
C95   O7    A    
S12   O86   D    
Cr9   O37   S    
C77   H21   S    
Cr5   O25   S    
Cr1   O1    S    
C54   C58   A    
O85   H75   S    
C34   C38   A    
C29   C85   S    
C24   H38   S    
C38   C50   S    
C9    C29   A    
C47   O35   A    
C52   H6    S    
N7    H65   S    
S10   O81   D    
C99   O43   A    
S9    O78   D    
Cr11  O15   S    
N8    H67   S    
Cr9   O13   S    
Cr10  O10   S    
C45   O29   A    
C91   O51   A    
C23   H37   S    
