data_mof_unit_64484.cif
_audit_creation_date              2012-12-10T17:06:38-0500
_audit_creation_method            fapswitch 2.2
_symmetry_space_group_name_H-M    P1
_symmetry_Int_Tables_number       1
_space_group_crystal_system       triclinic
_cell_length_a                    14.152988
_cell_length_b                    10.754051
_cell_length_c                    10.052387
_cell_angle_alpha                 89.684487
_cell_angle_beta                  89.619187
_cell_angle_gamma                 90.220727
_cell_volume                      1529.92438974

loop_
_atom_site_label
_atom_site_type_symbol
_atom_type_description
_atom_site_fract_x
_atom_site_fract_y
_atom_site_fract_z
_atom_type_partial_charge
C1    C     C_R   0.502307 0.262727 0.500136 0.924615
C2    C     C_R   0.498482 0.737242 0.499659 0.920606
C3    C     C_R   0.670753 0.500144 0.499593 0.884613
C4    C     C_1   0.227751 0.499935 0.501034 -0.208503
C5    C     C_1   0.142497 0.500046 0.500880 -0.011025
C6    C     C_1   0.042611 0.500198 0.500206 0.007219
C7    C     C_1   0.957365 0.500298 0.499531 0.006058
C8    C     C_1   0.857482 0.500340 0.498935 -0.010453
C9    C     C_3   0.399480 0.324642 0.888794 -0.675141
C10   C     C_3   0.722628 0.651896 0.056726 -0.823241
C11   C     C_1   0.772233 0.500285 0.498884 -0.195271
C12   C     C_2   0.509258 0.933501 0.388280 -0.162171
C13   C     C_2   0.490988 0.868753 0.499149 -0.328101
C14   C     C_2   0.503621 0.067353 0.387830 -0.150807
C15   C     C_2   0.512258 0.131330 0.500628 -0.340184
C16   C     C_2   0.547413 0.578289 0.926138 -0.104684
C17   C     C_2   0.561884 0.561724 0.074578 0.215292
C18   C     C_R   0.329243 0.499859 0.500397 0.890507
H1    H     H_    0.527046 0.888119 0.295123 0.164137
H2    H     H_    0.348509 0.388897 0.841087 0.249057
H3    H     H_    0.624870 0.680791 0.210576 0.253332
H4    H     H_    0.783327 0.672353 0.122600 0.250071
H5    H     H_    0.707294 0.736581 0.997089 0.226415
H6    H     H_    0.742823 0.574015 0.990259 0.257171
H7    H     H_    0.467943 0.910985 0.591405 0.148311
H8    H     H_    0.492668 0.113217 0.292603 0.173595
H9    H     H_    0.529431 0.088541 0.595257 0.150522
H10   H     H_    0.576893 0.660489 0.878513 0.142466
H11   H     H_    0.437857 0.478346 0.104091 0.171557
H12   H     H_    0.540645 0.344547 0.964870 0.208519
H13   H     H_    0.372647 0.300376 0.989676 0.188224
H14   H     H_    0.404149 0.238130 0.829544 0.231499
N1    N     N_2   0.500930 0.501330 0.852150 -0.026027
N2    N     N_2   0.500950 0.501360 0.147810 -0.223406
N3    N     N_2   0.492225 0.380428 0.898700 -0.221666
N4    N     N_2   0.641431 0.617835 0.137384 -0.260905
O1    O     O_R   0.499990 0.319060 0.613040 -0.591202
O2    O     O_R   0.500010 0.319100 0.386900 -0.607669
O3    O     O_R   0.373700 0.499980 0.613090 -0.595059
O4    O     O_R   0.373730 0.500020 0.386960 -0.597430
O5    O     O_R   0.499990 0.680900 0.613100 -0.618647
O6    O     O_R   0.500010 0.680940 0.386960 -0.627275
O7    O     O_R   0.626270 0.499980 0.613040 -0.591749
O8    O     O_R   0.626300 0.500020 0.386910 -0.581592
Zn1   Zn    Zn3+2 0.499980 0.499970 0.650990 0.954104
Zn2   Zn    Zn3+2 0.500020 0.500030 0.349010 0.934319

loop_
_geom_bond_atom_site_label_1
_geom_bond_atom_site_label_2
_ccdc_geom_bond_type
C16   H10   S    
C10   N4    S    
C18   O3    A    
C6    C7    T    
C1    C15   S    
C17   N4    S    
C16   N1    D    
N1    Zn1   S    
C9    H2    S    
C15   H9    S    
C1    O1    A    
O3    Zn1   S    
C4    C18   S    
C7    C8    S    
H3    N4    S    
C14   H8    S    
O4    Zn2   S    
O7    Zn1   S    
C3    O7    A    
H12   N3    S    
C2    O6    A    
C8    C11   T    
N2    Zn2   S    
C1    O2    A    
C12   H1    S    
N1    N3    S    
O8    Zn2   S    
C5    C6    S    
C10   H5    S    
C3    O8    A    
O2    Zn2   S    
C3    C11   S    
C17   N2    D    
C9    H13   S    
C2    O5    A    
O1    Zn1   S    
C12   C13   D    
O6    Zn2   S    
C9    N3    S    
C2    C13   S    
O5    Zn1   S    
C14   C15   D    
C16   C17   S    
C18   O4    A    
C9    H14   S    
C10   H6    S    
H11   N2    S    
C10   H4    S    
C12   C14   S    
C4    C5    T    
C13   H7    S    
