data_mof_unit_34874.cif
_audit_creation_date              2012-12-10T20:44:50-0500
_audit_creation_method            fapswitch 2.2
_symmetry_space_group_name_H-M    P1
_symmetry_Int_Tables_number       1
_space_group_crystal_system       triclinic
_cell_length_a                    9.858283
_cell_length_b                    10.755
_cell_length_c                    16.669989
_cell_angle_alpha                 88.469925
_cell_angle_beta                  94.646067
_cell_angle_gamma                 90.758732
_cell_volume                      1760.90478018

loop_
_atom_site_label
_atom_site_type_symbol
_atom_type_description
_atom_site_fract_x
_atom_site_fract_y
_atom_site_fract_z
_atom_type_partial_charge
C1    C     C_R   0.498456 0.259929 0.498664 0.909489
C2    C     C_R   0.651164 0.572468 0.778552 -0.325835
C3    C     C_R   0.583228 0.517135 0.134713 0.490903
C4    C     C_R   0.588913 0.499210 0.217688 -0.332753
C5    C     C_R   0.459583 0.555371 0.092849 0.207005
C6    C     C_R   0.471876 0.512938 0.258793 -0.102612
C7    C     C_R   0.347736 0.543223 0.216305 -0.204889
C8    C     C_R   0.341958 0.563867 0.133580 -0.274524
C9    C     C_R   0.598760 0.066554 0.459410 -0.021523
C10   C     C_R   0.491388 0.128291 0.490143 -0.202943
C11   C     C_R   0.373257 0.060609 0.508698 0.527031
C12   C     C_R   0.517084 0.511905 0.652921 0.880760
C13   C     C_R   0.380506 0.931801 0.513902 -0.371478
C14   C     C_R   0.497808 0.871491 0.494618 -0.144454
C15   C     C_R   0.601872 0.939280 0.462076 0.019238
C16   C     C_3   0.753750 0.938284 0.478406 0.354951
C17   C     C_3   0.750285 0.080603 0.473584 -0.575275
C18   C     C_R   0.074838 0.403403 0.534417 0.072642
C19   C     C_R   0.068215 0.584573 0.453572 0.508844
C20   C     C_R   0.922306 0.584229 0.454340 -0.203595
C21   C     C_R   0.933510 0.404080 0.535606 0.086695
C22   C     C_3   0.942790 0.351455 0.620416 0.355987
C23   C     C_R   0.500601 0.739808 0.500082 0.902538
C24   C     C_3   0.097147 0.352036 0.617737 -0.511705
C25   C     C_R   0.482176 0.502425 0.346161 0.885120
C26   C     C_R   0.524297 0.555930 0.735861 -0.147334
C27   C     C_R   0.406044 0.595591 0.770392 0.459062
C28   C     C_R   0.415186 0.625672 0.851382 -0.302781
C29   C     C_R   0.541417 0.623356 0.896817 0.276519
C30   C     C_R   0.659937 0.605678 0.858731 -0.202841
H1    H     H_    0.685270 0.474262 0.249596 0.182077
H2    H     H_    0.297054 0.879679 0.537201 0.179803
H3    H     H_    0.802383 0.898718 0.427134 0.086459
H4    H     H_    0.783216 0.129550 0.529474 0.189438
H5    H     H_    0.795768 0.119740 0.419361 0.176200
H6    H     H_    0.860986 0.650606 0.418382 0.158638
H7    H     H_    0.895695 0.256955 0.624044 0.043158
H8    H     H_    0.151557 0.418527 0.659023 0.277470
H9    H     H_    0.139730 0.257198 0.621207 0.213343
H10   H     H_    0.758464 0.609817 0.892419 0.160175
H11   H     H_    0.743293 0.560815 0.749610 0.243062
H12   H     H_    0.256079 0.553871 0.247076 0.201660
H13   H     H_    0.322932 0.645246 0.879658 0.156152
H14   H     H_    0.246056 0.588590 0.101107 0.168060
N1    N     N_2   0.550432 0.621512 0.981567 -0.119790
N2    N     N_2   0.447107 0.574344 0.008863 -0.197876
N3    N     N_R   0.142860 0.499130 0.500540 -0.129548
N4    N     N_R   0.857210 0.499170 0.500530 -0.101548
O1    O     O_R   0.614690 0.316790 0.499990 -0.629664
O2    O     O_R   0.385350 0.316760 0.500000 -0.561991
O3    O     O_R   0.627460 0.498860 0.616130 -0.576060
O4    O     O_R   0.398120 0.498820 0.616130 -0.573118
O5    O     O_R   0.614650 0.683240 0.500000 -0.590349
O6    O     O_R   0.385310 0.683210 0.500010 -0.609961
O7    O     O_R   0.601880 0.501180 0.383870 -0.633814
O8    O     O_R   0.372540 0.501140 0.383870 -0.584845
Zn1   Zn    Zn3+2 0.653130 0.500020 0.499990 0.981421
Zn2   Zn    Zn3+2 0.346870 0.499980 0.500010 1.013206
O9    O     O_3   0.802144 0.879409 0.552913 -0.590118
C31   C     C_3   0.764720 0.937517 0.623147 0.116645
H15   H     H_    0.668166 0.989993 0.614303 0.144983
H16   H     H_    0.847856 0.001882 0.645117 0.130296
C32   C     C_3   0.745282 0.838655 0.688008 -0.812045
H17   H     H_    0.839789 0.784432 0.701039 0.260228
H18   H     H_    0.719220 0.882950 0.744093 0.200354
H19   H     H_    0.660858 0.775114 0.667223 0.254274
O10   O     O_3   0.137286 0.659875 0.401029 -0.584623
C33   C     C_3   0.088932 0.783140 0.394450 0.056729
H20   H     H_    0.178888 0.846150 0.398938 0.181198
H21   H     H_    0.025357 0.809243 0.443462 0.123359
C34   C     C_3   0.014466 0.807096 0.311841 -0.883669
H22   H     H_    0.925369 0.743752 0.302050 0.252342
H23   H     H_    0.978779 0.904717 0.307024 0.209427
H24   H     H_    0.084448 0.792117 0.264105 0.269027
O11   O     O_3   0.903033 0.434812 0.677660 -0.569886
C35   C     C_3   0.914461 0.374287 0.754407 -0.341021
H25   H     H_    0.921905 0.445261 0.801642 0.184295
H26   H     H_    0.007621 0.316701 0.765356 0.162513
H27   H     H_    0.822601 0.315552 0.762135 0.169482
O12   O     O_3   0.699824 0.501188 0.095470 -0.602251
C36   C     C_3   0.706737 0.375153 0.074764 0.102998
H28   H     H_    0.615573 0.347192 0.035071 0.144087
H29   H     H_    0.715020 0.313593 0.129747 0.131247
C37   C     C_3   0.832310 0.356720 0.029259 -0.822446
H30   H     H_    0.925320 0.383552 0.067252 0.257087
H31   H     H_    0.839582 0.257510 0.013463 0.202192
H32   H     H_    0.825716 0.414639 0.972980 0.249174
O13   O     O_3   0.280792 0.598885 0.726370 -0.606667
C38   C     C_3   0.237687 0.723602 0.716043 0.082384
H33   H     H_    0.321240 0.786537 0.697548 0.129827
H34   H     H_    0.199833 0.757045 0.772622 0.138512
C39   C     C_3   0.121621 0.730970 0.650354 -0.777735
H35   H     H_    0.159302 0.706832 0.592042 0.250686
H36   H     H_    0.081268 0.827006 0.645123 0.210475
H37   H     H_    0.038522 0.665295 0.664444 0.286950
O14   O     O_3   0.260535 0.120434 0.533412 -0.600053
C40   C     C_3   0.140534 0.080528 0.488780 -0.356457
H38   H     H_    0.154974 0.070246 0.423685 0.156612
H39   H     H_    0.060982 0.151408 0.492408 0.184885
H40   H     H_    0.101050 0.993057 0.515488 0.170703

loop_
_geom_bond_atom_site_label_1
_geom_bond_atom_site_label_2
_ccdc_geom_bond_type
C11   O14   S    
C32   H18   S    
C18   C21   A    
C13   H2    S    
C19   C20   A    
C37   H32   S    
C18   N3    A    
C12   O3    A    
C40   H38   S    
N4    Zn1   S    
N1    N2    D    
C26   C27   A    
C31   C32   S    
C18   C24   S    
C28   C29   A    
C35   H26   S    
C19   N3    A    
C6    C25   S    
C2    H11   S    
C15   C16   S    
C24   H9    S    
O1    Zn1   S    
C31   H16   S    
C7    H12   S    
C36   H29   S    
C16   C17   S    
C24   H8    S    
C25   O8    A    
C19   O10   S    
O3    Zn1   S    
C38   H34   S    
C1    O2    A    
C21   N4    A    
C32   H19   S    
O9    C31   S    
C21   C22   S    
C22   O11   S    
C3    O12   S    
C9    C10   A    
C40   H39   S    
C23   O5    A    
O10   C33   S    
O2    Zn2   S    
C8    H14   S    
C7    C8    A    
C37   H30   S    
C4    C6    A    
C34   H23   S    
O5    Zn1   S    
C33   H20   S    
C22   H7    S    
C39   H37   S    
C36   H28   S    
C12   C26   S    
C31   H15   S    
C16   O9    S    
C14   C23   S    
O11   C35   S    
C29   C30   A    
C16   H3    S    
C5    C8    A    
O14   C40   S    
C39   H36   S    
C30   H10   S    
C2    C26   A    
C35   H25   S    
C38   C39   S    
C20   N4    A    
O4    Zn2   S    
C9    C17   S    
O7    Zn1   S    
C22   C24   S    
C17   H4    S    
C3    C4    A    
C36   C37   S    
C23   O6    A    
O6    Zn2   S    
C40   H40   S    
C1    C10   S    
C25   O7    A    
C37   H31   S    
O12   C36   S    
C3    C5    A    
C34   H24   S    
C6    C7    A    
C5    N2    S    
C12   O4    A    
C28   H13   S    
C2    C30   A    
C9    C15   A    
C34   H22   S    
N3    Zn2   S    
C11   C13   A    
C33   C34   S    
C39   H35   S    
O8    Zn2   S    
C27   O13   S    
C4    H1    S    
C10   C11   A    
C32   H17   S    
C20   H6    S    
C35   H27   S    
O13   C38   S    
C33   H21   S    
C29   N1    S    
C27   C28   A    
C14   C15   A    
C17   H5    S    
C38   H33   S    
C13   C14   A    
C1    O1    A    
