data_mof_unit_47977.cif
_audit_creation_date              2012-12-10T18:14:38-0500
_audit_creation_method            fapswitch 2.2
_symmetry_space_group_name_H-M    P1
_symmetry_Int_Tables_number       1
_space_group_crystal_system       triclinic
_cell_length_a                    10.75968
_cell_length_b                    9.528067
_cell_length_c                    27.721063
_cell_angle_alpha                 90.690164
_cell_angle_beta                  88.197663
_cell_angle_gamma                 88.552722
_cell_volume                      2839.38774063

loop_
_atom_site_label
_atom_site_type_symbol
_atom_type_description
_atom_site_fract_x
_atom_site_fract_y
_atom_site_fract_z
_atom_type_partial_charge
C1    C     C_R   0.259833 0.500938 0.498213 0.829665
C2    C     C_R   0.531005 0.612745 0.277299 -0.109236
C3    C     C_R   0.522172 0.483874 0.252886 0.355318
C4    C     C_R   0.556898 0.445154 0.101131 -0.106046
C5    C     C_R   0.441126 0.426863 0.125282 -0.005777
C6    C     C_R   0.337505 0.391459 0.098947 -0.115164
C7    C     C_R   0.661425 0.480490 0.127908 -0.143077
C8    C     C_R   0.505050 0.495353 0.354248 -0.030489
C9    C     C_R   0.521210 0.493878 0.646921 -0.230624
C10   C     C_R   0.474542 0.367664 0.973276 0.046412
C11   C     C_R   0.683541 0.464131 0.974480 0.077159
C12   C     C_R   0.500715 0.499055 0.407502 0.764499
C13   C     C_R   0.582334 0.415104 0.948368 0.086738
C14   C     C_R   0.381218 0.304674 0.946377 -0.197987
C15   C     C_R   0.388933 0.300049 0.896320 -0.123264
C16   C     C_R   0.488734 0.360231 0.871311 -0.033154
C17   C     C_R   0.586905 0.417396 0.897082 -0.053585
C18   C     C_R   0.687431 0.479510 0.871674 -0.094150
C19   C     C_R   0.679888 0.492553 0.820865 0.541679
C20   C     C_R   0.490642 0.367411 0.820919 0.610513
C21   C     C_R   0.528309 0.585184 0.729928 -0.230276
C22   C     C_R   0.500156 0.605494 0.681399 -0.081111
C23   C     C_R   0.739363 0.498427 0.497023 0.778113
C24   C     C_R   0.567637 0.364959 0.664658 -0.274249
C25   C     C_R   0.595785 0.346189 0.713000 0.538188
C26   C     C_R   0.573767 0.456541 0.746001 0.239397
C27   C     C_R   0.462437 0.387800 0.024012 0.057588
C28   C     C_R   0.567237 0.428961 0.050207 0.060455
C29   C     C_R   0.682238 0.452364 0.025741 -0.075768
C30   C     C_R   0.347825 0.371772 0.049309 -0.185574
C31   C     C_R   0.778226 0.493642 0.103604 0.431784
C32   C     C_R   0.779930 0.530938 0.948878 -0.202235
C33   C     C_R   0.786272 0.533990 0.898445 -0.007935
C34   C     C_R   0.501596 0.500345 0.593172 0.852237
C35   C     C_R   0.790718 0.464675 0.053534 -0.145614
C36   C     C_3   0.069403 0.620573 0.463477 0.395460
C37   C     C_3   0.062845 0.511057 0.548856 0.386277
C38   C     C_3   0.926149 0.609654 0.460273 -0.426991
C39   C     C_3   0.920980 0.531909 0.546316 -0.435416
C40   C     C_3   0.076753 0.359360 0.474578 -0.583380
C41   C     C_3   0.120848 0.501165 0.496586 0.017030
C42   C     C_3   0.877031 0.496777 0.495264 0.057410
C43   C     C_3   0.933593 0.352797 0.477882 -0.411809
C44   C     C_3   0.612630 0.080723 0.524457 0.504494
C45   C     C_3   0.603817 0.914729 0.529619 0.481914
C46   C     C_3   0.383975 0.089711 0.523745 -0.149546
C47   C     C_3   0.375629 0.926203 0.516387 -0.122123
C48   C     C_3   0.508087 0.081577 0.450954 -0.379144
C49   C     C_3   0.522576 0.914354 0.451355 -0.393561
C50   C     C_R   0.431172 0.444218 0.175521 0.532936
C51   C     C_R   0.646821 0.494051 0.178757 0.566553
C52   C     C_R   0.503808 0.361202 0.279166 -0.104056
C53   C     C_R   0.495421 0.366687 0.329410 -0.227040
C54   C     C_R   0.522169 0.618646 0.327705 -0.228511
Cu1   Cu    Cu3+1 0.499860 0.642410 0.500020 0.977907
Cu2   Cu    Cu3+1 0.499860 0.357590 0.500020 0.954835
H1    H     H_    0.530280 0.719157 0.345830 0.145146
H2    H     H_    0.497185 0.261213 0.260555 0.136255
H3    H     H_    0.851754 0.583446 0.968029 0.161528
H4    H     H_    0.581677 0.275366 0.641302 0.262844
H5    H     H_    0.112821 0.601990 0.426672 0.044144
H6    H     H_    0.082713 0.408044 0.566279 0.119183
H7    H     H_    0.880531 0.713280 0.469136 0.190953
H8    H     H_    0.895273 0.642958 0.555316 0.199043
H9    H     H_    0.545098 0.708079 0.257198 0.133898
H10   H     H_    0.901781 0.582587 0.422616 0.128875
H11   H     H_    0.874432 0.466339 0.573894 0.097773
H12   H     H_    0.109815 0.348353 0.436236 0.184294
H13   H     H_    0.115463 0.267750 0.494127 0.221817
H14   H     H_    0.897811 0.323893 0.441960 0.181340
H15   H     H_    0.906370 0.269424 0.503488 0.190741
H16   H     H_    0.694226 0.101128 0.499639 -0.000956
H17   H     H_    0.692452 0.870553 0.512997 0.002583
H18   H     H_    0.423719 0.112392 0.430949 0.179124
H19   H     H_    0.455619 0.870882 0.425729 0.193890
H20   H     H_    0.587997 0.125226 0.430145 0.174758
H21   H     H_    0.616449 0.881143 0.436709 0.154234
H22   H     H_    0.304549 0.134051 0.503793 0.130562
H23   H     H_    0.313735 0.911740 0.485506 0.116247
H24   H     H_    0.247311 0.378739 0.116629 0.210757
H25   H     H_    0.507853 0.668043 0.756417 0.173476
H26   H     H_    0.314071 0.252389 0.877253 0.195276
H27   H     H_    0.301768 0.255988 0.963206 0.142546
H28   H     H_    0.263035 0.348827 0.031383 0.166569
H29   H     H_    0.482091 0.269860 0.348745 0.147070
N1    N     N_R   0.533203 0.476359 0.201129 -0.474160
N2    N     N_R   0.583926 0.434797 0.796936 -0.448208
N3    N     N_3   0.500250 0.143650 0.501060 -0.205398
N4    N     N_3   0.500250 0.856350 0.501060 -0.198487
O1    O     O_R   0.317570 0.620260 0.500030 -0.533189
O2    O     O_R   0.317570 0.379740 0.500030 -0.595288
O3    O     O_R   0.499900 0.620250 0.430280 -0.604334
O4    O     O_R   0.499900 0.379750 0.430280 -0.601348
O5    O     O_R   0.682190 0.620260 0.500010 -0.611838
O6    O     O_R   0.682190 0.379740 0.500010 -0.578855
O7    O     O_R   0.499860 0.620280 0.569750 -0.502921
O8    O     O_R   0.499860 0.379720 0.569750 -0.529782
O9    O     O_2   0.320296 0.428680 0.198750 -0.532052
O10   O     O_2   0.397588 0.311564 0.796028 -0.503973
O11   O     O_2   0.745352 0.521220 0.205959 -0.492795
O12   O     O_2   0.764559 0.565820 0.795481 -0.519324
O13   O     O_3   0.883077 0.521911 0.129311 -0.510986
C55   C     C_3   0.900613 0.668273 0.128681 -0.137122
H30   H     H_    0.820737 0.726799 0.146622 0.141871
H31   H     H_    0.915557 0.706886 0.091260 0.149719
H32   H     H_    0.984996 0.691643 0.148995 0.194115
C56   C     C_2   0.901640 0.589412 0.876174 0.932323
O14   O     O_2   0.962980 0.518139 0.846665 -0.545363
O15   O     O_R   0.944025 0.719835 0.891213 -0.755891
H33   H     H_    0.024970 0.745295 0.874179 0.343099
O16   O     O_3   0.635070 0.215478 0.728306 -0.539772
C57   C     C_3   0.766122 0.211980 0.728358 -0.271506
H34   H     H_    0.800771 0.283137 0.756733 0.195923
H35   H     H_    0.807683 0.239167 0.692480 0.125016
H36   H     H_    0.798364 0.103726 0.736693 0.204805
C58   C     C_2   0.916139 0.421974 0.032892 0.868974
O17   O     O_2   0.009727 0.479463 0.046138 -0.586943
O18   O     O_R   0.926772 0.313415 0.998460 -0.747986
H37   H     H_    0.016014 0.293767 0.987003 0.327970
O19   O     O_3   0.098528 0.754929 0.481766 -0.510635
C59   C     C_3   0.099925 0.854295 0.444222 -0.346104
H38   H     H_    0.013938 0.853195 0.423001 0.146798
H39   H     H_    0.182814 0.835874 0.419780 0.148285
H40   H     H_    0.105618 0.960969 0.460366 0.194105
O20   O     O_3   0.112748 0.621886 0.575821 -0.545666
C60   C     C_3   0.097848 0.596453 0.625847 -0.240503
H41   H     H_    0.009152 0.545045 0.635992 0.120865
H42   H     H_    0.095305 0.698272 0.645489 0.208960
H43   H     H_    0.177588 0.531343 0.638138 0.206315
O21   O     O_3   0.631679 0.146059 0.569527 -0.518281
C61   C     C_3   0.758688 0.148686 0.581437 -0.323682
H44   H     H_    0.788010 0.258734 0.582218 0.164885
H45   H     H_    0.823935 0.086944 0.556971 0.118378
H46   H     H_    0.768303 0.107319 0.618353 0.192316
O22   O     O_3   0.590468 0.877462 0.578870 -0.476294
C62   C     C_3   0.702802 0.821419 0.597312 -0.155574
H47   H     H_    0.788928 0.861439 0.579855 0.083112
H48   H     H_    0.704620 0.705473 0.594453 0.142799
H49   H     H_    0.707143 0.849714 0.636088 0.202016
C63   C     C_2   0.360187 0.140878 0.575726 0.958385
O23   O     O_2   0.417495 0.089585 0.608838 -0.501673
O24   O     O_R   0.265269 0.240491 0.585999 -0.796236
H50   H     H_    0.256542 0.264925 0.621662 0.318763
C64   C     C_2   0.293197 0.867063 0.555692 1.007397
O25   O     O_2   0.331488 0.785017 0.584793 -0.511103
O26   O     O_R   0.170755 0.919994 0.560635 -0.766793
H51   H     H_    0.126062 0.888485 0.591141 0.341416
C65   C     C_2   0.431517 0.736893 0.672907 0.995575
O27   O     O_2   0.487315 0.845755 0.667695 -0.504953
O28   O     O_R   0.302777 0.741204 0.680549 -0.769227
H52   H     H_    0.265868 0.839898 0.678535 0.338423

loop_
_geom_bond_atom_site_label_1
_geom_bond_atom_site_label_2
_ccdc_geom_bond_type
C10   C27   A    
Cu2   O6    S    
C21   C26   A    
C1    O1    A    
C56   O15   S    
C48   H20   S    
O16   C57   S    
C33   C56   S    
C47   H23   S    
Cu1   Cu2   S    
C2    H9    S    
C57   H35   S    
C37   H6    S    
O22   C62   S    
C52   C53   A    
C39   H8    S    
C60   H41   S    
C23   C42   S    
C23   O6    A    
C14   H27   S    
C28   C29   A    
C65   O28   S    
C38   C42   S    
Cu1   O1    S    
C19   N2    A    
Cu1   O5    S    
C5    C6    A    
C9    C22   A    
Cu2   N3    S    
C44   O21   S    
C15   C16   A    
C20   N2    A    
C5    C50   A    
C11   C13   A    
C34   O8    A    
C58   O17   D    
C45   H17   S    
C18   C19   A    
O18   H37   S    
C59   H40   S    
Cu2   O2    S    
C38   H10   S    
C49   H21   S    
C16   C17   A    
C60   H42   S    
C56   O14   D    
C49   H19   S    
C39   C42   S    
C45   N4    S    
C46   N3    S    
Cu1   O7    S    
C8    C12   S    
C61   H46   S    
C1    O2    A    
C21   C22   A    
C3    N1    S    
C37   C41   S    
C47   N4    S    
C36   C41   S    
Cu2   O8    S    
C4    C7    A    
C51   N1    A    
C57   H34   S    
C4    C28   A    
C15   H26   S    
C37   O20   S    
C40   C43   S    
Cu2   O4    S    
C45   O22   S    
C7    C31   A    
C40   H13   S    
O26   H51   S    
C31   O13   S    
C48   H18   S    
C63   O23   D    
C62   H48   S    
C10   C14   A    
C50   O9    S    
C8    C54   A    
C46   H22   S    
C25   O16   S    
C26   N2    S    
C60   H43   S    
C25   C26   A    
C47   C64   S    
C62   H49   S    
Cu1   O3    S    
C6    H24   S    
C24   H4    S    
C48   N3    S    
C17   C18   A    
C21   H25   S    
C35   C58   S    
C55   H31   S    
C16   C20   A    
C24   C25   A    
C59   H38   S    
C52   H2    S    
C64   O26   S    
C40   C41   S    
C6    C30   A    
C22   C65   S    
C11   C32   A    
C43   H14   S    
C2    C54   A    
C9    C34   S    
C31   C35   A    
C12   O4    A    
C42   C43   S    
C61   H44   S    
C27   C28   A    
O19   C59   S    
C46   C63   S    
C38   H7    S    
C1    C41   S    
C51   O11   S    
C46   C47   S    
C48   C49   S    
C43   H15   S    
C49   N4    S    
O28   H52   S    
C39   H11   S    
C12   O3    A    
C44   C45   S    
C34   O7    A    
C64   O25   D    
C61   H45   S    
C10   C13   A    
C8    C53   A    
C53   H29   S    
C3    C52   A    
C9    C24   A    
C63   O24   S    
C29   C35   A    
C23   O5    A    
C13   C17   A    
C32   C33   A    
C36   C38   S    
O21   C61   S    
C7    C51   A    
C37   C39   S    
O15   H33   S    
C19   O12   S    
O20   C60   S    
C20   O10   S    
C58   O18   S    
C44   H16   S    
C55   H32   S    
C65   O27   D    
C30   H28   S    
O13   C55   S    
C36   O19   S    
C18   C33   A    
C59   H39   S    
C50   N1    A    
C4    C5    A    
C11   C29   A    
Cu1   N4    S    
C40   H12   S    
C55   H30   S    
O24   H50   S    
C14   C15   A    
C62   H47   S    
C2    C3    A    
C32   H3    S    
C44   N3    S    
C57   H36   S    
C36   H5    S    
C27   C30   A    
C54   H1    S    
