data_mof_unit_47023.cif
_audit_creation_date              2012-10-26T20:19:35-0400
_audit_creation_method            fapswitch 2.2
_symmetry_space_group_name_H-M    P1
_symmetry_Int_Tables_number       1
_space_group_crystal_system       triclinic
_cell_length_a                    10.782754
_cell_length_b                    10.902014
_cell_length_c                    9.58009
_cell_angle_alpha                 91.35973
_cell_angle_beta                  89.141466
_cell_angle_gamma                 95.457744
_cell_volume                      1120.66265008

loop_
_atom_site_label
_atom_site_type_symbol
_atom_type_description
_atom_site_fract_x
_atom_site_fract_y
_atom_site_fract_z
_atom_type_partial_charge
C1    C     C_R   0.497323 0.261870 0.497970 0.549627
C2    C     C_R   0.424105 0.058163 0.600738 0.034259
C3    C     C_R   0.488752 0.126302 0.492908 0.002066
C4    C     C_R   0.260143 0.505300 0.500961 0.545093
C5    C     C_R   0.555822 0.064046 0.389389 -0.037343
C6    C     C_R   0.556633 0.936915 0.395704 -0.144651
C7    C     C_R   0.506864 0.872471 0.511062 -0.026107
C8    C     C_R   0.669740 0.667617 0.145300 -0.081669
C9    C     C_R   0.751985 0.751215 0.072855 -0.032690
C10   C     C_R   0.750880 0.749950 0.928321 -0.161211
C11   C     C_R   0.667541 0.667917 0.856263 -0.123501
C12   C     C_3   0.877966 0.512011 0.498301 0.058691
C13   C     C_R   0.582667 0.582768 0.925690 0.143125
C14   C     C_R   0.583231 0.582559 0.075329 0.142866
C15   C     C_R   0.421246 0.421054 0.073488 -0.010417
C16   C     C_R   0.502822 0.737992 0.502947 0.525306
C17   C     C_R   0.421473 0.421061 0.925698 -0.003645
C18   C     C_R   0.740008 0.505148 0.499122 0.535193
C19   C     C_3   0.056733 0.393679 0.567309 -0.248440
C20   C     C_3   0.914865 0.394806 0.568336 -0.241025
C21   C     C_3   0.081754 0.629701 0.582864 -0.088305
C22   C     C_3   0.074598 0.517075 0.349698 -0.244954
C23   C     C_3   0.936162 0.626993 0.584105 -0.095087
C24   C     C_3   0.121897 0.511965 0.502510 0.054079
C25   C     C_3   0.895872 0.750451 0.534531 -0.447622
C26   C     C_3   0.627347 0.129525 0.271611 -0.374754
C27   C     C_3   0.244085 0.191717 0.629942 -0.396616
C28   C     C_3   0.841612 0.842440 0.148539 -0.427360
C29   C     C_3   0.131466 0.649802 0.732764 -0.411428
C30   C     C_3   0.932092 0.514397 0.347136 -0.235617
C31   C     C_R   0.329477 0.105045 0.685420 0.029321
C32   C     C_R   0.297106 0.052057 0.813948 -0.108783
C33   C     C_R   0.347964 0.946049 0.852006 -0.150912
C34   C     C_R   0.421257 0.886147 0.756588 -0.117067
C35   C     C_R   0.452742 0.936978 0.623884 0.010476
Cu1   Cu    Cu3+1 0.499990 0.499990 0.640660 0.891354
Cu2   Cu    Cu3+1 0.500010 0.500010 0.359340 0.897044
H1    H     H_    0.088002 0.383213 0.675765 0.116240
H2    H     H_    0.677372 0.671926 0.255824 0.176909
H3    H     H_    0.814425 0.813756 0.870631 0.114929
H4    H     H_    0.672951 0.675388 0.746015 0.181582
H5    H     H_    0.357339 0.356026 0.871101 0.102960
H6    H     H_    0.871856 0.310859 0.512542 0.108505
H7    H     H_    0.879790 0.390755 0.678234 0.132019
H8    H     H_    0.900339 0.616808 0.693341 0.148492
H9    H     H_    0.116749 0.602304 0.299041 0.122764
H10   H     H_    0.103057 0.437184 0.286382 0.124127
H11   H     H_    0.893549 0.430926 0.287233 0.126415
H12   H     H_    0.905126 0.595639 0.290980 0.129120
H13   H     H_    0.793027 0.748072 0.528021 0.124966
H14   H     H_    0.928225 0.825330 0.609817 0.125961
H15   H     H_    0.938017 0.773582 0.431192 0.130319
H16   H     H_    0.680667 0.065959 0.207613 0.109433
H17   H     H_    0.561997 0.169259 0.200689 0.161554
H18   H     H_    0.695395 0.203321 0.314290 0.141798
H19   H     H_    0.145890 0.153555 0.646931 0.102601
H20   H     H_    0.259505 0.280939 0.685654 0.153328
H21   H     H_    0.256936 0.204376 0.515956 0.121019
H22   H     H_    0.819180 0.847066 0.261638 0.111118
H23   H     H_    0.123192 0.710977 0.524081 0.135132
H24   H     H_    0.937929 0.815947 0.133784 0.128911
H25   H     H_    0.836645 0.935882 0.106600 0.131658
H26   H     H_    0.108361 0.567321 0.797076 0.134845
H27   H     H_    0.233480 0.674702 0.731914 0.175395
H28   H     H_    0.089488 0.728701 0.784220 0.118083
H29   H     H_    0.228485 0.090067 0.881912 0.096465
H30   H     H_    0.324318 0.905799 0.952331 0.111723
H31   H     H_    0.454605 0.803473 0.793758 0.158366
H32   H     H_    0.600280 0.887908 0.311597 0.133117
H33   H     H_    0.356796 0.356301 0.128311 0.105327
H34   H     H_    0.080021 0.312791 0.503114 0.106359
N1    N     N_R   0.501200 0.501210 0.147910 -0.244191
N2    N     N_R   0.501250 0.501290 0.852040 -0.244298
O1    O     O_R   0.499990 0.319640 0.618810 -0.486758
O2    O     O_R   0.500000 0.319660 0.381240 -0.506867
O3    O     O_R   0.317680 0.499970 0.618790 -0.516211
O4    O     O_R   0.317700 0.499990 0.381210 -0.505874
O5    O     O_R   0.500000 0.680340 0.618760 -0.541511
O6    O     O_R   0.500010 0.680360 0.381190 -0.516289
O7    O     O_R   0.682300 0.500010 0.618790 -0.521882
O8    O     O_R   0.682320 0.500030 0.381210 -0.526955

loop_
_geom_bond_atom_site_label_1
_geom_bond_atom_site_label_2
_ccdc_geom_bond_type
C2    C35   A    
C6    H32   S    
C29   H26   S    
C23   H8    S    
C19   H34   S    
C19   C20   S    
C26   H18   S    
C15   N1    A    
Cu2   O6    S    
C12   C23   S    
C1    O1    A    
C30   H11   S    
Cu1   Cu2   S    
C2    C3    A    
C5    C6    A    
C4    C24   S    
C18   O8    A    
C10   H3    S    
C34   C35   A    
C25   H13   S    
Cu1   O3    S    
C17   H5    S    
C8    C9    A    
C8    H2    S    
C9    C10   A    
C28   H24   S    
C22   H10   S    
Cu2   O2    S    
C29   H27   S    
C13   C14   A    
C17   N2    A    
Cu2   O8    S    
C7    C35   A    
C26   H17   S    
C20   H7    S    
C27   C31   S    
C1    O2    A    
C21   H23   S    
C27   H20   S    
C34   H31   S    
C27   H19   S    
C21   C29   S    
C2    C31   A    
C1    C3    S    
C25   H14   S    
C19   H1    S    
C31   C32   A    
C12   C20   S    
C33   C34   A    
Cu1   O1    S    
C29   H28   S    
C7    C16   S    
C22   H9    S    
C30   H12   S    
C13   N2    A    
C21   C23   S    
Cu1   O7    S    
C22   C24   S    
Cu2   N1    S    
C26   H16   S    
C20   H6    S    
C33   H30   S    
C32   H29   S    
C28   H22   S    
C15   C17   A    
C15   H33   S    
C8    C14   A    
C22   C30   S    
C12   C30   S    
C14   N1    A    
C3    C5    A    
C27   H21   S    
C6    C7    A    
C16   O6    A    
C32   C33   A    
C19   C24   S    
C25   H15   S    
C4    O4    A    
Cu1   O5    S    
C11   C13   A    
Cu2   O4    S    
C11   H4    S    
C16   O5    A    
C23   C25   S    
C4    O3    A    
C10   C11   A    
C5    C26   S    
C18   O7    A    
C21   C24   S    
C12   C18   S    
Cu1   N2    S    
C9    C28   S    
C28   H25   S    
