data_mof_unit_51630.cif
_audit_creation_date              2013-03-05T16:04:01-0500
_audit_creation_method            fapswitch 2.2
_symmetry_space_group_name_H-M    P1
_symmetry_Int_Tables_number       1
_space_group_crystal_system       triclinic
_cell_length_a                    8.206216
_cell_length_b                    14.426544
_cell_length_c                    26.905279
_cell_angle_alpha                 93.65528
_cell_angle_beta                  93.000388
_cell_angle_gamma                 88.000959
_cell_volume                      3172.81631774

loop_
_atom_site_label
_atom_site_type_symbol
_atom_site_description
_atom_site_fract_x
_atom_site_fract_y
_atom_site_fract_z
_atom_type_partial_charge
P1    P     P_3+3 0.090020 0.577590 0.608380 0.477260
O1    O     O_2   0.918080 0.549800 0.616640 -0.375897
O2    O     O_3   0.150070 0.549720 0.556460 -0.406873
O3    O     O_3   0.658250 0.379560 0.591530 -0.365903
O4    O     O_2   0.831722 0.429182 0.673581 -0.384140
O5    O     O_3   0.079758 0.698757 0.617679 -0.564611
O6    O     O_3   0.635111 0.297801 0.683869 -0.552682
C1    C     C_3   0.386746 0.250256 0.714795 -0.809668
H1    H     H_    0.467158 0.231138 0.747304 0.271828
H2    H     H_    0.324721 0.318309 0.723379 0.254198
P2    P     P_3+3 0.614340 0.285150 0.467650 0.455089
P3    P     P_3+3 0.081413 0.211621 0.571981 0.433951
O7    O     O_2   0.790750 0.271170 0.482550 -0.386688
O8    O     O_3   0.062300 0.331660 0.568480 -0.354469
O9    O     O_2   0.925963 0.166930 0.547324 -0.431398
O10   O     O_3   0.604242 0.254703 0.403620 -0.572583
O11   O     O_3   0.095233 0.189128 0.635464 -0.577940
C2    C     C_3   0.945238 0.163583 0.652637 0.603457
H3    H     H_    0.841512 0.201757 0.634239 0.139715
C3    C     C_3   0.925846 0.058531 0.643490 -1.014482
H4    H     H_    0.922019 0.037756 0.603111 0.281672
H5    H     H_    0.029798 0.020590 0.662048 0.264653
C4    C     C_3   0.161760 0.258321 0.423003 0.455116
H6    H     H_    0.289131 0.277261 0.432310 0.096940
H7    H     H_    0.084415 0.278108 0.454854 0.122687
C5    C     C_3   0.155025 0.153801 0.411911 -1.044075
H8    H     H_    0.234706 0.131914 0.380874 0.276834
H9    H     H_    0.196829 0.116342 0.445091 0.231471
H10   H     H_    0.027546 0.134620 0.401120 0.260430
Ba1   Ba    Ba6+2 0.849670 0.455410 0.524690 1.544347
C6    C     C_3   0.030093 0.738601 0.573170 0.443458
H11   H     H_    0.908798 0.713807 0.560256 0.066494
H12   H     H_    0.118175 0.721409 0.543925 0.137390
C7    C     C_3   0.020298 0.843443 0.583044 -1.057637
H13   H     H_    0.923711 0.862404 0.609580 0.279908
H14   H     H_    0.990827 0.877976 0.548009 0.230289
H15   H     H_    0.139297 0.868680 0.599133 0.271189
C8    C     C_3   0.673868 0.322621 0.377853 0.424419
H16   H     H_    0.795449 0.339763 0.394841 0.107436
H17   H     H_    0.591663 0.385316 0.377937 0.096314
C9    C     C_3   0.694425 0.284198 0.324434 -0.968531
H18   H     H_    0.766829 0.217768 0.324418 0.269723
H19   H     H_    0.759768 0.333421 0.303281 0.229438
H20   H     H_    0.572968 0.271627 0.305497 0.261943
P4    P     P_3+3 0.099670 0.422330 0.391610 0.471330
O12   O     O_2   0.271610 0.450170 0.383330 -0.366093
O13   O     O_3   0.039630 0.450200 0.443530 -0.424391
O14   O     O_3   0.531440 0.620360 0.408460 -0.306901
O15   O     O_3   0.105793 0.301540 0.380179 -0.557905
P5    P     P_3+3 0.111689 0.787837 0.423069 0.475314
O16   O     O_3   0.643350 0.612530 0.521650 -0.393115
O17   O     O_3   0.127390 0.668260 0.431510 -0.359076
O18   O     O_2   0.261070 0.830593 0.452238 -0.369805
O19   O     O_3   0.150668 0.798680 0.360173 -0.496790
Ba2   Ba    Ba6+2 0.340150 0.544510 0.475310 1.559927
P6    P     P_3+3 0.655878 0.403029 0.656112 0.467413
C10   C     C_3   0.486815 0.255307 0.668667 0.482094
H21   H     H_    0.411776 0.292825 0.640122 0.065747
H22   H     H_    0.291736 0.197493 0.708963 0.228836
O20   O     O_3   0.546340 0.387390 0.478340 -0.390467
C11   C     C_3   0.592548 0.699627 0.628417 0.364932
H23   H     H_    0.465024 0.685217 0.636764 0.069349
H24   H     H_    0.652605 0.634673 0.613363 0.126979
C12   C     C_3   0.686914 0.733776 0.676266 -0.624346
H25   H     H_    0.635689 0.802666 0.689956 0.213954
H26   H     H_    0.816242 0.742776 0.667815 0.250351
P7    P     P_3+3 0.583926 0.730550 0.533078 0.431781
O21   O     O_2   0.398940 0.728800 0.517420 -0.357820
O22   O     O_3   0.589810 0.771679 0.595819 -0.599440
H27   H     H_    0.810306 0.037428 0.658613 0.228526
C13   C     C_3   0.012459 0.835054 0.333612 0.589523
H28   H     H_    0.896453 0.828076 0.352439 0.074367
C14   C     C_3   0.992865 0.778549 0.283714 -0.848387
H29   H     H_    0.978624 0.704239 0.290564 0.250175
H30   H     H_    0.883012 0.802695 0.261842 0.239897
H31   H     H_    0.101506 0.784352 0.261392 0.224451
P8    P     P_3+3 0.527156 0.608594 0.343512 0.503485
C15   C     C_3   0.495826 0.733494 0.278065 0.275000
H32   H     H_    0.370626 0.707201 0.270710 0.112485
O23   O     O_2   0.348062 0.585646 0.327789 -0.401624
O24   O     O_3   0.553540 0.722829 0.327543 -0.509153
H33   H     H_    0.580086 0.696752 0.252111 0.112755
H34   H     H_    0.402188 0.873359 0.293983 0.222501
C16   C     C_3   0.490034 0.836849 0.268816 -0.414004
H35   H     H_    0.612379 0.865381 0.278156 0.210054
C17   C     C_R   0.034799 0.439403 0.183257 0.520360
O25   O     O_2   0.073216 0.373261 0.207984 -0.585724
N1    N     N_R   0.940254 0.512002 0.204137 -0.161884
C18   C     C_R   0.889619 0.585077 0.175311 0.509456
C19   C     C_2   0.734410 0.526622 0.267988 -0.241174
C20   C     C_3   0.682951 0.518803 0.321005 0.139105
C21   C     C_1   0.970948 0.481549 0.343867 0.311412
C22   C     C_2   0.015994 0.487735 0.297393 -0.185087
C23   C     C_2   0.892540 0.510610 0.256040 0.140510
C24   C     C_R   0.028308 0.513323 0.103513 -0.102614
C25   C     C_R   0.084831 0.440149 0.133215 -0.079772
C26   C     C_R   0.187537 0.369310 0.111624 0.116489
C27   C     C_R   0.928246 0.585130 0.124658 -0.032640
C28   C     C_2   0.827497 0.514702 0.358044 -0.467354
H36   H     H_    0.142117 0.473363 0.288653 0.181371
C29   C     C_2   0.351631 0.484582 0.642146 -0.453168
C30   C     C_R   0.236764 0.453373 0.983236 0.003932
C31   C     C_R   0.042612 0.584069 0.970718 0.051809
C32   C     C_R   0.161387 0.518957 0.951724 0.080378
C33   C     C_R   0.371078 0.399902 0.965377 -0.233059
C34   C     C_R   0.425457 0.406143 0.917047 0.272264
C35   C     C_R   0.329089 0.458074 0.882239 -0.127383
C36   C     C_R   0.204795 0.519209 0.900791 -0.091305
C37   C     C_R   0.124674 0.581481 0.868567 -0.030427
C38   C     C_R   0.166441 0.581005 0.818112 0.518822
N2    N     N_R   0.275052 0.514325 0.798473 -0.154623
C39   C     C_R   0.349320 0.450484 0.829770 0.515998
C40   C     C_2   0.466316 0.496132 0.730208 -0.209282
C41   C     C_3   0.503869 0.495409 0.675245 0.165506
C42   C     C_1   0.214478 0.522641 0.657421 0.324580
C43   C     C_2   0.177681 0.523740 0.705069 -0.206567
C44   C     C_2   0.310852 0.510960 0.745235 0.107657
O26   O     O_2   0.425060 0.383769 0.811516 -0.626985
C45   C     C_R   0.182580 0.446894 0.032568 0.056356
C46   C     C_R   0.071989 0.515181 0.052615 0.085672
C47   C     C_R   0.005683 0.585844 0.022252 0.047386
C48   C     C_R   0.234738 0.373546 0.062501 -0.280148
H37   H     H_    0.567797 0.490747 0.757514 0.168005
H38   H     H_    0.444219 0.357066 0.989902 0.136466
H39   H     H_    0.309177 0.315873 0.048096 0.125578
O27   O     O_2   0.811700 0.650939 0.193835 -0.642335
C49   C     C_R   0.869510 0.656596 0.094870 -0.099907
H40   H     H_    0.640222 0.536604 0.238826 0.137536
H41   H     H_    0.793393 0.713209 0.110139 0.157332
C50   C     C_R   0.964552 0.645143 0.937226 -0.225222
C51   C     C_R   0.004844 0.643819 0.887482 -0.097839
O28   O     O_2   0.106365 0.640560 0.791827 -0.616083
C52   C     C_R   0.905777 0.656600 0.044848 -0.212956
H42   H     H_    0.867971 0.693600 0.947994 0.126615
H43   H     H_    0.940001 0.691949 0.863578 0.157913
H44   H     H_    0.051597 0.532793 0.714968 0.190158
H45   H     H_    0.857130 0.714992 0.025178 0.125065
H46   H     H_    0.799942 0.516008 0.397041 0.155610
H47   H     H_    0.356371 0.448570 0.605491 0.168433
C53   C     C_R   0.695959 0.065317 0.474386 -0.117668
C54   C     C_R   0.512425 0.198920 0.501776 0.289183
C55   C     C_R   0.372310 0.229876 0.525783 -0.547762
C56   C     C_R   0.268547 0.167181 0.543847 0.297281
C57   C     C_R   0.312084 0.072874 0.542805 -0.344263
C58   C     C_R   0.457370 0.040198 0.521409 0.052276
C59   C     C_R   0.557003 0.102304 0.498886 -0.005570
H48   H     H_    0.338506 0.303148 0.527748 0.173844
C60   C     C_R   0.638354 0.908961 0.496907 -0.014529
C61   C     C_R   0.738397 0.969810 0.473795 0.084596
C62   C     C_R   0.677160 0.812669 0.493872 0.263083
C63   C     C_R   0.805052 0.777997 0.465345 -0.262020
C64   C     C_R   0.917135 0.838084 0.447836 0.128460
C65   C     C_R   0.882000 0.934291 0.451553 -0.338385
C66   C     C_R   0.500465 0.945541 0.521223 -0.116224
H49   H     H_    0.232756 0.025331 0.558714 0.161330
H50   H     H_    0.965982 0.981081 0.437412 0.153936
H51   H     H_    0.772536 0.109445 0.455415 0.169329
H52   H     H_    0.421904 0.900672 0.539104 0.173189
N3    N     N_3   0.524367 0.161197 0.648138 -0.215627
H53   H     H_    0.575097 0.166485 0.613652 0.095216
H54   H     H_    0.415780 0.126048 0.640622 0.121266
N4    N     N_3   0.680138 0.667839 0.714848 -0.205742
H55   H     H_    0.566951 0.677798 0.730873 0.130829
H56   H     H_    0.768100 0.685801 0.743022 0.176515
C67   C     C_3   0.040186 0.938147 0.325790 -0.345452
C68   C     C_3   0.883517 0.991758 0.310730 -0.995389
H57   H     H_    0.789025 0.984876 0.338253 0.268338
H58   H     H_    0.910065 0.066442 0.309476 0.280914
H59   H     H_    0.836510 0.966476 0.273076 0.271159
H60   H     H_    0.092035 0.971741 0.361059 0.199777
H61   H     H_    0.131158 0.944519 0.297132 0.203119
C69   C     C_3   0.439245 0.853642 0.214435 -0.376361
C70   C     C_3   0.431544 0.957270 0.205844 -0.837879
H62   H     H_    0.553162 0.987697 0.214363 0.259672
H63   H     H_    0.394520 0.967519 0.166232 0.245734
H64   H     H_    0.340599 0.994017 0.229867 0.259783
H65   H     H_    0.528928 0.818296 0.189400 0.228050
H66   H     H_    0.317194 0.824542 0.204700 0.204950
N5    N     N_3   0.247014 0.292390 0.139383 -0.154579
H67   H     H_    0.209244 0.231032 0.120060 0.110834
H68   H     H_    0.374640 0.291782 0.140813 0.108534
C71   C     C_3   0.594409 0.363533 0.906988 -0.326501
C72   C     C_3   0.727281 0.409500 0.941321 -0.933239
H69   H     H_    0.722089 0.485887 0.937870 0.272155
H70   H     H_    0.713622 0.394856 0.980851 0.260906
H71   H     H_    0.849455 0.382091 0.930514 0.261198
H72   H     H_    0.595288 0.287879 0.912631 0.186406
H73   H     H_    0.632835 0.371660 0.868911 0.247532
N6    N     N_3   0.945799 0.187248 0.706281 -0.207694
H74   H     H_    0.832571 0.171854 0.719315 0.120590
H75   H     H_    0.958060 0.259094 0.712164 0.152466
N7    N     N_3   0.815517 0.680451 0.453316 -0.142136
H76   H     H_    0.904173 0.649162 0.476504 0.150045
H77   H     H_    0.837229 0.669436 0.415538 0.138308

loop_
_geom_bond_atom_site_label_1
_geom_bond_atom_site_label_2
_geom_bond_distance
_ccdc_geom_bond_type
C69   H65   1.112316 S    
C67   H61   1.111030 S    
O14   Ba2   2.750080 S    
C8    H17   1.109270 S    
Ba1   O16   2.784352 S    
C2    N6    1.461591 S    
C52   H45   1.077196 S    
C22   C23   1.509521 S    
C11   C12   1.530078 S    
C7    H15   1.110857 S    
C14   H30   1.108601 S    
C14   H29   1.110438 S    
O4    P6    1.545935 D    
N2    C39   1.390942 Am   
Ba2   O21   2.869339 S    
C29   H47   1.086895 S    
C24   C27   1.409074 A    
P4    O12   1.511836 D    
C69   C70   1.525904 S    
C5    H8    1.110726 S    
C67   C68   1.526877 S    
C21   C22   1.331550 D    
C60   C62   1.412543 A    
C66   H52   1.080436 S    
C51   H43   1.083625 S    
C72   H70   1.109590 S    
C1    H22   1.106932 S    
C8    H16   1.104795 S    
C1    C10   1.530483 S    
C17   N1    1.388671 Am   
C4    O15   1.394090 S    
C34   C35   1.426291 A    
C11   O22   1.400997 S    
C42   C43   1.331358 D    
C36   C37   1.410484 A    
C30   C33   1.410554 A    
C11   H24   1.106930 S    
C7    H13   1.109960 S    
C35   C39   1.426896 A    
C4    C5    1.520683 S    
N6    H75   1.046031 S    
P4    C21   1.852192 S    
C61   C65   1.414922 A    
C38   N2    1.386943 Am   
C34   C71   1.527091 S    
C31   C32   1.421474 A    
C71   C72   1.532601 S    
O2    Ba2   2.744673 S    
P8    C20   1.882746 S    
O19   C13   1.412036 S    
N3    H53   1.044851 S    
P2    Ba1   3.414369 S    
C1    H1    1.110932 S    
Ba1   O20   2.898893 S    
O12   Ba2   2.787704 S    
C37   C51   1.402530 A    
P5    O17   1.753697 S    
C4    H6    1.101672 S    
N3    H54   1.044823 S    
C28   H46   1.083686 S    
C19   C23   1.361572 D    
P4    O15   1.749538 S    
C7    H14   1.105801 S    
C11   H23   1.111091 S    
O17   Ba2   2.731256 S    
N1    C18   1.387631 Am   
P4    O13   1.530499 S    
O5    C6    1.396760 S    
C10   N3    1.461627 S    
Ba2   O20   2.783722 S    
O3    P6    1.749952 S    
P7    C62   1.846243 S    
C68   H58   1.109606 S    
C29   C41   1.502523 S    
C9    H19   1.107119 S    
C3    H27   1.110647 S    
C50   H42   1.077196 S    
C60   C66   1.406668 A    
O6    P6    1.751363 S    
O8    Ba1   2.730501 S    
C58   C59   1.417990 A    
N4    H56   1.045713 S    
C18   O27   1.220923 D    
C70   H63   1.110437 S    
C47   C52   1.413641 A    
N1    C23   1.471465 S    
P5    O18   1.545777 D    
P7    O21   1.554642 D    
O7    Ba1   2.869140 S    
C16   H35   1.108964 S    
C8    C9    1.522731 S    
C12   N4    1.456412 S    
C72   H71   1.110977 S    
C53   C59   1.418061 A    
C13   C14   1.529627 S    
C15   H32   1.111293 S    
C2    H3    1.109423 S    
O16   P7    1.766990 S    
O16   Ba2   2.897892 S    
C70   H62   1.111328 S    
P1    O5    1.749694 S    
C33   H38   1.078048 S    
P7    O22   1.752074 S    
N7    H77   1.042346 S    
O14   P8    1.743484 S    
P3    O11   1.755969 S    
O2    Ba1   2.919565 S    
C30   C32   1.415344 A    
C72   H69   1.110943 S    
C49   H41   1.083732 S    
C26   C48   1.402202 A    
C15   C16   1.525959 S    
C53   H51   1.078714 S    
P2    O10   1.748929 S    
C15   H33   1.106550 S    
H34   C16   1.111183 S    
C40   H37   1.085352 S    
P3    O9    1.548323 D    
P8    O24   1.752811 S    
C63   C64   1.404409 A    
C25   C26   1.416923 A    
C6    H12   1.106909 S    
O11   C2    1.406159 S    
C6    C7    1.518959 S    
C71   H73   1.101992 S    
C60   C61   1.415838 A    
C65   H50   1.080751 S    
C38   O28   1.221793 D    
P2    C54   1.840831 S    
C22   H36   1.083422 S    
C12   H26   1.110653 S    
C17   C25   1.428815 A    
C54   C59   1.426962 A    
C68   H59   1.109022 S    
C40   C44   1.364088 D    
C58   C66   1.398392 A    
Ba1   O13   2.744297 S    
C27   C49   1.402813 A    
C3    H5    1.110987 S    
C68   H57   1.111023 S    
C29   C42   1.309071 D    
C14   H31   1.109146 S    
C35   C36   1.414844 A    
P2    O20   1.573195 S    
C31   C47   1.433155 A    
C32   C36   1.434101 A    
C46   C47   1.422536 A    
O13   Ba2   2.920456 S    
C40   C41   1.525606 S    
Ba1   Ba2   4.555921 S    
C70   H64   1.111305 S    
C69   H66   1.111684 S    
C67   H60   1.108984 S    
C63   N7    1.424385 S    
P6    C41   1.860374 S    
C17   O25   1.220862 D    
C55   H48   1.082170 S    
C6    H11   1.101009 S    
C49   C52   1.393503 A    
P3    O8    1.741476 S    
C57   C58   1.404674 A    
C16   C69   1.532169 S    
C45   C46   1.416397 A    
C43   H44   1.083297 S    
C24   C46   1.435710 A    
N4    H55   1.045950 S    
C33   C34   1.405914 A    
C5    H9    1.105966 S    
C62   C63   1.392674 A    
P3    C56   1.825757 S    
O1    Ba1   2.787152 S    
C18   C27   1.415317 A    
N2    C44   1.474648 S    
C20   C28   1.510784 S    
N7    H76   1.042956 S    
C48   H39   1.078815 S    
C50   C51   1.394116 A    
C13   H28   1.112045 S    
P5    O19   1.756235 S    
C54   C55   1.394227 A    
C12   H25   1.113771 S    
C39   O26   1.218119 D    
P2    O7    1.492074 D    
C15   O24   1.405400 S    
C19   C20   1.520761 S    
P8    O23   1.549039 D    
C57   H49   1.084058 S    
C9    H20   1.110659 S    
P1    O1    1.511499 D    
P1    Ba1   3.367317 S    
C45   C48   1.411546 A    
C43   C44   1.511252 S    
C2    C3    1.532296 S    
C71   H72   1.111208 S    
C4    H7    1.109873 S    
N6    H74   1.045989 S    
C31   C50   1.414236 A    
C26   N5    1.434280 S    
N5    H67   1.045713 S    
P5    C64   1.867503 S    
C9    H18   1.109826 S    
C3    H4    1.107544 S    
P4    Ba2   3.368088 S    
C5    H10   1.110585 S    
C1    H2    1.106706 S    
C13   C67   1.541619 S    
C24   C25   1.415185 A    
C19   H40   1.084851 S    
C55   C56   1.390110 A    
C64   C65   1.406011 A    
P1    C42   1.829831 S    
P1    O2    1.530529 S    
C10   H21   1.114546 S    
C37   C38   1.416946 A    
C53   C61   1.408650 A    
O6    C10   1.411392 S    
O3    Ba1   2.750551 S    
C30   C45   1.431309 A    
C56   C57   1.393462 A    
C21   C28   1.320791 D    
O10   C8    1.390774 S    
N5    H68   1.045773 S    
