data_mof_unit_37526.cif
_audit_creation_date              2013-03-05T15:50:41-0500
_audit_creation_method            fapswitch 2.2
_symmetry_space_group_name_H-M    P1
_symmetry_Int_Tables_number       1
_space_group_crystal_system       triclinic
_cell_length_a                    14.995909
_cell_length_b                    10.825205
_cell_length_c                    9.641467
_cell_angle_alpha                 88.761025
_cell_angle_beta                  90.140883
_cell_angle_gamma                 92.328687
_cell_volume                      1563.47577138

loop_
_atom_site_label
_atom_site_type_symbol
_atom_site_description
_atom_site_fract_x
_atom_site_fract_y
_atom_site_fract_z
_atom_type_partial_charge
O1    O     O_R   0.499990 0.319640 0.618810 -0.544562
O2    O     O_R   0.500000 0.319660 0.381240 -0.592719
C1    C     C_R   0.506051 0.262690 0.501778 0.848886
O3    O     O_R   0.370250 0.499960 0.618800 -0.599388
O4    O     O_R   0.370260 0.499980 0.381230 -0.577353
C2    C     C_R   0.329091 0.502952 0.499840 0.805615
Cu1   Cu    Cu3+1 0.499990 0.499990 0.640660 0.984546
Cu2   Cu    Cu3+1 0.500010 0.500010 0.359340 0.965414
O5    O     O_R   0.500000 0.680340 0.618760 -0.620950
O6    O     O_R   0.500010 0.680360 0.381190 -0.586632
O7    O     O_R   0.629740 0.500020 0.618770 -0.548361
O8    O     O_R   0.629750 0.500040 0.381200 -0.568139
C3    C     C_R   0.491663 0.736743 0.499814 0.760410
C4    C     C_R   0.670782 0.499964 0.500179 0.828680
C5    C     C_R   0.814532 0.604971 0.552159 -0.147748
C6    C     C_R   0.767182 0.502356 0.500406 -0.014814
C7    C     C_R   0.811338 0.405105 0.442997 -0.166027
C8    C     C_R   0.904154 0.407567 0.441399 0.143061
C9    C     C_R   0.952950 0.512778 0.490062 0.062435
C10   C     C_R   0.908097 0.614263 0.542664 0.102725
C11   C     C_R   0.948741 0.307458 0.389203 -0.144645
C12   C     C_R   0.041494 0.309881 0.386912 -0.123336
C13   C     C_R   0.090600 0.412503 0.436628 0.128459
C14   C     C_R   0.046526 0.515519 0.486790 -0.024171
C15   C     C_R   0.095997 0.621096 0.532235 -0.034680
C16   C     C_R   0.050454 0.731932 0.552357 0.351937
C17   C     C_R   0.957090 0.724918 0.574485 0.038166
C18   C     C_R   0.183257 0.413618 0.436248 -0.252490
C19   C     C_R   0.232268 0.509738 0.498146 -0.063635
C20   C     C_R   0.189045 0.611107 0.554228 0.154321
H1    H     H_    0.776861 0.680029 0.590903 0.114239
H2    H     H_    0.773252 0.327129 0.401035 0.156002
H3    H     H_    0.911841 0.227019 0.350855 0.166091
H4    H     H_    0.074894 0.231063 0.347248 0.190989
H5    H     H_    0.217551 0.336342 0.394290 0.150969
H6    H     H_    0.500070 0.116196 0.281054 0.164914
C21   C     C_R   0.539619 0.105237 0.762188 0.407417
C22   C     C_R   0.502617 0.052182 0.883768 -0.209043
H7    H     H_    0.519692 0.091247 0.983398 0.167630
C23   C     C_R   0.448936 0.943867 0.877649 0.143682
C24   C     C_R   0.442837 0.880997 0.752811 -0.153667
H8    H     H_    0.405412 0.793777 0.752527 0.172715
C25   C     C_R   0.479466 0.934495 0.629574 0.016549
C26   C     C_R   0.511952 0.058053 0.632118 -0.024747
C27   C     C_R   0.511857 0.127763 0.505434 -0.045357
C28   C     C_R   0.500564 0.066320 0.379673 -0.185048
H9    H     H_    0.482896 0.894882 0.280612 0.155933
C29   C     C_R   0.489158 0.939258 0.378682 -0.185180
C30   C     C_R   0.482695 0.871110 0.502662 -0.061909
H10   H     H_    0.380908 0.392027 0.130649 0.140856
C31   C     C_R   0.648008 0.620304 0.132869 0.104968
C32   C     C_R   0.727519 0.627961 0.054221 0.434504
C33   C     C_R   0.718925 0.645693 0.912206 -0.277387
H11   H     H_    0.775114 0.677771 0.849630 0.188521
C34   C     C_R   0.635886 0.629710 0.851438 -0.196061
H12   H     H_    0.628912 0.666112 0.748375 0.204254
C35   C     C_R   0.567264 0.563621 0.923011 0.225240
C36   C     C_R   0.570554 0.559880 0.071716 0.118655
N1    N     N_R   0.500860 0.501210 0.147910 -0.182951
C37   C     C_R   0.434525 0.440963 0.075048 -0.047914
H13   H     H_    0.382072 0.389697 0.873901 0.138638
C38   C     C_R   0.435094 0.439877 0.927526 -0.039446
N2    N     N_R   0.500890 0.501290 0.852040 -0.169850
S1    S     S_3+6 0.642202 0.189825 0.779711 0.008875
O9    O     O_2   0.627864 0.310127 0.848788 -0.264337
O10   O     O_2   0.702654 0.114973 0.870039 -0.297783
O11   O     O_3   0.690924 0.215938 0.624519 -0.580713
H14   H     H_    0.755869 0.218523 0.643851 0.370977
C39   C     C_3   0.402682 0.890507 0.004180 -0.824855
H15   H     H_    0.405639 0.957170 0.089933 0.228113
H16   H     H_    0.331195 0.870017 0.980231 0.254185
H17   H     H_    0.433985 0.803504 0.037478 0.224660
C40   C     C_3   0.635667 0.738394 0.208360 -0.706674
H18   H     H_    0.650420 0.727306 0.320396 0.256676
H19   H     H_    0.680316 0.815870 0.168912 0.214268
H20   H     H_    0.568612 0.770949 0.185063 0.208902
S2    S     S_3+6 0.834072 0.655372 0.129901 0.005170
O12   O     O_2   0.873961 0.532785 0.160513 -0.248540
O13   O     O_2   0.894577 0.727106 0.030258 -0.301868
O14   O     O_3   0.827744 0.733400 0.278128 -0.563449
H21   H     H_    0.839785 0.821429 0.251727 0.356776
C41   C     C_3   0.240459 0.697640 0.649384 -0.735087
H22   H     H_    0.274655 0.643854 0.731318 0.210264
H23   H     H_    0.290324 0.754761 0.588965 0.239812
H24   H     H_    0.196549 0.757485 0.707583 0.261957
S3    S     S_3+6 0.101855 0.877970 0.501453 -0.002785
O15   O     O_2   0.127836 0.950460 0.627520 -0.276292
O16   O     O_2   0.183301 0.861407 0.414245 -0.283058
O17   O     O_3   0.029257 0.959944 0.407575 -0.525778
H25   H     H_    0.012909 0.907078 0.328097 0.365576
C42   C     C_3   0.909566 0.836025 0.626082 -0.683952
H26   H     H_    0.870421 0.809739 0.720180 0.214949
H27   H     H_    0.955892 0.912584 0.657557 0.289290
H28   H     H_    0.864366 0.871254 0.544227 0.235507

loop_
_geom_bond_atom_site_label_1
_geom_bond_atom_site_label_2
_geom_bond_distance
_ccdc_geom_bond_type
C34   H12   1.067485 S    
C8    C11   1.399592 A    
C24   C25   1.412963 A    
C24   H8    1.078659 S    
C9    C10   1.415037 A    
Cu1   Cu2   2.712334 S    
S2    O12   1.500885 D    
C32   C33   1.384937 A    
Cu1   O7    1.957633 S    
C16   C17   1.415487 A    
C38   N2    1.369110 A    
C18   C19   1.393403 A    
C21   C22   1.399998 A    
Cu2   N1    2.038325 S    
C22   H7    1.083823 S    
O7    C4    1.299870 A    
S3    O16   1.503398 D    
C11   H3    1.083931 S    
C5    C6    1.394717 A    
C37   C38   1.422680 A    
C8    C9    1.416485 A    
C40   H18   1.107038 S    
C39   H16   1.110593 S    
O5    C3    1.295700 A    
C18   H5    1.085593 S    
C6    C7    1.391687 A    
C13   C14   1.413907 A    
H6    C28   1.083392 S    
C16   S3    1.789843 S    
C33   C34   1.380993 A    
N1    C37   1.368218 A    
C11   C12   1.390310 A    
C40   H19   1.112742 S    
H13   C38   1.081497 S    
O3    Cu1   1.956426 S    
C35   N2    1.369764 A    
S2    O13   1.504650 D    
C5    C10   1.405678 A    
C12   H4    1.083917 S    
C28   C29   1.379387 A    
C23   C39   1.498050 S    
C31   C32   1.413235 A    
S1    O11   1.680146 S    
C14   C15   1.414110 A    
O3    C2    1.301549 A    
C42   H26   1.107485 S    
S3    O15   1.503001 D    
C25   C30   1.417641 A    
C36   N1    1.401785 A    
C33   H11   1.078994 S    
C1    C27   1.466400 S    
O11   H14   0.990525 S    
S3    O17   1.682504 S    
O1    C1    1.302560 A    
S1    O10   1.504036 D    
C20   C41   1.512821 S    
C39   H17   1.110207 S    
C25   C26   1.405469 A    
C19   C20   1.414856 A    
C42   H27   1.106619 S    
H9    C29   1.071996 S    
Cu2   O8    1.956424 S    
C7    C8    1.391151 A    
C31   C36   1.440869 A    
C13   C18   1.389047 A    
C17   C42   1.516339 S    
Cu1   N2    2.038373 S    
C3    C30   1.467031 S    
C29   C30   1.392513 A    
O8    C4    1.300402 A    
C41   H23   1.108987 S    
C34   C35   1.403304 A    
C40   H20   1.100014 S    
C4    C6    1.444778 S    
C32   S2    1.771641 S    
C21   S1    1.767604 S    
C26   C27   1.421806 A    
S2    O14   1.680547 S    
C15   C20   1.418956 A    
Cu1   O5    1.959159 S    
C23   C24   1.396456 A    
O1    Cu1   1.968183 S    
O2    Cu2   1.959161 S    
C31   C40   1.502770 S    
O14   H21   0.990576 S    
O6    C3    1.316577 A    
O4    Cu2   1.957632 S    
C5    H1    1.081809 S    
C10   C17   1.418468 A    
C41   H24   1.104676 S    
H10   C37   1.081537 S    
S1    O9    1.498907 D    
C21   C26   1.419021 A    
C9    C14   1.402784 A    
C15   C16   1.421606 A    
C42   H28   1.110434 S    
C22   C23   1.397282 A    
C35   C36   1.434211 A    
O4    C2    1.302543 A    
O2    C1    1.308518 A    
C39   H15   1.108750 S    
C27   C28   1.402149 A    
C2    C19   1.456822 S    
Cu2   O6    1.968182 S    
C41   H22   1.108337 S    
C7    H2    1.084825 S    
C12   C13   1.400340 A    
O17   H25   0.990676 S    
