data_mof_unit_22836.cif
_audit_creation_date              2012-12-10T18:19:08-0500
_audit_creation_method            fapswitch 2.2
_symmetry_space_group_name_H-M    P1
_symmetry_Int_Tables_number       1
_space_group_crystal_system       triclinic
_cell_length_a                    14.868416
_cell_length_b                    14.140181
_cell_length_c                    11.582017
_cell_angle_alpha                 90.528777
_cell_angle_beta                  88.263588
_cell_angle_gamma                 91.848208
_cell_volume                      2432.56019486

loop_
_atom_site_label
_atom_site_type_symbol
_atom_type_description
_atom_site_fract_x
_atom_site_fract_y
_atom_site_fract_z
_atom_type_partial_charge
C1    C     C_R   0.327338 0.498595 0.498281 0.943754
C2    C     C_R   0.672913 0.501201 0.497909 0.946606
C3    C     C_R   0.910689 0.538145 0.395483 0.008399
C4    C     C_R   0.092099 0.513201 0.607559 0.019418
C5    C     C_R   0.947544 0.504211 0.710817 -0.024794
C6    C     C_R   0.055633 0.546427 0.292151 -0.033326
C7    C     C_R   0.041275 0.517007 0.712313 0.448852
C8    C     C_R   0.962619 0.562412 0.295189 0.485269
C9    C     C_R   0.579405 0.802572 0.490272 0.449484
C10   C     C_R   0.428383 0.199199 0.549060 0.473613
C11   C     C_R   0.420209 0.797471 0.503636 0.541454
C12   C     C_R   0.572062 0.202912 0.453748 0.518594
C13   C     C_R   0.419430 0.897138 0.520991 -0.185484
C14   C     C_R   0.577480 0.103516 0.466575 -0.191939
C15   C     C_R   0.579000 0.902678 0.473377 -0.200354
C16   C     C_R   0.420353 0.098734 0.533613 -0.208300
C17   C     C_R   0.498925 0.950411 0.497429 -0.133710
C18   C     C_R   0.498405 0.050792 0.497397 -0.116868
C19   C     C_R   0.340314 0.943767 0.556411 0.412168
C20   C     C_R   0.658979 0.056319 0.445766 0.370833
C21   C     C_R   0.657382 0.956053 0.438727 0.433607
C22   C     C_R   0.339774 0.044303 0.560683 0.366970
C23   C     C_R   0.500059 0.499634 0.281927 0.888985
C24   C     C_R   0.499853 0.500319 0.718079 0.891059
C25   C     C_1   0.499858 0.498918 0.161443 -0.204844
C26   C     C_1   0.499708 0.500639 0.838595 -0.207461
C27   C     C_1   0.499702 0.499062 0.059360 -0.002799
C28   C     C_1   0.499641 0.499939 0.940684 -0.001978
C29   C     C_R   0.816329 0.530408 0.394486 0.006188
C30   C     C_R   0.185386 0.503113 0.606041 0.022396
C31   C     C_R   0.768797 0.504521 0.496052 -0.248031
C32   C     C_R   0.231826 0.496723 0.499772 -0.218865
C33   C     C_R   0.811385 0.485333 0.598180 0.413380
C34   C     C_R   0.189270 0.498957 0.394531 0.404699
C35   C     C_R   0.904107 0.503126 0.604252 -0.029666
C36   C     C_R   0.097836 0.521106 0.394454 -0.039363
C37   C     C_R   0.954301 0.521968 0.500468 -0.130147
C38   C     C_R   0.048235 0.520148 0.500985 -0.121981
N1    N     N_R   0.500000 0.750030 0.500000 -0.209136
N2    N     N_R   0.500000 0.249970 0.500000 -0.205451
O1    O     O_R   0.367850 0.580280 0.500030 -0.582522
O2    O     O_R   0.632150 0.419720 0.499970 -0.580082
O3    O     O_R   0.632150 0.580280 0.499970 -0.586707
O4    O     O_R   0.367850 0.419720 0.500030 -0.603912
O5    O     O_R   0.500010 0.580270 0.334450 -0.630188
O6    O     O_R   0.499990 0.419730 0.665550 -0.644391
O7    O     O_R   0.499990 0.580270 0.665550 -0.611878
O8    O     O_R   0.500010 0.419730 0.334450 -0.648292
Zn1   Zn    Zn3+2 0.500000 0.607200 0.500000 0.975307
Zn2   Zn    Zn3+2 0.500000 0.392800 0.500000 0.957147
N3    N     N_3   0.769068 0.540293 0.288953 -0.379137
H1    H     H_    0.735049 0.476225 0.270953 0.169334
H2    H     H_    0.721427 0.592458 0.300362 0.197129
N4    N     N_3   0.232424 0.492494 0.711522 -0.393867
H3    H     H_    0.261229 0.426131 0.710159 0.187742
H4    H     H_    0.283780 0.544539 0.715986 0.175378
O9    O     O_3   0.760841 0.449272 0.691197 -0.634139
C39   C     C_3   0.765045 0.349359 0.687833 0.124267
H5    H     H_    0.833253 0.327081 0.711211 0.135256
H6    H     H_    0.750161 0.320368 0.600251 0.180856
C40   C     C_3   0.695776 0.306954 0.774401 -0.333018
H7    H     H_    0.714924 0.326672 0.863688 0.223121
H8    H     H_    0.628891 0.335966 0.758899 0.243922
C41   C     C_3   0.688658 0.199408 0.762907 -0.957715
H9    H     H_    0.671445 0.178509 0.673526 0.293863
H10   H     H_    0.634328 0.171317 0.821915 0.257246
H11   H     H_    0.753238 0.167708 0.785055 0.271021
O10   O     O_3   0.239834 0.483519 0.293400 -0.652843
C42   C     C_3   0.213727 0.395592 0.241854 0.105658
H12   H     H_    0.210415 0.406434 0.147199 0.178481
H13   H     H_    0.145606 0.367942 0.270744 0.139040
C43   C     C_3   0.283919 0.321181 0.261794 -0.356209
H14   H     H_    0.348352 0.342651 0.216856 0.235928
H15   H     H_    0.295864 0.315613 0.355212 0.246848
C44   C     C_3   0.252439 0.224078 0.217319 -1.025445
H16   H     H_    0.192293 0.197997 0.268116 0.267533
H17   H     H_    0.306959 0.172979 0.226056 0.265244
H18   H     H_    0.234632 0.227940 0.125217 0.282922
N5    N     N_3   0.896668 0.495227 0.817839 -0.387636
H19   H     H_    0.902051 0.558588 0.864444 0.188378
H20   H     H_    0.923430 0.441299 0.866116 0.206151
N6    N     N_3   0.107886 0.558698 0.186856 -0.423409
H21   H     H_    0.128801 0.629634 0.179437 0.189365
H22   H     H_    0.070446 0.536510 0.116117 0.207182
O11   O     O_3   0.082932 0.528862 0.816998 -0.629748
C45   C     C_3   0.074207 0.623395 0.856914 0.057969
H23   H     H_    0.044705 0.620210 0.945591 0.152035
H24   H     H_    0.028644 0.667004 0.805699 0.109527
C46   C     C_3   0.166497 0.674013 0.859840 -0.306467
H25   H     H_    0.214493 0.629282 0.904628 0.239139
H26   H     H_    0.192061 0.686223 0.769856 0.235814
C47   C     C_3   0.161091 0.769042 0.922822 -0.981108
H27   H     H_    0.108820 0.812978 0.885814 0.260743
H28   H     H_    0.227101 0.807750 0.914709 0.289916
H29   H     H_    0.144066 0.757854 0.015699 0.254206
O12   O     O_3   0.920544 0.596726 0.199420 -0.636231
C48   C     C_3   0.947613 0.691617 0.172219 0.072803
H30   H     H_    0.894158 0.720181 0.119028 0.177902
H31   H     H_    0.008261 0.693054 0.115076 0.125337
C49   C     C_3   0.961175 0.759852 0.275700 -0.408392
H32   H     H_    0.897574 0.764695 0.327719 0.235351
H33   H     H_    0.014163 0.734976 0.332647 0.207725
C50   C     C_3   0.991514 0.857833 0.233211 -0.962130
H34   H     H_    0.058420 0.854709 0.188166 0.266447
H35   H     H_    0.997464 0.906735 0.307868 0.279342
H36   H     H_    0.942364 0.885670 0.172924 0.260784
O13   O     O_3   0.660317 0.757650 0.491079 -0.599912
C51   C     C_3   0.698088 0.768911 0.601337 0.177605
H37   H     H_    0.668601 0.713366 0.659849 0.159187
H38   H     H_    0.685884 0.839597 0.641639 0.105792
C52   C     C_3   0.800025 0.758226 0.589305 -0.309053
H39   H     H_    0.815076 0.692942 0.539880 0.229254
H40   H     H_    0.830439 0.819143 0.540563 0.248769
C53   C     C_3   0.843303 0.753782 0.706731 -1.011859
H41   H     H_    0.830450 0.819293 0.757404 0.268188
H42   H     H_    0.917113 0.747060 0.693999 0.266492
H43   H     H_    0.816048 0.691455 0.755614 0.282785
O14   O     O_3   0.364738 0.246273 0.614926 -0.617328
C54   C     C_3   0.394386 0.256825 0.729648 0.148645
H44   H     H_    0.374045 0.327386 0.761411 0.160015
H45   H     H_    0.469059 0.254539 0.737378 0.127837
C55   C     C_3   0.349519 0.182956 0.809941 -0.334951
H46   H     H_    0.275461 0.181210 0.800024 0.255780
H47   H     H_    0.375822 0.112098 0.788448 0.240159
C56   C     C_3   0.369390 0.206663 0.935288 -1.019926
H48   H     H_    0.442747 0.218587 0.944526 0.275708
H49   H     H_    0.345639 0.147317 0.991663 0.280869
H50   H     H_    0.334939 0.272080 0.962665 0.275137
O15   O     O_3   0.341115 0.751631 0.472506 -0.619541
C57   C     C_3   0.342314 0.738694 0.350453 0.134992
H51   H     H_    0.305004 0.671475 0.330919 0.199240
H52   H     H_    0.411336 0.731346 0.311440 0.145658
C58   C     C_3   0.294785 0.818453 0.290601 -0.462209
H53   H     H_    0.221766 0.814373 0.313891 0.217274
H54   H     H_    0.323006 0.888369 0.318238 0.216395
C59   C     C_3   0.306203 0.810369 0.159683 -0.938084
H55   H     H_    0.378387 0.819250 0.133141 0.268774
H56   H     H_    0.268181 0.866687 0.118596 0.269426
H57   H     H_    0.280286 0.740191 0.129361 0.274940
O16   O     O_3   0.635847 0.251170 0.385604 -0.626807
C60   C     C_3   0.602767 0.259499 0.272347 0.132794
H58   H     H_    0.626505 0.329243 0.237855 0.161591
H59   H     H_    0.527620 0.257286 0.269516 0.146386
C61   C     C_3   0.639733 0.183327 0.190928 -0.439882
H60   H     H_    0.712777 0.197441 0.173694 0.216240
H61   H     H_    0.628628 0.112782 0.230276 0.208869
C62   C     C_3   0.592221 0.181123 0.076629 -0.971878
H62   H     H_    0.520276 0.160504 0.092254 0.270527
H63   H     H_    0.623009 0.127232 0.018950 0.270506
H64   H     H_    0.598167 0.251365 0.034350 0.271449
O17   O     O_3   0.272082 0.891278 0.613166 -0.605240
C63   C     C_3   0.192822 0.884991 0.548594 0.184625
H65   H     H_    0.182811 0.810671 0.518667 0.171226
H66   H     H_    0.194898 0.929768 0.470120 0.084510
C64   C     C_3   0.112045 0.908530 0.627356 -0.328668
H67   H     H_    0.101287 0.851713 0.692163 0.215980
H68   H     H_    0.125463 0.976177 0.674029 0.257519
C65   C     C_3   0.026543 0.916544 0.559444 -1.036639
H69   H     H_    0.035243 0.974591 0.495889 0.270647
H70   H     H_    0.969322 0.932872 0.619365 0.282975
H71   H     H_    0.010736 0.848846 0.513939 0.274735
O18   O     O_3   0.739393 0.104856 0.468802 -0.631603
C66   C     C_3   0.795346 0.118467 0.369237 0.180745
H72   H     H_    0.799391 0.195389 0.350428 0.178746
H73   H     H_    0.771280 0.081485 0.290942 0.092499
C67   C     C_3   0.890084 0.086682 0.393022 -0.351739
H74   H     H_    0.916200 0.125468 0.469576 0.231373
H75   H     H_    0.887606 0.009861 0.412229 0.258388
C68   C     C_3   0.953677 0.105338 0.289116 -1.033040
H76   H     H_    0.929185 0.066393 0.211901 0.273757
H77   H     H_    0.021942 0.081121 0.307990 0.266350
H78   H     H_    0.958383 0.182209 0.269972 0.271831
O19   O     O_3   0.731945 0.910539 0.394080 -0.629702
C69   C     C_3   0.726100 0.902685 0.271905 0.052310
H79   H     H_    0.793579 0.921363 0.233781 0.163957
H80   H     H_    0.678283 0.952003 0.233328 0.092908
C70   C     C_3   0.700675 0.801508 0.234602 -0.275388
H81   H     H_    0.748630 0.752258 0.270926 0.245366
H82   H     H_    0.631730 0.782004 0.267202 0.225725
C71   C     C_3   0.702528 0.791271 0.103237 -0.994261
H83   H     H_    0.650574 0.835686 0.065946 0.267017
H84   H     H_    0.688077 0.716228 0.079127 0.279214
H85   H     H_    0.769607 0.813245 0.066106 0.255844
O20   O     O_3   0.264017 0.086001 0.608451 -0.632030
C72   C     C_3   0.216625 0.133774 0.523563 0.121163
H86   H     H_    0.182625 0.082882 0.464659 0.102893
H87   H     H_    0.261505 0.180790 0.469718 0.171677
C73   C     C_3   0.144891 0.192988 0.585088 -0.293327
H88   H     H_    0.093384 0.145096 0.627389 0.207882
H89   H     H_    0.176504 0.237794 0.652983 0.245526
C74   C     C_3   0.098843 0.257469 0.502194 -0.989665
H90   H     H_    0.148281 0.310648 0.467030 0.273584
H91   H     H_    0.044057 0.295057 0.548804 0.268676
H92   H     H_    0.069804 0.215932 0.430110 0.270674

loop_
_geom_bond_atom_site_label_1
_geom_bond_atom_site_label_2
_ccdc_geom_bond_type
C65   H70   S    
C23   O5    A    
C58   H53   S    
C64   H68   S    
C68   H76   S    
C14   C18   A    
C62   H62   S    
C8    O12   S    
C48   H30   S    
O9    C39   S    
O7    Zn1   S    
C7    O11   S    
O19   C69   S    
O20   C72   S    
C30   N4    S    
C73   C74   S    
C6    N6    S    
C10   N2    A    
C62   H63   S    
C24   C26   S    
O15   C57   S    
C59   H57   S    
C67   C68   S    
C45   H24   S    
C72   H87   S    
C39   H6    S    
C9    N1    A    
C51   H37   S    
C3    C29   A    
O1    Zn1   S    
C42   H13   S    
O14   C54   S    
C49   H32   S    
C22   O20   S    
C65   H71   S    
C69   H79   S    
C66   H72   S    
C50   H35   S    
C52   H39   S    
C73   H89   S    
C51   H38   S    
O10   C42   S    
C70   H82   S    
C58   C59   S    
C19   O17   S    
O13   C51   S    
C12   O16   S    
C5    N5    S    
C71   H85   S    
C43   H14   S    
C39   C40   S    
O8    Zn2   S    
C64   C65   S    
C67   H75   S    
C68   H77   S    
C61   C62   S    
C52   C53   S    
C42   H12   S    
C4    C7    A    
C11   O15   S    
C47   H28   S    
C48   H31   S    
C71   H84   S    
C53   H41   S    
C54   H45   S    
N4    H4    S    
C13   C19   A    
C74   H90   S    
C41   H11   S    
C14   C20   A    
C19   C22   A    
O16   C60   S    
C43   H15   S    
C3    C8    A    
C60   C61   S    
C34   O10   S    
C5    C7    A    
C45   H23   S    
O3    Zn1   S    
C72   C73   S    
C6    C8    A    
C39   H5    S    
O11   C45   S    
C49   C50   S    
N3    H1    S    
C16   C22   A    
C2    C31   S    
N3    H2    S    
C41   H10   S    
C65   H69   S    
C12   N2    A    
C42   C43   S    
C57   H52   S    
C44   H16   S    
C74   H91   S    
C37   C38   A    
C10   O14   S    
C56   H50   S    
C61   H61   S    
C1    O4    A    
C63   C64   S    
O5    Zn1   S    
C2    O3    A    
O17   C63   S    
C70   C71   S    
C20   O18   S    
O12   C48   S    
C66   C67   S    
C31   C33   A    
C17   C18   A    
C52   H40   S    
C20   C21   A    
C46   C47   S    
C11   N1    A    
C44   H17   S    
C69   C70   S    
O2    Zn2   S    
C59   H56   S    
N1    Zn1   S    
C49   H33   S    
C63   H66   S    
N6    H21   S    
N6    H22   S    
C67   H74   S    
C68   H78   S    
C57   C58   S    
C46   H26   S    
C47   H29   S    
C55   H47   S    
C62   H64   S    
C64   H67   S    
C48   C49   S    
C71   H83   S    
N5    H20   S    
O18   C66   S    
C29   N3    S    
C54   C55   S    
C1    O1    A    
C15   C17   A    
N4    H3    S    
C33   O9    S    
C23   O8    A    
C35   C37   A    
C24   O7    A    
C26   C28   T    
C40   H8    S    
C4    C38   A    
C61   H60   S    
C45   C46   S    
C53   H42   S    
C54   H44   S    
C55   H46   S    
C9    O13   S    
O6    Zn2   S    
C21   O19   S    
C51   C52   S    
C13   C17   A    
C24   O6    A    
C41   H9    S    
C55   C56   S    
C60   H59   S    
C57   H51   S    
C12   C14   A    
C74   H92   S    
C29   C31   A    
C10   C16   A    
C60   H58   S    
C40   C41   S    
C30   C32   A    
C11   C13   A    
C43   C44   S    
C72   H86   S    
C56   H48   S    
C2    O2    A    
N2    Zn2   S    
C5    C35   A    
C36   C38   A    
C47   H27   S    
C33   C35   A    
C6    C36   A    
C50   H36   S    
C34   C36   A    
C1    C32   S    
C9    C15   A    
C40   H7    S    
C44   H18   S    
C69   H80   S    
C53   H43   S    
N5    H19   S    
C15   C21   A    
C23   C25   S    
C63   H65   S    
C3    C37   A    
O4    Zn2   S    
C16   C18   A    
C70   H81   S    
C50   H34   S    
C56   H49   S    
C58   H54   S    
C73   H88   S    
C66   H73   S    
C46   H25   S    
C4    C30   A    
C59   H55   S    
C32   C34   A    
C27   C28   S    
C25   C27   T    
