data_mof_unit_16625.cif
_audit_creation_date              2012-12-10T20:55:07-0500
_audit_creation_method            fapswitch 2.2
_symmetry_space_group_name_H-M    P1
_symmetry_Int_Tables_number       1
_space_group_crystal_system       triclinic
_cell_length_a                    15.858784
_cell_length_b                    15.07725
_cell_length_c                    10.68263
_cell_angle_alpha                 88.561812
_cell_angle_beta                  90.000024
_cell_angle_gamma                 89.882468
_cell_volume                      2553.4800011

loop_
_atom_site_label
_atom_site_type_symbol
_atom_type_description
_atom_site_fract_x
_atom_site_fract_y
_atom_site_fract_z
_atom_type_partial_charge
C1    C     C_R   0.339013 0.500084 0.500262 0.905056
C2    C     C_R   0.660979 0.499918 0.499377 0.911085
C3    C     C_R   0.956433 0.420426 0.465426 0.170633
C4    C     C_R   0.045033 0.421070 0.467974 0.162101
C5    C     C_1   0.823600 0.500148 0.488016 -0.014149
C6    C     C_1   0.176279 0.501065 0.493727 -0.015520
C7    C     C_1   0.250932 0.500464 0.497297 -0.200586
C8    C     C_1   0.748994 0.499894 0.493806 -0.205161
C9    C     C_R   0.423316 0.952492 0.519040 0.142369
C10   C     C_R   0.576117 0.952754 0.481547 0.142175
C11   C     C_R   0.499645 0.904987 0.500404 -0.001068
C12   C     C_R   0.576196 0.047618 0.482326 0.136039
C13   C     C_R   0.423613 0.047371 0.520672 0.134425
C14   C     C_R   0.499926 0.094894 0.501346 -0.076291
C15   C     C_1   0.499591 0.806932 0.500609 0.054287
C16   C     C_1   0.499950 0.193043 0.500625 0.075751
C17   C     C_R   0.491546 0.501525 0.259272 0.883012
C18   C     C_R   0.507347 0.498844 0.740538 0.887453
C19   C     C_R   0.476729 0.671369 0.090958 0.150031
C20   C     C_R   0.588988 0.642879 0.891162 0.157518
C21   C     C_R   0.519006 0.745039 0.033112 0.126313
C22   C     C_R   0.581866 0.729197 0.940779 0.142095
C23   C     C_R   0.535620 0.574457 0.938286 0.003889
C24   C     C_R   0.497925 0.584239 0.054403 0.003698
C25   C     C_R   0.481766 0.504968 0.124935 -0.098433
C26   C     C_R   0.516390 0.496221 0.874262 -0.086177
C27   C     C_R   0.474585 0.423831 0.065389 -0.210796
C28   C     C_R   0.487313 0.420606 0.938762 -0.214651
C29   C     C_R   0.954896 0.582594 0.497894 0.096200
C30   C     C_R   0.043617 0.582508 0.504689 0.100545
C31   C     C_R   0.912805 0.501039 0.482242 0.022124
C32   C     C_R   0.086967 0.501680 0.488849 0.017338
H1    H     H_    0.458688 0.363116 0.116422 0.166387
H2    H     H_    0.474038 0.359368 0.891649 0.167544
N1    N     N_1   0.500000 0.270550 0.500000 -0.098500
N2    N     N_1   0.500000 0.729450 0.500000 -0.107932
O1    O     O_R   0.378020 0.573650 0.500040 -0.612538
O2    O     O_R   0.621980 0.573650 0.499960 -0.617541
O3    O     O_R   0.378020 0.426320 0.500100 -0.610202
O4    O     O_R   0.621980 0.426320 0.499900 -0.607634
O5    O     O_R   0.500000 0.573680 0.316780 -0.606092
O6    O     O_R   0.500000 0.573680 0.683220 -0.596615
O7    O     O_R   0.500000 0.426350 0.316830 -0.617677
O8    O     O_R   0.500000 0.426350 0.683170 -0.626920
Zn1   Zn    Zn3+2 0.500000 0.598370 0.500000 0.953698
Zn2   Zn    Zn3+2 0.500000 0.401630 0.500000 0.959672
C33   C     C_3   0.399681 0.686202 0.172290 -0.821493
H3    H     H_    0.351649 0.724852 0.118536 0.207895
H4    H     H_    0.367968 0.623359 0.200681 0.225028
H5    H     H_    0.416850 0.722354 0.257709 0.257488
C34   C     C_3   0.660339 0.620684 0.802483 -0.856432
H6    H     H_    0.721813 0.635765 0.846498 0.215564
H7    H     H_    0.663365 0.549145 0.781499 0.212039
H8    H     H_    0.654077 0.658744 0.713006 0.265665
C35   C     C_3   0.498013 0.839305 0.071477 -0.411957
C36   C     C_3   0.547725 0.864811 0.187091 -0.853403
H9    H     H_    0.523944 0.929035 0.221638 0.259745
H10   H     H_    0.540718 0.813057 0.261413 0.274452
H11   H     H_    0.615802 0.871891 0.165937 0.243464
H12   H     H_    0.510326 0.888502 0.994974 0.212875
H13   H     H_    0.429804 0.847147 0.090610 0.209508
C37   C     C_3   0.639331 0.803839 0.893363 -0.411870
C38   C     C_3   0.605447 0.847874 0.773649 -0.852496
H14   H     H_    0.641361 0.909600 0.752732 0.245085
H15   H     H_    0.613237 0.802935 0.694237 0.271286
H16   H     H_    0.537711 0.865173 0.782995 0.255935
H17   H     H_    0.704362 0.779875 0.876791 0.206988
H18   H     H_    0.647731 0.855239 0.964192 0.208774
C39   C     C_3   0.092921 0.667057 0.530764 -0.383758
C40   C     C_3   0.124177 0.711541 0.409458 -0.868857
H19   H     H_    0.167560 0.666781 0.359243 0.267255
H20   H     H_    0.070257 0.729063 0.347273 0.250023
H21   H     H_    0.158845 0.773167 0.431366 0.249203
H22   H     H_    0.055402 0.715175 0.584249 0.207220
H23   H     H_    0.147695 0.652123 0.592635 0.209086
C41   C     C_3   0.904234 0.668628 0.505852 -0.378527
C42   C     C_3   0.875077 0.684668 0.639713 -0.882557
H24   H     H_    0.834453 0.629397 0.674058 0.269467
H25   H     H_    0.929988 0.690273 0.703408 0.251412
H26   H     H_    0.838059 0.747209 0.642160 0.249554
H27   H     H_    0.940245 0.726797 0.469959 0.206002
H28   H     H_    0.848238 0.666758 0.443493 0.209323
C43   C     C_3   0.909473 0.334086 0.444989 -0.894640
H29   H     H_    0.927660 0.306812 0.353231 0.239048
H30   H     H_    0.925102 0.285464 0.521317 0.239759
H31   H     H_    0.839951 0.340748 0.443601 0.246835
C44   C     C_3   0.096798 0.337067 0.450425 -0.890684
H32   H     H_    0.059321 0.276649 0.434603 0.242061
H33   H     H_    0.139072 0.346270 0.368255 0.240646
H34   H     H_    0.135922 0.323663 0.535059 0.241250
C45   C     C_3   0.342236 0.099187 0.541465 -0.387216
C46   C     C_3   0.304033 0.131595 0.417250 -0.850807
H35   H     H_    0.348176 0.176734 0.366347 0.260692
H36   H     H_    0.289404 0.074495 0.357359 0.253892
H37   H     H_    0.244721 0.168426 0.435280 0.247944
H38   H     H_    0.294424 0.059613 0.593616 0.208660
H39   H     H_    0.354252 0.156920 0.601515 0.199584
C47   C     C_3   0.657485 0.099693 0.460236 -0.387006
C48   C     C_3   0.665286 0.130269 0.323364 -0.848728
H40   H     H_    0.665293 0.072299 0.261257 0.253492
H41   H     H_    0.612215 0.174926 0.296402 0.262299
H42   H     H_    0.725286 0.167083 0.309611 0.247001
H43   H     H_    0.659684 0.158302 0.521118 0.201234
H44   H     H_    0.714376 0.060854 0.486664 0.209294
C49   C     C_3   0.340744 0.902687 0.536354 -0.917837
H45   H     H_    0.345701 0.830378 0.522137 0.248155
H46   H     H_    0.316838 0.911529 0.632901 0.230655
H47   H     H_    0.293429 0.927927 0.467650 0.245097
C50   C     C_3   0.658144 0.903338 0.458443 -0.940345
H48   H     H_    0.650662 0.830732 0.450292 0.247723
H49   H     H_    0.687141 0.927518 0.369500 0.251808
H50   H     H_    0.702653 0.913903 0.536759 0.234190

loop_
_geom_bond_atom_site_label_1
_geom_bond_atom_site_label_2
_ccdc_geom_bond_type
C6    C32   S    
C44   H32   S    
C38   H15   S    
C18   C26   S    
C35   C36   S    
C33   H4    S    
C4    C44   S    
C42   H24   S    
C27   H1    S    
O4    Zn2   S    
C49   H46   S    
C29   C30   A    
C37   H17   S    
C19   C21   A    
C20   C34   S    
C18   O6    A    
C16   N1    T    
C19   C33   S    
C9    C49   S    
C47   H43   S    
C36   H9    S    
C10   C50   S    
C23   C26   A    
C9    C13   A    
O2    Zn1   S    
C45   H38   S    
C11   C15   S    
C48   H40   S    
C23   C24   A    
C40   H19   S    
C12   C47   S    
C1    O1    A    
C35   H12   S    
C38   H16   S    
C28   H2    S    
C21   C22   A    
C13   C45   S    
O8    Zn2   S    
C33   H5    S    
C41   C42   S    
C42   H25   S    
C49   H47   S    
C34   H6    S    
C33   H3    S    
C39   H22   S    
C24   C25   A    
C50   H50   S    
C41   H28   S    
C45   C46   S    
C21   C35   S    
C46   H37   S    
C34   H7    S    
O6    Zn1   S    
C17   O7    A    
C37   C38   S    
C18   O8    A    
C22   C37   S    
C2    O2    A    
C43   H29   S    
C20   C23   A    
C43   H31   S    
C40   H21   S    
C46   H36   S    
N2    Zn1   S    
C45   H39   S    
C3    C31   A    
C9    C11   A    
C4    C32   A    
C10   C12   A    
O3    Zn2   S    
C43   H30   S    
C12   C14   A    
C44   H33   S    
C3    C43   S    
C14   C16   S    
O1    Zn1   S    
C3    C4    A    
C15   N2    T    
C30   C39   S    
C42   H26   S    
C48   H41   S    
C1    C7    S    
C2    C8    S    
C20   C22   A    
C41   H27   S    
C5    C8    T    
C6    C7    T    
C25   C27   A    
C49   H45   S    
C26   C28   A    
C36   H11   S    
C37   H18   S    
C34   H8    S    
C17   C25   S    
C50   H49   S    
C19   C24   A    
C29   C31   A    
C50   H48   S    
C30   C32   A    
C47   H44   S    
C35   H13   S    
C46   H35   S    
C36   H10   S    
C39   H23   S    
C39   C40   S    
O7    Zn2   S    
C17   O5    A    
C10   C11   A    
C1    O3    A    
C38   H14   S    
C2    O4    A    
C48   H42   S    
C29   C41   S    
C47   C48   S    
C44   H34   S    
C27   C28   A    
O5    Zn1   S    
C40   H20   S    
C13   C14   A    
N1    Zn2   S    
C5    C31   S    
