data_mof_unit_39993.cif
_audit_creation_date              2013-03-05T15:48:37-0500
_audit_creation_method            fapswitch 2.2
_symmetry_space_group_name_H-M    P1
_symmetry_Int_Tables_number       1
_space_group_crystal_system       triclinic
_cell_length_a                    16.702917
_cell_length_b                    16.677773
_cell_length_c                    42.827528
_cell_angle_alpha                 90.16196
_cell_angle_beta                  89.888025
_cell_angle_gamma                 119.988561
_cell_volume                      10333.138467

loop_
_atom_site_label
_atom_site_type_symbol
_atom_site_description
_atom_site_fract_x
_atom_site_fract_y
_atom_site_fract_z
_atom_type_partial_charge
O1    O     O_R   0.509640 0.171340 0.784000 -0.458056
O2    O     O_R   0.661700 0.490360 0.716000 -0.431619
O3    O     O_R   0.828660 0.338300 0.784000 -0.466703
O4    O     O_R   0.509640 0.171340 0.716000 -0.438756
O5    O     O_R   0.661700 0.490360 0.784000 -0.442803
O6    O     O_R   0.828660 0.338300 0.716000 -0.427406
O7    O     O_R   0.171340 0.509640 0.284000 -0.428478
O8    O     O_R   0.490360 0.661700 0.216000 -0.435719
O9    O     O_R   0.338300 0.828660 0.284000 -0.428085
O10   O     O_R   0.171340 0.509640 0.216000 -0.435212
O11   O     O_R   0.490360 0.661700 0.284000 -0.434835
O12   O     O_R   0.338300 0.828660 0.216000 -0.432190
O13   O     O_R   0.539230 0.345420 0.781810 -0.508518
O14   O     O_R   0.806190 0.460770 0.718190 -0.488270
O15   O     O_R   0.654580 0.193810 0.781810 -0.496238
O16   O     O_R   0.539230 0.345420 0.718190 -0.481684
O17   O     O_R   0.806190 0.460770 0.781810 -0.460973
O18   O     O_R   0.654580 0.193810 0.718190 -0.492486
O19   O     O_R   0.345420 0.539230 0.281810 -0.490164
O20   O     O_R   0.460770 0.806190 0.218190 -0.503986
O21   O     O_R   0.193810 0.654580 0.281810 -0.501211
O22   O     O_R   0.345420 0.539230 0.218190 -0.490017
O23   O     O_R   0.460770 0.806190 0.281810 -0.506020
O24   O     O_R   0.193810 0.654580 0.218190 -0.500659
C1    C     C_R   0.582136 0.426544 0.794455 0.581388
C2    C     C_R   0.842275 0.415799 0.705373 0.534489
C3    C     C_R   0.573999 0.158429 0.794671 0.557859
C4    C     C_R   0.584331 0.426328 0.705328 0.527142
C5    C     C_R   0.845103 0.418362 0.794180 0.602570
C6    C     C_R   0.573629 0.157696 0.705344 0.521784
C7    C     C_R   0.426110 0.585244 0.295042 0.504114
C8    C     C_R   0.415743 0.841950 0.205386 0.525179
C9    C     C_R   0.157924 0.573557 0.294769 0.511521
C10   C     C_R   0.426263 0.584409 0.205300 0.510130
C11   C     C_R   0.415289 0.841654 0.294872 0.513026
C12   C     C_R   0.157655 0.573393 0.205433 0.519717
Cr1   Cr    Cr6+3 0.530290 0.262330 0.750000 1.119371
Cr2   Cr    Cr6+3 0.732040 0.469710 0.750000 1.164152
Cr3   Cr    Cr6+3 0.737670 0.267960 0.750000 1.117880
Cr4   Cr    Cr6+3 0.262330 0.530290 0.250000 1.138346
Cr5   Cr    Cr6+3 0.469710 0.732040 0.250000 1.103761
Cr6   Cr    Cr6+3 0.267960 0.737670 0.250000 1.109239
O25   O     O_3   0.666667 0.333333 0.750000 -0.266439
O26   O     O_3   0.333333 0.666667 0.250000 -0.284177
C13   C     C_R   0.897690 0.455665 0.824062 0.008774
C14   C     C_R   0.556975 0.107369 0.675251 0.006058
C15   C     C_R   0.545608 0.440109 0.824941 -0.018364
C16   C     C_R   0.891636 0.448628 0.675187 0.007305
C17   C     C_R   0.562638 0.121016 0.826616 0.015099
C18   C     C_R   0.550582 0.443605 0.675475 0.003690
C19   C     C_R   0.443355 0.884368 0.326407 -0.023154
C20   C     C_R   0.109889 0.556414 0.175013 -0.000596
C21   C     C_R   0.441079 0.558233 0.326703 -0.029576
C22   C     C_R   0.448089 0.890063 0.175116 0.000042
C23   C     C_R   0.114302 0.558346 0.326126 -0.017754
C24   C     C_R   0.443290 0.550482 0.175448 -0.024998
C25   C     C_R   0.049345 0.593297 0.031366 0.046362
C26   C     C_R   0.587385 0.967640 0.470222 0.036577
C27   C     C_R   0.395224 0.444833 0.032017 0.063377
C28   C     C_R   0.027952 0.617198 0.469839 0.036521
C29   C     C_R   0.573661 0.974049 0.032911 0.051312
C30   C     C_R   0.371130 0.422363 0.471664 0.039495
C31   C     C_R   0.591713 0.974989 0.536119 0.028755
C32   C     C_R   0.039675 0.569996 0.966179 0.026364
C33   C     C_R   0.377482 0.416040 0.537445 0.041181
C34   C     C_R   0.564381 0.984217 0.967540 0.067895
C35   C     C_R   0.016433 0.612605 0.535649 0.026174
C36   C     C_R   0.426712 0.458979 0.967309 0.047913
C37   C     C_R   0.056912 0.604463 0.063834 0.447888
C38   C     C_R   0.582923 0.960955 0.437405 0.419103
C39   C     C_R   0.382924 0.445392 0.064297 0.430992
C40   C     C_R   0.036617 0.620094 0.437080 0.418086
C41   C     C_R   0.572711 0.963680 0.065392 0.442770
C42   C     C_R   0.368285 0.426853 0.438881 0.399329
C43   C     C_R   0.597339 0.987137 0.568724 0.419182
C44   C     C_R   0.032911 0.559494 0.933673 0.430015
C45   C     C_R   0.385314 0.408473 0.569873 0.414347
C46   C     C_R   0.561132 0.990354 0.934949 0.466107
C47   C     C_R   0.004129 0.606175 0.568243 0.416030
C48   C     C_R   0.442333 0.466819 0.935066 0.426706
O27   O     O_2   0.111856 0.679554 0.075195 -0.507359
O28   O     O_2   0.636612 0.944545 0.423167 -0.462377
O29   O     O_2   0.313442 0.442720 0.074796 -0.520359
O30   O     O_2   0.054564 0.690792 0.423015 -0.461545
O31   O     O_2   0.603059 0.917356 0.077009 -0.510663
O32   O     O_2   0.296300 0.377073 0.424927 -0.514874
O33   O     O_2   0.667780 0.002925 0.582495 -0.465730
O34   O     O_2   0.084573 0.623857 0.916781 -0.451656
O35   O     O_2   0.327857 0.339461 0.583704 -0.481546
O36   O     O_2   0.593678 0.954255 0.918206 -0.504148
O37   O     O_2   0.986708 0.659909 0.582030 -0.465564
O38   O     O_2   0.388698 0.474635 0.917639 -0.485645
N1    N     N_R   0.004860 0.530323 0.083045 -0.352422
N2    N     N_R   0.516578 0.970715 0.421412 -0.400215
N3    N     N_R   0.450788 0.453230 0.084287 -0.399523
N4    N     N_R   0.026677 0.543744 0.420975 -0.403882
N5    N     N_R   0.534271 0.002495 0.084203 -0.351830
N6    N     N_R   0.446336 0.488349 0.422526 -0.395069
N7    N     N_R   0.524877 0.984830 0.585002 -0.401802
N8    N     N_R   0.965935 0.477804 0.920656 -0.397893
N9    N     N_R   0.459494 0.477351 0.585900 -0.401179
N10   N     N_R   0.522472 0.038162 0.921759 -0.350495
N11   N     N_R   0.009231 0.537610 0.584511 -0.410168
N12   N     N_R   0.516955 0.463839 0.922828 -0.396725
C49   C     C_R   0.940173 0.445427 0.071099 0.480381
C50   C     C_R   0.454630 0.987596 0.437543 0.419983
C51   C     C_R   0.527427 0.450934 0.073391 0.412720
C52   C     C_R   0.008982 0.464684 0.437025 0.412466
C53   C     C_R   0.502547 0.057997 0.072008 0.472295
C54   C     C_R   0.527390 0.546682 0.438219 0.422313
C55   C     C_R   0.443648 0.964173 0.569906 0.409783
C56   C     C_R   0.909937 0.402243 0.938982 0.404824
C57   C     C_R   0.523736 0.556953 0.570760 0.413368
C58   C     C_R   0.485440 0.079906 0.940042 0.455285
C59   C     C_R   0.031110 0.477983 0.569281 0.430730
C60   C     C_R   0.580110 0.457359 0.941809 0.403897
O39   O     O_2   0.892998 0.383117 0.089288 -0.447180
O40   O     O_2   0.405735 0.009277 0.422865 -0.492328
O41   O     O_2   0.586384 0.459693 0.092075 -0.478963
O42   O     O_2   0.984573 0.393100 0.422416 -0.468375
O43   O     O_2   0.468935 0.090690 0.089749 -0.457547
O44   O     O_2   0.598130 0.591844 0.423129 -0.493870
O45   O     O_2   0.377804 0.953171 0.585599 -0.492221
O46   O     O_2   0.849155 0.332409 0.926442 -0.529977
O47   O     O_2   0.582702 0.620374 0.586335 -0.488992
O48   O     O_2   0.444926 0.114802 0.927272 -0.471347
O49   O     O_2   0.051781 0.429751 0.584828 -0.449315
O50   O     O_2   0.645865 0.456368 0.929711 -0.534429
C61   C     C_R   0.930343 0.430246 0.038250 0.006944
C62   C     C_R   0.445998 0.977424 0.470453 -0.010436
C63   C     C_R   0.539466 0.442935 0.040818 -0.012599
C64   C     C_R   0.019760 0.466599 0.469863 -0.006947
C65   C     C_R   0.505080 0.073401 0.039274 0.010278
C66   C     C_R   0.528243 0.555619 0.471190 -0.011239
C67   C     C_R   0.438396 0.960945 0.536766 -0.016906
C68   C     C_R   0.919805 0.407150 0.972028 -0.006013
C69   C     C_R   0.524320 0.562982 0.537653 -0.019107
C70   C     C_R   0.494200 0.082318 0.973079 0.008516
C71   C     C_R   0.027660 0.471520 0.536236 0.006203
C72   C     C_R   0.568192 0.450914 0.974818 -0.015707
C73   C     C_R   0.986950 0.505529 0.018425 -0.037426
C74   C     C_R   0.515782 0.970993 0.486855 -0.045171
C75   C     C_R   0.474857 0.445756 0.020099 -0.015992
C76   C     C_R   0.023634 0.541758 0.486379 -0.044414
C77   C     C_R   0.536876 0.026557 0.019678 -0.011359
C78   C     C_R   0.450105 0.489675 0.487946 -0.040556
C79   C     C_R   0.514927 0.968664 0.519945 -0.044328
C80   C     C_R   0.981809 0.493964 0.985543 -0.055784
C81   C     C_R   0.450693 0.489994 0.521047 -0.043282
C82   C     C_R   0.531488 0.031022 0.986760 -0.004562
C83   C     C_R   0.022699 0.541808 0.519441 -0.049259
C84   C     C_R   0.490217 0.451862 0.987398 -0.030429
C85   C     C_R   0.105893 0.667521 0.011686 -0.110611
C86   C     C_R   0.659956 0.967735 0.486770 -0.069217
C87   C     C_R   0.331470 0.448069 0.011545 -0.107156
C88   C     C_R   0.026356 0.689173 0.486422 -0.077546
C89   C     C_R   0.607349 0.929747 0.013423 -0.110573
C90   C     C_R   0.295907 0.353726 0.488531 -0.129126
C91   C     C_R   0.663320 0.973779 0.519214 -0.098085
C92   C     C_R   0.101600 0.655864 0.979579 -0.104758
C93   C     C_R   0.300211 0.348981 0.520888 -0.118066
C94   C     C_R   0.602800 0.934778 0.981221 -0.102091
C95   C     C_R   0.018423 0.685796 0.518820 -0.101900
C96   C     C_R   0.347538 0.456133 0.979687 -0.103067
C97   C     C_R   0.869188 0.342242 0.024684 0.012366
C98   C     C_R   0.367958 0.968225 0.487132 -0.004703
C99   C     C_R   0.615541 0.437139 0.028226 -0.022206
C100  C     C_R   0.025984 0.396065 0.486474 -0.026795
C101  C     C_R   0.474175 0.131007 0.025565 0.027343
C102  C     C_R   0.601917 0.630346 0.487671 -0.006499
C103  C     C_R   0.362235 0.955832 0.519979 -0.007874
C104  C     C_R   0.867044 0.329815 0.991848 0.036063
C105  C     C_R   0.598084 0.636150 0.520637 -0.010070
C106  C     C_R   0.468844 0.135465 0.992597 0.040322
C107  C     C_R   0.029170 0.398093 0.519557 -0.009295
C108  C     C_R   0.628419 0.439119 0.995419 -0.002187
C109  C     C_R   0.102078 0.513096 0.120533 -0.111990
C110  C     C_R   0.408783 0.871774 0.381812 -0.101409
C111  C     C_R   0.476597 0.575983 0.120075 -0.090297
C112  C     C_R   0.123791 0.531958 0.381300 -0.100430
C113  C     C_R   0.419638 0.894464 0.119832 -0.107139
C114  C     C_R   0.462873 0.596370 0.381896 -0.108165
C115  C     C_R   0.534910 0.105219 0.619260 -0.082851
C116  C     C_R   0.975183 0.428739 0.867519 -0.093476
C117  C     C_R   0.565404 0.457601 0.619189 -0.082806
C118  C     C_R   0.604743 0.149492 0.881316 -0.107053
C119  C     C_R   0.892413 0.426461 0.619268 -0.081230
C120  C     C_R   0.580576 0.534038 0.872062 -0.085394
C121  C     C_R   0.140457 0.523013 0.149865 -0.019680
C122  C     C_R   0.379753 0.845057 0.351409 -0.028643
C123  C     C_R   0.475836 0.611004 0.149391 -0.021982
C124  C     C_R   0.151160 0.530706 0.350917 -0.026787
C125  C     C_R   0.388427 0.855351 0.148961 -0.016621
C126  C     C_R   0.471212 0.624835 0.351126 -0.028236
C127  C     C_R   0.539142 0.144446 0.648189 -0.010076
C128  C     C_R   0.953857 0.420698 0.835708 -0.039192
C129  C     C_R   0.603044 0.457394 0.647991 -0.004115
C130  C     C_R   0.616821 0.181635 0.850926 0.007672
C131  C     C_R   0.854336 0.392382 0.648327 -0.006935
C132  C     C_R   0.589278 0.528276 0.839779 -0.046707
C133  C     C_R   0.036923 0.575781 0.170146 -0.033597
C134  C     C_R   0.533811 0.959233 0.332656 -0.007809
C135  C     C_R   0.416890 0.455591 0.171502 -0.005010
C136  C     C_R   0.040461 0.575483 0.332404 0.001076
C137  C     C_R   0.538681 0.967382 0.171463 -0.042069
C138  C     C_R   0.415039 0.465146 0.334107 -0.004155
C139  C     C_R   0.561941 0.024806 0.672744 0.000304
C140  C     C_R   0.878801 0.513282 0.844036 -0.015702
C141  C     C_R   0.463371 0.438987 0.673380 -0.000694
C142  C     C_R   0.493323 0.028873 0.833768 -0.063106
C143  C     C_R   0.972906 0.536888 0.672340 -0.006347
C144  C     C_R   0.477848 0.361760 0.842242 -0.021049
C145  C     C_R   0.000263 0.567790 0.139476 0.076930
C146  C     C_R   0.560605 0.990048 0.364213 0.060759
C147  C     C_R   0.423026 0.422430 0.141365 0.065102
C148  C     C_R   0.008913 0.570531 0.363898 0.067113
C149  C     C_R   0.569819 0.006126 0.141164 0.074113
C150  C     C_R   0.421977 0.440970 0.365688 0.073101
C151  C     C_R   0.552850 0.982771 0.642750 0.068457
C152  C     C_R   0.900324 0.519870 0.876246 0.019392
C153  C     C_R   0.432887 0.454429 0.643933 0.074132
C154  C     C_R   0.479841 0.997985 0.865419 0.070930
C155  C     C_R   0.013287 0.569300 0.642183 0.068993
C156  C     C_R   0.467135 0.370246 0.874697 0.038101
C157  C     C_R   0.033822 0.535628 0.114950 0.209132
C158  C     C_R   0.496939 0.944223 0.388777 0.158064
C159  C     C_R   0.450105 0.483337 0.115757 0.175243
C160  C     C_R   0.052977 0.550112 0.388357 0.159452
C161  C     C_R   0.508458 0.968643 0.115594 0.214263
C162  C     C_R   0.440545 0.506549 0.389737 0.162999
C163  C     C_R   0.539263 0.024369 0.616070 0.171897
C164  C     C_R   0.946334 0.474847 0.887799 0.184794
C165  C     C_R   0.483144 0.459479 0.616641 0.175318
C166  C     C_R   0.535964 0.060443 0.889005 0.218433
C167  C     C_R   0.971639 0.512641 0.615737 0.167298
C168  C     C_R   0.522853 0.455698 0.889543 0.183673
H1    H     H_    0.146412 0.714958 0.965216 0.193224
H2    H     H_    0.722170 0.977125 0.531063 0.198119
H3    H     H_    0.297428 0.460150 0.964721 0.172217
H4    H     H_    0.014638 0.741237 0.530708 0.199687
H5    H     H_    0.629165 0.899205 0.967019 0.171449
H6    H     H_    0.242506 0.292684 0.532953 0.184218
H7    H     H_    0.715861 0.965764 0.474602 0.222821
H8    H     H_    0.154542 0.735031 0.021087 0.176779
H9    H     H_    0.234519 0.301614 0.476658 0.180562
H10   H     H_    0.636269 0.889695 0.023037 0.171490
H11   H     H_    0.028848 0.747294 0.474300 0.215376
H12   H     H_    0.269973 0.447130 0.020175 0.161349
H13   H     H_    0.127281 0.489624 0.101193 0.135370
H14   H     H_    0.360460 0.837286 0.400784 0.144670
H15   H     H_    0.498060 0.621395 0.099930 0.136263
H16   H     H_    0.156962 0.516102 0.400156 0.130069
H17   H     H_    0.374247 0.866700 0.099757 0.135357
H18   H     H_    0.479344 0.646707 0.400454 0.142898
H19   H     H_    0.524210 0.136069 0.598556 0.135189
H20   H     H_    0.015022 0.399135 0.876809 0.138928
H21   H     H_    0.604257 0.463640 0.598128 0.131901
H22   H     H_    0.645759 0.196174 0.899959 0.157239
H23   H     H_    0.861556 0.383808 0.598717 0.141546
H24   H     H_    0.617671 0.600391 0.883835 0.145777
C169  C     C_2   0.815920 0.234508 0.978520 0.298792
H25   H     H_    0.848819 0.213139 0.961109 0.136093
O51   O     O_2   0.736540 0.180180 0.986203 -0.462950
C170  C     C_2   0.276516 0.939020 0.536397 0.339187
H26   H     H_    0.240874 0.880190 0.551931 0.155814
O52   O     O_2   0.245790 0.991202 0.532856 -0.442032
C171  C     C_2   0.701225 0.421514 0.983057 0.321123
H27   H     H_    0.760807 0.475641 0.970955 0.143085
O53   O     O_2   0.693954 0.345506 0.986322 -0.473535
C172  C     C_2   0.031656 0.321052 0.536023 0.367602
H28   H     H_    0.086929 0.306464 0.531190 0.107279
O54   O     O_2   0.969221 0.270519 0.553677 -0.394434
C173  C     C_2   0.447742 0.204275 0.978559 0.310498
H29   H     H_    0.496916 0.255829 0.962609 0.124229
O55   O     O_2   0.374161 0.201013 0.983410 -0.423366
C174  C     C_2   0.672959 0.718495 0.536934 0.340979
H30   H     H_    0.655759 0.758097 0.552989 0.159872
O56   O     O_2   0.754082 0.741959 0.532704 -0.443363
C175  C     C_2   0.287857 0.963161 0.470269 0.349437
H31   H     H_    0.295486 0.022728 0.457535 0.175108
O57   O     O_2   0.212912 0.892040 0.470590 -0.475426
C176  C     C_2   0.810133 0.261195 0.044597 0.373376
H32   H     H_    0.840378 0.226549 0.057246 0.131689
O58   O     O_2   0.727840 0.234512 0.047407 -0.410193
C177  C     C_2   0.679947 0.707294 0.470593 0.349895
H33   H     H_    0.727485 0.694519 0.457091 0.175525
O59   O     O_2   0.691326 0.785472 0.471653 -0.473289
C178  C     C_2   0.455318 0.192962 0.045497 0.311792
H34   H     H_    0.507375 0.239704 0.061832 0.125798
O60   O     O_2   0.380360 0.188957 0.044946 -0.422399
C179  C     C_2   0.036035 0.323676 0.469279 0.272215
H35   H     H_    0.083979 0.343232 0.449842 0.162286
O61   O     O_2   0.989619 0.241953 0.476181 -0.443770
C180  C     C_2   0.681796 0.427416 0.048958 0.362364
H36   H     H_    0.656796 0.377520 0.067835 0.175338
O62   O     O_2   0.765085 0.476186 0.045262 -0.442355
C181  C     C_2   0.832468 0.563160 0.832305 0.354015
H37   H     H_    0.768799 0.551554 0.843067 0.119242
O63   O     O_2   0.867728 0.620699 0.811612 -0.428554
C182  C     C_2   0.568621 0.980184 0.701901 0.301642
H38   H     H_    0.610236 0.022045 0.721307 0.112162
O64   O     O_2   0.523796 0.896335 0.705214 -0.413412
C183  C     C_2   0.419293 0.270656 0.826913 0.353405
H39   H     H_    0.383111 0.266653 0.805429 0.122831
O65   O     O_2   0.412989 0.200030 0.837724 -0.413642
C184  C     C_2   0.017961 0.589759 0.701285 0.326199
H40   H     H_    0.976521 0.589253 0.720876 0.134121
O66   O     O_2   0.101883 0.630518 0.704210 -0.393867
C185  C     C_2   0.434511 0.968125 0.807931 0.253242
H41   H     H_    0.462975 0.976423 0.784583 0.120219
O67   O     O_2   0.352981 0.911559 0.811972 -0.431400
C186  C     C_2   0.405678 0.417465 0.702000 0.333186
H42   H     H_    0.438157 0.439438 0.724734 0.104699
O68   O     O_2   0.321517 0.371194 0.700647 -0.396784
C187  C     C_2   0.595370 0.008525 0.305781 0.326191
H43   H     H_    0.596503 0.970401 0.285412 0.121706
O69   O     O_2   0.641947 0.092865 0.305379 -0.398171
C188  C     C_2   0.996469 0.598702 0.197464 0.246219
H44   H     H_    0.038716 0.635849 0.217381 0.140123
O70   O     O_2   0.913951 0.572416 0.198709 -0.450481
C189  C     C_2   0.380143 0.394845 0.308709 0.359684
H45   H     H_    0.406518 0.414515 0.285125 0.092628
O71   O     O_2   0.318578 0.315539 0.313538 -0.373700
C190  C     C_2   0.597141 0.009848 0.199682 0.245356
H46   H     H_    0.592414 0.967648 0.219545 0.135203
O72   O     O_2   0.648377 0.093441 0.201702 -0.442779
C191  C     C_2   0.992892 0.590325 0.305585 0.325309
H47   H     H_    0.032017 0.630329 0.285541 0.123448
O73   O     O_2   0.908792 0.553881 0.304841 -0.403053
C192  C     C_2   0.380741 0.392540 0.198855 0.349811
H48   H     H_    0.409523 0.417677 0.221886 0.091999
O74   O     O_2   0.315638 0.313846 0.196244 -0.387593
C193  C     C_2   0.873448 0.570959 0.898746 0.288979
H49   H     H_    0.859138 0.548946 0.922908 0.127537
O75   O     O_2   0.870232 0.639718 0.891058 -0.466700
C194  C     C_2   0.558118 0.897136 0.638386 0.371141
H50   H     H_    0.518890 0.848944 0.619842 0.120223
O76   O     O_2   0.609755 0.881864 0.654196 -0.390509
C195  C     C_2   0.398278 0.291355 0.893931 0.351983
H51   H     H_    0.414260 0.283911 0.917902 0.135164
O77   O     O_2   0.321569 0.236880 0.883832 -0.410566
C196  C     C_2   0.097159 0.661158 0.637401 0.370347
H52   H     H_    0.144868 0.670603 0.618642 0.121159
O78   O     O_2   0.111378 0.728194 0.653113 -0.390805
C197  C     C_2   0.410246 0.901015 0.873672 0.354868
H53   H     H_    0.391826 0.845526 0.856974 0.155237
O79   O     O_2   0.372358 0.881758 0.899152 -0.436013
C198  C     C_2   0.355126 0.473600 0.641332 0.344820
H54   H     H_    0.318991 0.463182 0.619399 0.147978
O80   O     O_2   0.333724 0.506444 0.663121 -0.413916
C199  C     C_2   0.653431 0.068432 0.372252 0.377854
H55   H     H_    0.661285 0.112744 0.391990 0.130320
O81   O     O_2   0.722454 0.081361 0.358145 -0.381688
C200  C     C_2   0.932095 0.598242 0.132744 0.360526
H56   H     H_    0.928130 0.648783 0.147657 0.155569
O82   O     O_2   0.879524 0.567524 0.110519 -0.398319
C201  C     C_2   0.418617 0.352500 0.373755 0.347312
H57   H     H_    0.403593 0.325988 0.397375 0.148942
O83   O     O_2   0.438140 0.310660 0.354591 -0.420370
C202  C     C_2   0.666797 0.081417 0.135965 0.356121
H58   H     H_    0.721325 0.089532 0.151608 0.156558
O84   O     O_2   0.687192 0.135418 0.114232 -0.416567
C203  C     C_2   0.931420 0.586405 0.371963 0.372844
H59   H     H_    0.886208 0.549465 0.391397 0.124712
O85   O     O_2   0.920227 0.644119 0.358245 -0.387668
C204  C     C_2   0.403812 0.326393 0.135741 0.358661
H60   H     H_    0.377882 0.293703 0.113216 0.148726
O86   O     O_2   0.421356 0.284633 0.155426 -0.397130
C205  C     C_2   0.216774 0.502794 0.152328 0.261759
H61   H     H_    0.280587 0.545293 0.139701 0.072803
O87   O     O_2   0.206355 0.434898 0.166531 -0.411379
C206  C     C_2   0.281714 0.773670 0.347819 0.263207
H62   H     H_    0.253737 0.712736 0.362388 0.061132
O88   O     O_2   0.229614 0.787083 0.331592 -0.415679
C207  C     C_2   0.502114 0.709896 0.150598 0.248411
H63   H     H_    0.469573 0.735588 0.134716 0.077540
O89   O     O_2   0.565095 0.764620 0.167260 -0.436245
C208  C     C_2   0.221780 0.503071 0.347114 0.263094
H64   H     H_    0.284015 0.537263 0.361011 0.059533
O90   O     O_2   0.206654 0.435985 0.331295 -0.396157
C209  C     C_2   0.293428 0.775629 0.150312 0.250270
H65   H     H_    0.274946 0.715249 0.135908 0.070646
O91   O     O_2   0.233617 0.779930 0.165372 -0.441861
C210  C     C_2   0.508018 0.725127 0.346685 0.273512
H66   H     H_    0.482362 0.760378 0.361299 0.069695
O92   O     O_2   0.573883 0.770788 0.329594 -0.408354
C211  C     C_2   0.524952 0.225008 0.648211 0.242975
H67   H     H_    0.559558 0.278412 0.630750 0.053228
O93   O     O_2   0.467763 0.227711 0.665230 -0.425307
C212  C     C_2   0.994160 0.377376 0.815561 0.283039
H68   H     H_    0.014463 0.330606 0.825697 0.121101
O94   O     O_2   0.009875 0.397141 0.787943 -0.430607
C213  C     C_2   0.697116 0.470003 0.647514 0.242078
H69   H     H_    0.714774 0.434344 0.629991 0.056060
O95   O     O_2   0.757767 0.526688 0.664415 -0.435476
C214  C     C_2   0.681275 0.281866 0.846683 0.228703
H70   H     H_    0.740173 0.317858 0.862170 0.110679
O96   O     O_2   0.666014 0.326456 0.827538 -0.520036
C215  C     C_2   0.774395 0.297313 0.648730 0.249247
H71   H     H_    0.719356 0.277949 0.631885 0.055705
O97   O     O_2   0.773769 0.237853 0.665393 -0.428496
C216  C     C_2   0.643020 0.616730 0.822683 0.282479
H72   H     H_    0.696622 0.677159 0.834695 0.136250
O98   O     O_2   0.624590 0.624663 0.795698 -0.436328

loop_
_geom_bond_atom_site_label_1
_geom_bond_atom_site_label_2
_geom_bond_distance
_ccdc_geom_bond_type
C64   C76   1.410602 A    
C100  C107  1.417669 A    
C117  C165  1.394390 A    
C10   C24   1.480188 S    
C201  H57   1.082777 S    
N9    C57   1.382893 Am   
C52   O42   1.221966 D    
C45   N9    1.379121 Am   
C179  H35   1.085566 S    
O13   C1    1.290544 A    
C183  O65   1.221379 D    
C193  H49   1.084496 S    
C45   O35   1.222316 D    
C176  H32   1.084976 S    
C124  C208  1.473980 S    
C135  C147  1.426303 A    
C115  H19   1.085356 S    
C56   O46   1.221569 D    
C76   C83   1.416005 A    
C37   N1    1.374770 Am   
C39   N3    1.374750 Am   
C146  C199  1.484851 S    
C28   C40   1.408619 A    
O24   Cr6   1.894852 S    
C206  H62   1.080821 S    
O10   Cr4   2.007812 S    
C20   C133  1.424075 A    
O12   Cr6   2.006750 S    
C143  C184  1.488177 S    
N12   C60   1.379519 Am   
C18   C141  1.422751 A    
C190  H46   1.082983 S    
C70   C106  1.425996 A    
C101  C106  1.419425 A    
C114  C126  1.384955 A    
C89   H10   1.083498 S    
C72   C84   1.415843 A    
O1    Cr1   2.007345 S    
N4    C52   1.383177 Am   
C24   C123  1.419576 A    
O3    Cr3   2.005749 S    
C147  C204  1.486836 S    
C50   O40   1.221235 D    
C21   C126  1.420497 A    
O7    C9    1.278636 A    
Cr6   O26   1.971589 S    
C36   C96   1.402415 A    
C66   C78   1.412007 A    
C33   C45   1.407132 A    
C192  H48   1.085303 S    
C16   C131  1.415600 A    
C53   C65   1.422700 A    
C35   C47   1.407129 A    
C155  C196  1.485493 S    
C196  H52   1.085358 S    
C26   C38   1.408716 A    
C212  O94   1.221116 D    
O4    C6    1.281800 A    
C5    C13   1.500036 S    
C139  C182  1.488088 S    
C48   O38   1.223329 D    
C69   C105  1.427125 A    
N10   C58   1.380557 Am   
O14   Cr2   1.894468 S    
O15   C3    1.291563 A    
C183  H39   1.085263 S    
C110  H14   1.085561 S    
C72   C108  1.425254 A    
C22   C137  1.423593 A    
C143  C155  1.432245 A    
C128  C212  1.483283 S    
C184  H40   1.084001 S    
O14   C2    1.294355 A    
C94   H5    1.083470 S    
C114  H18   1.085519 S    
O15   Cr3   1.896799 S    
C40   O30   1.221879 D    
C19   C122  1.417124 A    
O5    C1    1.298377 A    
C59   C71   1.418138 A    
N10   C166  1.440342 S    
C11   C19   1.488092 S    
C209  H65   1.084623 S    
C172  O54   1.221229 D    
C65   C77   1.416356 A    
C211  H67   1.083519 S    
C42   O32   1.222373 D    
C63   C75   1.417342 A    
C182  H38   1.084061 S    
C50   C62   1.418524 A    
C86   H7    1.083179 S    
C154  C166  1.416262 A    
C97   C176  1.482488 S    
C214  O96   1.218221 D    
C194  H50   1.085352 S    
C88   H11   1.083183 S    
C210  O92   1.220053 D    
N7    C163  1.449450 S    
C207  H63   1.085169 S    
C61   C97   1.426155 A    
C44   N8    1.375850 Am   
C123  C207  1.480355 S    
C213  H69   1.084358 S    
C133  C188  1.491335 S    
O23   Cr5   1.892583 S    
Cr2   O25   1.970478 S    
C177  O59   1.220697 D    
C53   O43   1.221398 D    
C198  H54   1.083174 S    
C20   C121  1.417666 A    
C175  O57   1.220590 D    
C33   C81   1.415503 A    
C38   O28   1.221938 D    
N3    C159  1.438965 S    
O21   Cr6   1.896999 S    
C40   N4    1.381632 Am   
N1    C157  1.438097 S    
O21   C9    1.298665 A    
C189  H45   1.085163 S    
C33   C93   1.405552 A    
C117  C129  1.386382 A    
C208  H64   1.080724 S    
C89   C94   1.386454 A    
C54   O44   1.221141 D    
C142  C154  1.428423 A    
C101  C178  1.488240 S    
C199  H55   1.085321 S    
C31   C91   1.405613 A    
C42   N6    1.380563 Am   
C137  C149  1.427599 A    
C148  C160  1.417907 A    
C153  C198  1.489137 S    
N4    C160  1.451729 S    
C179  O61   1.221134 D    
C126  C210  1.478269 S    
C134  C187  1.487824 S    
C129  C213  1.477552 S    
C169  H25   1.085206 S    
C58   O48   1.221761 D    
C120  C132  1.397985 A    
C215  H71   1.083704 S    
C186  H42   1.085305 S    
O3    C5    1.295763 A    
C188  O70   1.220872 D    
N6    C162  1.451115 S    
C114  C162  1.392765 A    
C170  H26   1.085302 S    
C17   C142  1.420756 A    
C47   O37   1.222054 D    
C77   C82   1.417364 A    
C12   C20   1.479952 S    
C19   C134  1.423810 A    
C13   C128  1.421042 A    
C27   C75   1.416651 A    
C32   C80   1.416884 A    
C181  O63   1.221052 D    
C47   N11   1.379293 Am   
C56   C68   1.422551 A    
C31   C79   1.415532 A    
C202  H58   1.084137 S    
C135  C192  1.487328 S    
C151  C194  1.485429 S    
C39   O29   1.223680 D    
C185  O67   1.220716 D    
O22   C10   1.295441 A    
C92   H1    1.083596 S    
O8    Cr5   2.002088 S    
C131  C215  1.476768 S    
C191  O73   1.220757 D    
C127  C211  1.476389 S    
C178  O60   1.220272 D    
N5    C53   1.380039 Am   
O2    Cr2   2.008307 S    
C115  C127  1.384751 A    
C175  H31   1.084839 S    
N7    C55   1.382881 Am   
C96   H3    1.083616 S    
C43   N7    1.379356 Am   
C21   C138  1.423785 A    
C111  C123  1.385939 A    
C9    C23   1.487282 S    
O8    C10   1.279380 A    
C41   O31   1.223137 D    
C68   C80   1.415104 A    
C155  C167  1.414072 A    
C43   O33   1.222135 D    
C137  C190  1.491316 S    
C13   C140  1.432491 A    
C67   C79   1.414937 A    
C54   C66   1.418874 A    
C102  C177  1.486635 S    
C115  C163  1.392500 A    
C98   C175  1.486335 S    
C209  O91   1.219839 D    
C216  H72   1.085718 S    
O20   C8    1.293772 A    
C148  C203  1.484934 S    
N11   C167  1.447265 S    
C153  C165  1.415634 A    
O6    Cr3   2.006251 S    
C74   C79   1.417636 A    
C6    C14   1.484866 S    
C118  C130  1.384499 A    
C151  C163  1.414667 A    
C211  O93   1.218972 D    
C171  H27   1.084650 S    
C130  C214  1.479296 S    
C136  C148  1.434613 A    
C176  O58   1.220671 D    
C32   C92   1.402507 A    
C85   C92   1.385154 A    
C86   C91   1.392087 A    
C87   H12   1.083700 S    
C112  H16   1.085573 S    
O6    C2    1.280050 A    
C31   C43   1.407016 A    
C71   C83   1.414391 A    
C173  O55   1.220181 D    
C91   H2    1.083435 S    
C206  O88   1.219889 D    
C147  C159  1.408633 A    
O17   Cr2   1.898548 S    
C116  H20   1.084158 S    
C111  C159  1.390205 A    
C62   C74   1.411432 A    
C52   C64   1.416458 A    
C145  C157  1.414297 A    
O19   Cr4   1.898343 S    
C109  C157  1.388515 A    
C35   C95   1.405305 A    
N12   C168  1.439431 S    
C174  H30   1.085290 S    
C190  O72   1.220836 D    
C200  H56   1.084149 S    
C66   C102  1.425132 A    
C156  C195  1.490692 S    
C141  C186  1.487240 S    
C138  C189  1.486470 S    
C3    C17   1.477332 S    
C205  O87   1.220251 D    
O16   C4    1.295430 A    
N6    C54   1.383552 Am   
C46   N10   1.374964 Am   
O17   C5    1.290855 A    
O19   C7    1.301206 A    
C24   C135  1.424334 A    
C141  C153  1.432291 A    
C46   O36   1.222831 D    
C192  O74   1.220829 D    
C48   N12   1.374750 Am   
C38   N2    1.381168 Am   
C34   C82   1.418477 A    
C144  C156  1.416791 A    
C180  H36   1.084218 S    
C110  C122  1.382876 A    
C196  O78   1.220690 D    
C61   C73   1.416838 A    
C34   C94   1.402876 A    
C51   O41   1.220665 D    
C104  C169  1.490460 S    
C29   C77   1.416914 A    
C204  H60   1.085400 S    
C150  C162  1.417422 A    
C152  C193  1.494028 S    
C26   C86   1.404644 A    
C90   C93   1.392279 A    
C68   C104  1.423960 A    
C88   C95   1.392209 A    
C184  O66   1.220799 D    
C203  H59   1.085336 S    
C30   C90   1.405060 A    
C90   H9    1.083497 S    
C67   C103  1.427308 A    
C197  O79   1.220878 D    
C144  C183  1.485758 S    
C113  C125  1.384080 A    
C1    C15   1.503788 S    
C2    C16   1.483045 S    
O16   Cr1   1.897794 S    
C99   C180  1.491109 S    
C125  C209  1.476487 S    
C187  H43   1.083711 S    
C201  O83   1.220659 D    
O5    Cr2   2.003560 S    
C49   O39   1.221151 D    
C140  C181  1.480108 S    
C8    C22   1.478590 S    
C18   C129  1.415015 A    
C182  O64   1.220787 D    
C193  O75   1.220706 D    
C34   C46   1.402960 A    
C55   O45   1.221047 D    
C214  H70   1.085380 S    
C194  O76   1.220683 D    
C145  C200  1.489184 S    
C29   C41   1.401315 A    
C116  C128  1.397897 A    
C25   C85   1.403154 A    
C112  C160  1.392169 A    
C138  C150  1.433796 A    
C119  C131  1.384180 A    
Cr1   O25   1.973464 S    
N11   C59   1.380793 Am   
O18   Cr3   1.895676 S    
C28   C88   1.404679 A    
C177  H33   1.084848 S    
C36   C84   1.417525 A    
C29   C89   1.403374 A    
C78   C81   1.417677 A    
C111  H15   1.085164 S    
C62   C98   1.424775 A    
C195  H51   1.084249 S    
C16   C143  1.423788 A    
C119  H23   1.085378 S    
C120  H24   1.084139 S    
C198  O80   1.220720 D    
O24   C12   1.294701 A    
C107  C172  1.486088 S    
C133  C145  1.427825 A    
C93   H6    1.083365 S    
N3    C51   1.380004 Am   
C117  H21   1.085239 S    
C75   C84   1.418046 A    
N8    C56   1.379630 Am   
O23   C11   1.298274 A    
N9    C165  1.449212 S    
Cr5   O26   1.973525 S    
C208  O90   1.220025 D    
C136  C191  1.487830 S    
C199  O81   1.220707 D    
C122  C206  1.474328 S    
C212  H68   1.085698 S    
C25   C73   1.417264 A    
C23   C124  1.416975 A    
C156  C168  1.404547 A    
C191  H47   1.083645 S    
C28   C76   1.415676 A    
C171  O53   1.219934 D    
C55   C67   1.421408 A    
C63   C99   1.426395 A    
C23   C136  1.423312 A    
C186  O68   1.220915 D    
C149  C202  1.488978 S    
C121  C205  1.476531 S    
C103  C170  1.489585 S    
C118  C166  1.389100 A    
C37   O27   1.223415 D    
N2    C158  1.452496 S    
O4    Cr1   2.002093 S    
C100  C179  1.491682 S    
C170  O52   1.221186 D    
O9    C11   1.280865 A    
C172  H28   1.085306 S    
C30   C42   1.408379 A    
O10   C12   1.278134 A    
C95   H4    1.083429 S    
C102  C105  1.418432 A    
C36   C48   1.399131 A    
C181  H37   1.083343 S    
C71   C107  1.427015 A    
C210  H66   1.081529 S    
C202  O84   1.220769 D    
O20   Cr5   1.898031 S    
C14   C127  1.415596 A    
C215  O97   1.219179 D    
C185  H41   1.085459 S    
C70   C82   1.414225 A    
C41   N5    1.375082 Am   
C213  O95   1.218849 D    
O9    Cr6   2.003855 S    
C106  C173  1.487183 S    
C57   O47   1.221019 D    
C105  C174  1.489396 S    
C59   O49   1.221125 D    
C26   C74   1.415715 A    
C108  C171  1.482860 S    
C149  C161  1.414386 A    
C4    C18   1.484145 S    
N5    C161  1.439028 S    
C113  C161  1.389196 A    
C189  O71   1.220924 D    
O7    Cr4   2.004914 S    
O18   C6    1.296377 A    
C44   O34   1.223191 D    
O13   Cr1   1.892579 S    
C73   C80   1.417803 A    
N1    C49   1.379360 Am   
C97   C104  1.418808 A    
C58   C70   1.421085 A    
C109  H13   1.085375 S    
C98   C103  1.418511 A    
C22   C125  1.416661 A    
C15   C144  1.435679 A    
O12   C8    1.280865 A    
C203  O85   1.220717 D    
C69   C81   1.414917 A    
C216  O98   1.221023 D    
C17   C130  1.417121 A    
C207  O89   1.219976 D    
Cr3   O25   1.971751 S    
C14   C139  1.423985 A    
C187  O69   1.220750 D    
C109  C121  1.382868 A    
C152  C164  1.407011 A    
C35   C83   1.416168 A    
N8    C164  1.440507 S    
C116  C164  1.393875 A    
C51   C63   1.424441 A    
C112  C124  1.381882 A    
C169  O51   1.219112 D    
C27   C87   1.402502 A    
C49   C61   1.423950 A    
C134  C146  1.435092 A    
C188  H44   1.082458 S    
C140  C152  1.416277 A    
Cr4   O26   1.970579 S    
O22   Cr4   1.895055 S    
C173  H29   1.084302 S    
C32   C44   1.400343 A    
C7    C21   1.490451 S    
C142  C185  1.489581 S    
C113  H17   1.085274 S    
C132  C216  1.482519 S    
C195  O77   1.220828 D    
C174  O56   1.221210 D    
C200  O82   1.220794 D    
C30   C78   1.416122 A    
C15   C132  1.422090 A    
C65   C101  1.426291 A    
C205  H61   1.084248 S    
N2    C50   1.383652 Am   
C64   C100  1.424059 A    
C120  C168  1.393050 A    
C150  C201  1.489822 S    
C87   C96   1.383909 A    
C139  C151  1.433152 A    
C178  H34   1.083916 S    
C180  O62   1.220950 D    
C118  H22   1.085546 S    
O11   Cr5   2.007884 S    
C57   C69   1.421426 A    
C146  C158  1.417531 A    
C204  O86   1.220641 D    
C110  C158  1.392195 A    
O11   C7    1.278568 A    
C60   O50   1.220995 D    
C85   H8    1.083604 S    
O1    C3    1.282450 A    
O2    C4    1.280364 A    
C25   C37   1.399961 A    
C197  H53   1.083988 S    
C154  C197  1.487944 S    
C119  C167  1.392452 A    
C27   C39   1.397959 A    
C99   C108  1.418991 A    
C60   C72   1.424119 A    
