data_mof_unit_20256.cif
_audit_creation_date              2012-10-26T19:15:01-0400
_audit_creation_method            fapswitch 2.2
_symmetry_space_group_name_H-M    P1
_symmetry_Int_Tables_number       1
_space_group_crystal_system       triclinic
_cell_length_a                    10.890677
_cell_length_b                    10.821934
_cell_length_c                    9.551641
_cell_angle_alpha                 90.515526
_cell_angle_beta                  91.197643
_cell_angle_gamma                 90.761884
_cell_volume                      1125.3452284

loop_
_atom_site_label
_atom_site_type_symbol
_atom_type_description
_atom_site_fract_x
_atom_site_fract_y
_atom_site_fract_z
_atom_type_partial_charge
C1    C     C_R   0.496988 0.262442 0.499422 0.548278
C2    C     C_R   0.500236 0.938182 0.624492 0.024740
C3    C     C_3   0.600933 0.937294 0.733889 0.145748
C4    C     C_R   0.262989 0.498011 0.498563 0.545708
C5    C     C_3   0.598765 0.078331 0.734371 -0.238917
C6    C     C_R   0.546680 0.598766 0.076402 0.153166
C7    C     C_R   0.441840 0.409098 0.072035 -0.025102
C8    C     C_R   0.441757 0.409124 0.923220 -0.021422
C9    C     C_R   0.547437 0.598399 0.928741 0.164205
C10   C     C_3   0.677994 0.639934 0.931203 -0.287902
C11   C     C_3   0.675019 0.645783 0.088944 -0.286051
C12   C     C_R   0.943273 0.508007 0.620785 -0.007961
C13   C     C_R   0.496933 0.737604 0.500248 0.567639
C14   C     C_R   0.737659 0.499452 0.500874 0.545822
C15   C     C_R   0.066939 0.505257 0.618260 0.013200
C16   C     C_R   0.130922 0.493669 0.495657 -0.000039
C17   C     C_R   0.062043 0.479155 0.369954 -0.168808
C18   C     C_R   0.933009 0.479204 0.372206 -0.166227
C19   C     C_R   0.870863 0.495753 0.499772 -0.000408
C20   C     C_3   0.773141 0.931602 0.578915 0.013410
C21   C     C_3   0.834926 0.828731 0.496766 -0.251554
C22   C     C_3   0.915885 0.880006 0.382005 -0.492812
C23   C     C_3   0.943897 0.535297 0.774313 -0.276907
C24   C     C_R   0.150436 0.649562 0.810326 0.063920
C25   C     C_R   0.212890 0.658392 0.940344 -0.079498
C26   C     C_R   0.276687 0.766709 0.979229 -0.110528
C27   C     C_R   0.278870 0.867377 0.888822 -0.111040
C28   C     C_R   0.216590 0.860172 0.759629 -0.108965
C29   C     C_R   0.152499 0.752152 0.720293 -0.070738
C30   C     C_3   0.084807 0.529115 0.771152 -0.119926
C31   C     C_R   0.499403 0.065531 0.624346 -0.045057
C32   C     C_R   0.484484 0.129399 0.499315 -0.001312
C33   C     C_R   0.453850 0.062901 0.376060 -0.170404
C34   C     C_R   0.453713 0.933774 0.376688 -0.180159
C35   C     C_R   0.484504 0.870574 0.500431 0.014475
Cu1   Cu    Cu3+1 0.499990 0.499980 0.640670 0.956983
Cu2   Cu    Cu3+1 0.500010 0.500020 0.359330 0.916227
H1    H     H_    0.107034 0.468208 0.270621 0.127888
H2    H     H_    0.882820 0.466786 0.274101 0.127511
H3    H     H_    0.909707 0.629651 0.796538 0.145728
H4    H     H_    0.902754 0.458430 0.834708 0.118841
H5    H     H_    0.122324 0.446843 0.825607 0.113067
H6    H     H_    0.435360 0.110084 0.278496 0.125123
H7    H     H_    0.435189 0.884152 0.279457 0.125941
H8    H     H_    0.566794 0.898807 0.833507 0.116129
H9    H     H_    0.844756 0.996665 0.621384 0.137893
H10   H     H_    0.712310 0.982252 0.505160 0.138490
H11   H     H_    0.891932 0.773048 0.569524 0.172658
H12   H     H_    0.562996 0.117481 0.833259 0.099008
H13   H     H_    0.763317 0.767066 0.448243 0.176636
H14   H     H_    0.860116 0.934504 0.306622 0.148383
H15   H     H_    0.958378 0.802296 0.324683 0.154342
H16   H     H_    0.990215 0.939678 0.428340 0.145119
H17   H     H_    0.212640 0.581101 0.011619 0.094587
H18   H     H_    0.324833 0.772310 0.079361 0.104974
H19   H     H_    0.328868 0.950931 0.918807 0.090737
H20   H     H_    0.218414 0.938197 0.689534 0.105637
H21   H     H_    0.105981 0.748697 0.619214 0.099899
H22   H     H_    0.682258 0.126589 0.696877 0.129090
H23   H     H_    0.396554 0.334325 0.125809 0.107269
H24   H     H_    0.396229 0.334451 0.865836 0.112077
H25   H     H_    0.735632 0.564645 0.893082 0.145306
H26   H     H_    0.693174 0.730987 0.883442 0.182222
H27   H     H_    0.738627 0.579654 0.139251 0.153181
H28   H     H_    0.680046 0.741569 0.131977 0.122945
N1    N     N_R   0.500790 0.500930 0.147930 -0.230610
N2    N     N_R   0.500790 0.500890 0.852020 -0.228741
O1    O     O_R   0.500000 0.319640 0.618810 -0.509557
O2    O     O_R   0.500010 0.319680 0.381230 -0.512130
O3    O     O_R   0.319650 0.499970 0.618810 -0.498553
O4    O     O_R   0.319660 0.500010 0.381230 -0.514507
O5    O     O_R   0.499990 0.680320 0.618770 -0.471480
O6    O     O_R   0.500000 0.680360 0.381190 -0.519157
O7    O     O_R   0.680340 0.499990 0.618770 -0.492832
O8    O     O_R   0.680350 0.500030 0.381190 -0.515017
O9    O     O_3   0.710818 0.877744 0.692489 -0.579880

loop_
_geom_bond_atom_site_label_1
_geom_bond_atom_site_label_2
_ccdc_geom_bond_type
C2    C35   A    
C24   C25   A    
Cu2   O2    S    
C10   H26   S    
C26   H18   S    
C6    C9    A    
C4    O3    A    
Cu1   N2    S    
C7    C8    A    
C28   H20   S    
C12   C23   S    
C26   C27   A    
C14   O7    A    
Cu1   Cu2   S    
C13   C35   S    
C15   C16   A    
C1    O1    A    
C20   O9    S    
C34   C35   A    
C24   C29   A    
C16   C17   A    
C23   H3    S    
C9    C10   S    
C8    H24   S    
C21   H11   S    
Cu2   O8    S    
C21   C22   S    
C5    H12   S    
C10   H25   S    
C21   H13   S    
Cu1   O3    S    
C33   C34   A    
C22   H16   S    
C5    H22   S    
C33   H6    S    
C23   C30   S    
C34   H7    S    
C25   H17   S    
C11   H27   S    
C6    C11   S    
C27   H19   S    
C18   C19   A    
C25   C26   A    
C3    H8    S    
C1    C32   S    
C1    O2    A    
C2    C31   A    
C4    C16   S    
C18   H2    S    
C9    N2    A    
C31   C32   A    
C12   C15   A    
Cu2   N1    S    
C17   C18   A    
C29   H21   S    
C3    O9    S    
Cu1   O7    S    
C13   O6    A    
Cu2   O4    S    
C7    H23   S    
C15   C30   S    
C22   H15   S    
Cu2   O6    S    
C28   C29   A    
C14   C19   S    
C3    C5    S    
Cu1   O1    S    
C13   O5    A    
C23   H4    S    
C32   C33   A    
C2    C3    S    
C14   O8    A    
C7    N1    A    
C12   C19   A    
C17   H1    S    
C24   C30   S    
C20   H10   S    
C10   C11   S    
C11   H28   S    
C6    N1    A    
C20   C21   S    
C8    N2    A    
C27   C28   A    
C30   H5    S    
C4    O4    A    
C20   H9    S    
Cu1   O5    S    
C22   H14   S    
C5    C31   S    
