data_mof_unit_60444.cif
_audit_creation_date              2012-12-11T16:03:00-0500
_audit_creation_method            fapswitch 2.2
_symmetry_space_group_name_H-M    P1
_symmetry_Int_Tables_number       1
_space_group_crystal_system       triclinic
_cell_length_a                    6.979785
_cell_length_b                    23.186224
_cell_length_c                    25.125487
_cell_angle_alpha                 106.724163
_cell_angle_beta                  90.165698
_cell_angle_gamma                 90.062129
_cell_volume                      3894.16112449

loop_
_atom_site_label
_atom_site_type_symbol
_atom_type_description
_atom_site_fract_x
_atom_site_fract_y
_atom_site_fract_z
_atom_type_partial_charge
O1    O     O_R   0.494320 0.441930 0.440920 -0.526054
O2    O     O_R   0.820780 0.446390 0.546550 -0.544098
O3    O     O_R   0.994330 0.558070 0.559080 -0.520268
C1    C     C_R   0.652102 0.434274 0.563070 0.748690
O4    O     O_R   0.823820 0.435090 0.440550 -0.527767
O5    O     O_R   0.997390 0.546680 0.452330 -0.495751
C2    C     C_R   0.654770 0.416731 0.418639 0.716182
O6    O     O_R   0.491260 0.453320 0.547670 -0.540511
O7    O     O_3   0.661870 0.536630 0.503990 -0.334587
V1    V     V_3+5 0.935460 0.493210 0.499260 1.475499
O8    O     O_R   0.327300 0.553610 0.453450 -0.530853
C3    C     C_R   0.157518 0.565942 0.437184 0.746675
O9    O     O_R   0.324250 0.564910 0.559450 -0.526767
C4    C     C_R   0.155512 0.583265 0.581366 0.714453
V2    V     V_3+5 0.435850 0.506790 0.500740 1.475169
O10   O     O_3   0.159570 0.463370 0.496010 -0.373875
C5    C     C_1   0.145150 0.635334 0.633423 -0.192610
C6    C     C_1   0.133601 0.678124 0.676765 0.013945
C7    C     C_1   0.118326 0.728680 0.728271 0.010764
C8    C     C_1   0.105113 0.771265 0.771721 0.009287
C9    C     C_1   0.089823 0.821821 0.823227 0.009090
C10   C     C_1   0.078237 0.864612 0.866567 -0.209697
C11   C     C_R   0.217393 0.900693 0.141977 -0.242771
H1    H     H_    0.328044 0.932221 0.142271 0.142507
C12   C     C_R   0.222807 0.866287 0.180325 0.153687
C13   C     C_R   0.068414 0.827164 0.181515 -0.001869
C14   C     C_R   0.899545 0.833574 0.153700 -0.206863
H2    H     H_    0.772369 0.809508 0.159985 0.132691
C15   C     C_R   0.889015 0.873746 0.120990 0.138947
C16   C     C_R   0.059121 0.900637 0.107630 -0.100994
N1    N     N_R   0.922745 0.778494 0.247589 -0.286077
N2    N     N_R   0.933961 0.743139 0.281049 -0.284381
C17   C     C_R   0.096837 0.711928 0.283963 0.551836
N3    N     N_R   0.246087 0.716463 0.250841 -0.280722
N4    N     N_R   0.234631 0.751632 0.217322 -0.288644
C18   C     C_R   0.074187 0.784159 0.215599 0.517738
C19   C     C_R   0.288730 0.648612 0.331389 -0.125924
H3    H     H_    0.415382 0.654803 0.308838 0.159657
C20   C     C_R   0.303712 0.614201 0.368887 -0.217113
H4    H     H_    0.440675 0.594329 0.373638 0.197745
C21   C     C_R   0.143248 0.604677 0.399060 -0.180074
C22   C     C_R   0.967382 0.631359 0.391170 0.613407
C23   C     C_R   0.953257 0.665814 0.353837 -0.209388
H5    H     H_    0.816047 0.685469 0.348902 0.162548
C24   C     C_R   0.113007 0.674732 0.323262 -0.068071
C25   C     C_R   0.473478 0.391135 0.629937 -0.242446
H6    H     H_    0.347044 0.416040 0.624725 0.164783
C26   C     C_R   0.465352 0.355719 0.666699 0.632273
C27   C     C_R   0.626734 0.322622 0.675225 -0.272113
C28   C     C_R   0.796115 0.326561 0.645758 0.640528
C29   C     C_R   0.803879 0.362794 0.609710 -0.234275
H7    H     H_    0.936460 0.364717 0.587980 0.171293
C30   C     C_R   0.642847 0.395450 0.601182 -0.233873
N5    N     N_R   0.781582 0.263508 0.732044 -0.167100
N6    N     N_R   0.774573 0.229755 0.766972 -0.271435
C31   C     C_R   0.604138 0.215453 0.786031 0.466274
N7    N     N_R   0.441171 0.236508 0.768488 -0.264790
N8    N     N_R   0.448361 0.270260 0.733565 -0.158897
C32   C     C_R   0.618704 0.284612 0.714440 0.594262
C33   C     C_R   0.419199 0.162584 0.844445 -0.123551
H8    H     H_    0.286151 0.178473 0.831487 0.141822
C34   C     C_R   0.411240 0.126712 0.880781 -0.159236
H9    H     H_    0.272236 0.116105 0.894572 0.120901
C35   C     C_R   0.579906 0.104714 0.898842 -0.054279
C36   C     C_R   0.756840 0.119842 0.879563 -0.158473
H10   H     H_    0.889849 0.103804 0.892408 0.121264
C37   C     C_R   0.764763 0.155734 0.843207 -0.125052
H11   H     H_    0.903623 0.166241 0.829260 0.136905
C38   C     C_R   0.596018 0.177554 0.825033 0.036223
C39   C     C_1   0.643598 0.364682 0.366599 -0.208451
C40   C     C_1   0.632243 0.321882 0.323255 0.007310
C41   C     C_1   0.617662 0.271313 0.271741 0.005722
C42   C     C_1   0.605132 0.228720 0.228268 0.004486
C43   C     C_1   0.590553 0.178195 0.176724 0.005610
C44   C     C_1   0.579212 0.135473 0.133326 -0.208683
O11   O     O_R   0.731800 0.046750 0.952380 -0.534201
O12   O     O_R   0.399050 0.064920 0.059460 -0.523775
O13   O     O_R   0.225670 0.953300 0.047660 -0.535884
C45   C     C_R   0.568124 0.083560 0.081196 0.708332
O14   O     O_R   0.402270 0.053620 0.953470 -0.538330
O15   O     O_R   0.228900 0.941920 0.940910 -0.518315
C46   C     C_R   0.570926 0.065802 0.936954 0.696618
O16   O     O_R   0.728560 0.058130 0.059130 -0.519881
O17   O     O_3   0.561250 0.963410 0.996040 -0.360390
V3    V     V_3+5 0.287590 0.006790 0.000740 1.399324
O18   O     O_R   0.898990 0.935020 0.940500 -0.523071
C47   C     C_R   0.067776 0.916681 0.918621 0.724122
O19   O     O_R   0.895770 0.946320 0.046490 -0.530595
C48   C     C_R   0.062381 0.936093 0.065165 0.693559
V4    V     V_3+5 0.787210 0.993120 0.999190 1.396231
O20   O     O_3   0.063420 0.036580 0.003960 -0.358861
F1    F     F_    0.299785 0.355173 0.694702 -0.601713
F2    F     F_    0.954515 0.294662 0.650829 -0.595932
C49   C     C_3   0.383919 0.876169 0.222854 -0.381044
C50   C     C_3   0.312852 0.906316 0.281796 -0.687461
H12   H     H_    0.238493 0.949138 0.283452 0.223143
H13   H     H_    0.213640 0.876572 0.296137 0.236670
H14   H     H_    0.436889 0.916622 0.310798 0.225014
H15   H     H_    0.458888 0.833545 0.220829 0.217983
H16   H     H_    0.494656 0.905934 0.214498 0.183126
C51   C     C_3   0.693070 0.894887 0.109894 -0.319808
C52   C     C_3   0.670143 0.963073 0.140023 -0.662575
H17   H     H_    0.630080 0.971458 0.184031 0.184417
H18   H     H_    0.802913 0.989631 0.141386 0.208388
H19   H     H_    0.560189 0.982721 0.118608 0.200042
H20   H     H_    0.664843 0.884194 0.064653 0.192763
H21   H     H_    0.582085 0.868831 0.124072 0.151551
F3    F     F_    0.808277 0.624983 0.419926 -0.691236

loop_
_geom_bond_atom_site_label_1
_geom_bond_atom_site_label_2
_ccdc_geom_bond_type
C51   H21   S    
N6    C31   A    
C51   C52   S    
C1    C30   S    
C14   C15   A    
C17   C24   S    
C21   C22   A    
C50   H12   S    
C1    O6    A    
C2    C39   S    
V3    O20   S    
C50   H14   S    
C20   C21   A    
C36   H10   S    
C13   C14   A    
C19   H3    S    
C33   C38   A    
C6    C7    S    
O5    C3    A    
V2    O10   S    
C31   N7    A    
C52   H19   S    
C33   C34   A    
N3    N4    A    
C42   C43   S    
C34   C35   A    
N5    N6    A    
O8    V2    S    
C7    C8    T    
C36   C37   A    
C11   H1    S    
C39   C40   T    
O1    V2    S    
O7    V1    S    
O12   V3    S    
C12   C49   S    
O9    C4    A    
C4    C5    S    
O14   V3    S    
C52   H17   S    
O17   V4    S    
C16   C48   S    
C28   C29   A    
N7    N8    A    
N5    C32   A    
O12   C45   A    
O13   C48   A    
C25   C26   A    
C43   C44   T    
C37   H11   S    
C11   C16   A    
O17   V3    S    
O14   C46   A    
O18   V4    S    
O11   C46   A    
C20   H4    S    
O4    C2    A    
O18   C47   A    
N8    C32   A    
C29   H7    S    
C33   H8    S    
C29   C30   A    
N4    C18   A    
O2    C1    A    
C23   H5    S    
C15   C16   A    
N1    N2    A    
C49   H16   S    
C34   H9    S    
C5    C6    T    
C15   C51   S    
C10   C47   S    
O19   C48   A    
C52   H18   S    
C23   C24   A    
C35   C46   S    
O15   C47   A    
O3    C4    A    
O13   V3    S    
C13   C18   S    
C26   C27   A    
O19   V4    S    
C31   C38   S    
O6    V2    S    
O9    V2    S    
C22   C23   A    
C19   C24   A    
O2    V1    S    
C3    C21   S    
C51   H20   S    
O16   V4    S    
C25   H6    S    
O1    C2    A    
C41   C42   T    
O5    V1    S    
O8    C3    A    
C50   H13   S    
C28   F2    S    
C27   C32   S    
C35   C36   A    
C12   C13   A    
C40   C41   S    
C19   C20   A    
O3    V1    S    
V1    O10   S    
N2    C17   A    
C45   O16   A    
V4    O20   S    
C22   F3    S    
C49   H15   S    
C25   C30   A    
C17   N3    A    
C11   C12   A    
O7    V2    S    
C49   C50   S    
O4    V1    S    
C8    C9    S    
C27   C28   A    
C26   F1    S    
C14   H2    S    
N1    C18   A    
C37   C38   A    
C9    C10   T    
C44   C45   S    
O15   V3    S    
O11   V4    S    
