data_mof_unit_21561.cif
_audit_creation_date              2013-03-05T16:07:32-0500
_audit_creation_method            fapswitch 2.2
_symmetry_space_group_name_H-M    P1
_symmetry_Int_Tables_number       1
_space_group_crystal_system       triclinic
_cell_length_a                    10.910985
_cell_length_b                    10.814469
_cell_length_c                    9.564237
_cell_angle_alpha                 88.696495
_cell_angle_beta                  87.867764
_cell_angle_gamma                 92.74249
_cell_volume                      1126.13335129

loop_
_atom_site_label
_atom_site_type_symbol
_atom_site_description
_atom_site_fract_x
_atom_site_fract_y
_atom_site_fract_z
_atom_type_partial_charge
O1    O     O_R   0.499990 0.319660 0.618740 -0.577724
O2    O     O_R   0.500010 0.680340 0.381260 -0.577708
O3    O     O_R   0.499990 0.319630 0.381170 -0.576270
O4    O     O_R   0.500010 0.680370 0.618830 -0.576332
C1    C     C_R   0.500951 0.262659 0.500781 0.796534
C2    C     C_R   0.499040 0.737341 0.499219 0.796531
O5    O     O_R   0.319650 0.500020 0.618780 -0.576428
O6    O     O_R   0.680350 0.499980 0.381220 -0.576413
O7    O     O_R   0.319640 0.500000 0.381210 -0.585549
O8    O     O_R   0.680360 0.500000 0.618790 -0.585542
C3    C     C_R   0.262387 0.502299 0.502191 0.816751
C4    C     C_R   0.737613 0.497701 0.497809 0.816755
Cu1   Cu    Cu3+1 0.500000 0.500020 0.640660 0.976249
Cu2   Cu    Cu3+1 0.500000 0.499980 0.359340 0.976275
H1    H     H_    0.348063 0.841079 0.015843 0.184962
H2    H     H_    0.651934 0.158916 0.984150 0.184979
C5    C     C_R   0.254429 0.845073 0.219848 0.405488
C6    C     C_R   0.745572 0.154923 0.780147 0.405479
C7    C     C_R   0.176956 0.777168 0.319694 0.296810
C8    C     C_R   0.823048 0.222829 0.680304 0.296794
C9    C     C_R   0.142792 0.651252 0.292817 -0.020791
C10   C     C_R   0.857208 0.348746 0.707181 -0.020783
C11   C     C_R   0.176254 0.600712 0.163784 -0.057996
C12   C     C_R   0.823743 0.399285 0.836214 -0.058004
H3    H     H_    0.148085 0.506045 0.141201 0.201335
H4    H     H_    0.851911 0.493952 0.858797 0.201335
C13   C     C_R   0.248597 0.669951 0.064831 -0.140454
C14   C     C_R   0.751399 0.330045 0.935165 -0.140442
H5    H     H_    0.275110 0.629557 0.966452 0.195956
H6    H     H_    0.724885 0.370438 0.033544 0.195962
C15   C     C_R   0.289450 0.790189 0.093289 -0.192834
C16   C     C_R   0.710548 0.209807 0.906705 -0.192820
C17   C     C_R   0.943027 0.560268 0.389298 0.348661
C18   C     C_R   0.056973 0.439732 0.610702 0.348666
C19   C     C_R   0.871649 0.493985 0.494647 -0.203420
C20   C     C_R   0.128351 0.506014 0.505353 -0.203403
C21   C     C_R   0.929261 0.430445 0.603292 -0.044086
C22   C     C_R   0.070739 0.569553 0.396707 -0.044089
C23   C     C_R   0.586817 0.069644 0.413455 0.406919
C24   C     C_R   0.413158 0.930358 0.586539 0.406929
C25   C     C_R   0.586553 0.941375 0.414638 0.438651
C26   C     C_R   0.413425 0.058627 0.585356 0.438665
C27   C     C_R   0.498669 0.871177 0.499032 -0.407704
C28   C     C_R   0.501313 0.128823 0.500968 -0.407701
C29   C     C_R   0.439337 0.407861 0.080834 -0.085858
C30   C     C_R   0.560663 0.592139 0.919166 -0.085883
H7    H     H_    0.389533 0.334795 0.141464 0.197118
H8    H     H_    0.610467 0.665205 0.858536 0.197119
C31   C     C_R   0.437885 0.407584 0.933345 0.478001
C32   C     C_R   0.562115 0.592416 0.066655 0.478005
N1    N     N_R   0.500030 0.500030 0.852070 -0.266808
N2    N     N_R   0.499970 0.499970 0.147930 -0.266807
O9    O     O_3   0.371508 0.311992 0.876085 -0.651407
H9    H     H_    0.345323 0.341624 0.784912 0.399836
O10   O     O_3   0.628492 0.688008 0.123915 -0.651401
H10   H     H_    0.654677 0.658376 0.215088 0.399838
O11   O     O_3   0.296153 0.964102 0.248560 -0.687936
H11   H     H_    0.350695 0.997209 0.169799 0.338030
O12   O     O_3   0.703849 0.035894 0.751434 -0.687939
H12   H     H_    0.649305 0.002787 0.830193 0.338024
N3    N     N_R   0.130073 0.838169 0.442619 0.158546
O13   O     O_R   0.084992 0.775495 0.551907 -0.335607
O14   O     O_R   0.125181 0.958161 0.443115 -0.177201
N4    N     N_R   0.869936 0.161827 0.557382 0.158507
O15   O     O_R   0.915026 0.224500 0.448099 -0.335642
O16   O     O_R   0.874826 0.041836 0.556885 -0.177213
N5    N     N_R   0.887098 0.617318 0.272726 0.104666
O17   O     O_R   0.862878 0.550760 0.164694 -0.365206
O18   O     O_R   0.892611 0.737354 0.258391 -0.287626
N6    N     N_R   0.112901 0.382685 0.727277 0.104665
O19   O     O_R   0.137125 0.449247 0.835304 -0.365214
O20   O     O_R   0.107384 0.262650 0.741620 -0.287614
O21   O     O_3   0.675189 0.132818 0.328119 -0.616753
H13   H     H_    0.689220 0.218240 0.360487 0.342544
O22   O     O_3   0.324768 0.867191 0.671861 -0.616733
H14   H     H_    0.310817 0.781728 0.639593 0.342544
O23   O     O_3   0.678463 0.888173 0.337272 -0.570894
H15   H     H_    0.699648 0.810910 0.386125 0.341498
O24   O     O_3   0.321514 0.111832 0.662717 -0.570879
H16   H     H_    0.300339 0.189101 0.613869 0.341489

loop_
_geom_bond_atom_site_label_1
_geom_bond_atom_site_label_2
_geom_bond_distance
_ccdc_geom_bond_type
O5    Cu1   1.986619 S    
O10   H10   0.979428 S    
C13   H5    1.081842 S    
C18   C21   1.396833 A    
O21   H13   0.987754 S    
O7    Cu2   1.971248 S    
C23   C25   1.386811 A    
O9    H9    0.979429 S    
O5    C3    1.298638 A    
O1    C1    1.297799 A    
C3    C20   1.464149 S    
C7    C9    1.426105 A    
C12   H4    1.083561 S    
C25   O23   1.379700 S    
O4    Cu1   1.956798 S    
N3    O14   1.301402 A    
C5    C7    1.419289 A    
Cu1   N1    2.021990 S    
C24   C27   1.415624 A    
Cu2   N2    2.021990 S    
C9    C22   1.490452 S    
C31   N1    1.387113 A    
C32   N2    1.387113 A    
N6    O19   1.300565 A    
C11   C13   1.391052 A    
C18   N6    1.432291 S    
C6    C8    1.419291 A    
C24   C26   1.386816 A    
O12   H12   0.991848 S    
Cu1   Cu2   2.690622 S    
C25   C27   1.411444 A    
O2    C2    1.297802 A    
C26   C28   1.411434 A    
C29   H7    1.081910 S    
C30   H8    1.081911 S    
C13   C15   1.390410 A    
N5    O17   1.300564 A    
C12   C14   1.391051 A    
C14   C16   1.390410 A    
O4    C2    1.287582 A    
C29   N2    1.356222 A    
O23   H15   0.989276 S    
C10   C21   1.490451 S    
C30   N1    1.356222 A    
N5    O18   1.300528 A    
N4    O16   1.301393 A    
C8    N4    1.449799 S    
O22   H14   0.987745 S    
C29   C31   1.411363 A    
O6    C4    1.298639 A    
C4    C19   1.464150 S    
O7    C3    1.295650 A    
O3    Cu2   1.956798 S    
O8    C4    1.295649 A    
C1    C28   1.447525 S    
C8    C10   1.426106 A    
C2    C27   1.447532 S    
C9    C11   1.404030 A    
C5    C15   1.408345 A    
C10   C12   1.404030 A    
O1    Cu1   1.966464 S    
C17   N5    1.432290 S    
O6    Cu2   1.986618 S    
C19   C21   1.415804 A    
C32   O10   1.369948 S    
O3    C1    1.287581 A    
O8    Cu1   1.971247 S    
H1    C15   1.083077 S    
C23   C28   1.415598 A    
H2    C16   1.083076 S    
C30   C32   1.411363 A    
C17   C22   1.396832 A    
C24   O22   1.384089 S    
N4    O15   1.300565 A    
C20   C22   1.415805 A    
O11   H11   0.991848 S    
C7    N3    1.449797 S    
C31   O9    1.369948 S    
C14   H6    1.081843 S    
C17   C19   1.410990 A    
C18   C20   1.410991 A    
C23   O21   1.384076 S    
N3    O13   1.300574 A    
O2    Cu2   1.966464 S    
O24   H16   0.989276 S    
C6    O12   1.381654 S    
C26   O24   1.379701 S    
C11   H3    1.083562 S    
C6    C16   1.408345 A    
N6    O20   1.300528 A    
C5    O11   1.381654 S    
