data_mof_unit_49280.cif
_audit_creation_date              2012-12-11T15:57:48-0500
_audit_creation_method            fapswitch 2.2
_symmetry_space_group_name_H-M    P1
_symmetry_Int_Tables_number       1
_space_group_crystal_system       triclinic
_cell_length_a                    10.787644
_cell_length_b                    10.722833
_cell_length_c                    16.962359
_cell_angle_alpha                 99.162085
_cell_angle_beta                  100.359727
_cell_angle_gamma                 61.18968
_cell_volume                      1685.20490825

loop_
_atom_site_label
_atom_site_type_symbol
_atom_type_description
_atom_site_fract_x
_atom_site_fract_y
_atom_site_fract_z
_atom_type_partial_charge
Br1   Br    Br    0.514052 0.482565 0.747725 -0.541664
Br2   Br    Br    0.685777 0.522795 0.188165 -0.439970
Br3   Br    Br    0.592881 0.870325 0.370698 -0.407450
Br4   Br    Br    0.250650 0.155416 0.721726 -0.612713
C1    C     C_R   0.352143 0.780226 0.403854 0.584343
C2    C     C_2   0.318999 0.352696 0.827581 0.267111
C3    C     C_2   0.344580 0.270697 0.758877 0.073762
C4    C     C_R   0.365700 0.343509 0.358407 0.569999
C5    C     C_2   0.451974 0.259414 0.713351 0.319432
C6    C     C_1   0.851514 0.326166 0.704323 0.032187
C7    C     C_1   0.898320 0.291905 0.771493 0.014473
C8    C     C_1   0.337889 0.813834 0.708603 0.042480
C9    C     C_1   0.310802 0.840964 0.776539 0.036783
C10   C     C_R   0.893381 0.307970 0.086100 0.576791
C11   C     C_R   0.291878 0.260326 0.121893 0.537765
C12   C     C_2   0.824284 0.330916 0.156600 0.167173
C13   C     C_R   0.263602 0.946746 0.095268 0.538925
C14   C     C_R   0.945712 0.272695 0.854473 0.587359
C15   C     C_R   0.304105 0.295223 0.893935 0.609153
C16   C     C_R   0.777096 0.376560 0.405563 0.569949
C17   C     C_R   0.277388 0.885979 0.856403 0.606285
C18   C     C_R   0.357810 0.771691 0.626640 0.585762
C19   C     C_R   0.418913 0.380572 0.596627 0.598160
C20   C     C_R   0.780359 0.377174 0.628148 0.570613
C21   C     C_1   0.324208 0.317852 0.276546 -0.023825
C22   C     C_1   0.305844 0.292045 0.205843 -0.039982
C23   C     C_2   0.867939 0.218280 0.199387 -0.152019
C24   C     C_2   0.852983 0.327307 0.335560 -0.077932
C25   C     C_3   0.616606 0.025846 0.741749 0.015260
C26   C     C_3   0.716183 0.061645 0.806876 -0.266875
C27   C     C_3   0.778916 0.957158 0.872155 -0.447775
C28   C     C_3   0.146976 0.584058 0.810263 0.012067
C29   C     C_3   0.118328 0.604392 0.720066 -0.268221
C30   C     C_3   0.966249 0.715433 0.695829 -0.460402
C31   C     C_2   0.831034 0.234584 0.279690 -0.137182
C32   C     C_2   0.315991 0.875067 0.341733 -0.082086
C33   C     C_2   0.304992 0.895626 0.174183 -0.108183
C34   C     C_2   0.381672 0.940115 0.231196 -0.130799
C35   C     C_2   0.411761 0.897761 0.313147 0.161444
C36   C     C_2   0.424608 0.378698 0.682752 0.112925
Cr1   Cr    Cr6+3 0.608020 0.610770 0.522990 1.094664
Cr2   Cr    Cr6+3 0.289390 0.599570 0.488050 1.051721
Cr3   Cr    Cr6+3 0.602610 0.289690 0.489020 1.093965
Cr4   Cr    Cr6+3 0.053780 0.052210 0.965970 0.988353
Cr5   Cr    Cr6+3 0.060060 0.372530 0.992430 1.054027
Cr6   Cr    Cr6+3 0.372600 0.061970 0.991430 1.048187
H1    H     H_    0.939820 0.110588 0.177077 0.126812
H2    H     H_    0.657138 0.171164 0.835825 0.202633
H3    H     H_    0.692699 0.965959 0.903486 0.168961
H4    H     H_    0.853897 0.982303 0.917086 0.187911
H5    H     H_    0.837414 0.845676 0.845908 0.122261
H6    H     H_    0.118036 0.689345 0.844542 0.187717
H7    H     H_    0.074258 0.547106 0.825339 0.141291
H8    H     H_    0.191495 0.639633 0.704599 0.208250
H9    H     H_    0.135715 0.502113 0.684696 0.184709
H10   H     H_    0.889649 0.686351 0.713307 0.156535
H11   H     H_    0.947917 0.720761 0.629625 0.179051
H12   H     H_    0.779666 0.174611 0.291137 0.177077
H13   H     H_    0.948971 0.821755 0.724954 0.151296
H14   H     H_    0.907315 0.383804 0.323059 0.148379
H15   H     H_    0.428649 0.001816 0.216615 0.160335
H16   H     H_    0.264341 0.826743 0.186874 0.131572
H17   H     H_    0.208952 0.911634 0.310147 0.067377
H18   H     H_    0.680480 0.920131 0.710567 0.158653
H19   H     H_    0.538745 0.012302 0.769461 0.180418
H20   H     H_    0.803306 0.057598 0.778582 0.185446
O1    O     O_R   0.749250 0.499990 0.439200 -0.469954
O2    O     O_R   0.411120 0.181190 0.091480 -0.493822
O3    O     O_R   0.364220 0.944920 0.062310 -0.472049
O4    O     O_R   0.477870 0.725740 0.440280 -0.435992
O5    O     O_R   0.158740 0.906940 0.874970 -0.533682
O6    O     O_R   0.930920 0.176940 0.885610 -0.507116
O7    O     O_R   0.910730 0.394510 0.895320 -0.487838
O8    O     O_R   0.185840 0.361180 0.920280 -0.516755
O9    O     O_R   0.399210 0.173040 0.915160 -0.523524
O10   O     O_R   0.353170 0.937370 0.898860 -0.477469
O11   O     O_3   0.162150 0.162240 0.983280 -0.324321
O12   O     O_R   0.299400 0.468710 0.556310 -0.517734
O13   O     O_R   0.260770 0.742210 0.412610 -0.510011
O14   O     O_R   0.297990 0.466320 0.394220 -0.486354
O15   O     O_R   0.487720 0.253870 0.385870 -0.481622
O16   O     O_R   0.721940 0.304340 0.422320 -0.504925
O17   O     O_R   0.750770 0.502570 0.614050 -0.507941
O18   O     O_R   0.479280 0.728140 0.602370 -0.478081
O19   O     O_R   0.262290 0.744790 0.587460 -0.530134
O20   O     O_3   0.551187 0.126069 0.682662 -0.518329
O21   O     O_3   0.293716 0.493369 0.833993 -0.549616
O22   O     O_R   0.489240 0.256450 0.560730 -0.430612
O23   O     O_R   0.723350 0.306730 0.584410 -0.504174
O24   O     O_3   0.500010 0.500010 0.500020 -0.303182
O25   O     O_R   0.170650 0.915100 0.051290 -0.500138
O26   O     O_R   0.941960 0.184500 0.049060 -0.536853
O27   O     O_R   0.922640 0.402670 0.071640 -0.472841
O28   O     O_R   0.196880 0.368740 0.083740 -0.475660

loop_
_geom_bond_atom_site_label_1
_geom_bond_atom_site_label_2
_ccdc_geom_bond_type
C29   H9    S    
C7    C14   S    
Cr2   O14   S    
C16   O16   A    
C16   O1    A    
C13   O25   A    
Cr5   O27   S    
C20   O23   A    
C11   O28   A    
Cr6   O10   S    
C33   H16   S    
Cr1   O1    S    
C30   H10   S    
C2    C15   S    
C17   O10   A    
Cr3   O23   S    
C17   O5    A    
C31   H12   S    
Cr3   O22   S    
C26   H2    S    
Cr4   O11   S    
C20   O17   A    
C26   C27   S    
C19   C36   S    
Cr1   O17   S    
C1    C32   S    
C8    C18   S    
Cr4   O5    S    
Cr5   O7    S    
C18   O19   A    
C28   H6    S    
Cr6   O3    S    
Br1   C36   S    
C24   C31   D    
C30   H11   S    
C1    O13   A    
C32   H17   S    
Br2   C12   S    
C10   O27   A    
Cr4   O26   S    
C34   H15   S    
C12   C23   D    
Cr1   O24   S    
C25   H18   S    
Br3   C35   S    
Cr2   O13   S    
C4    C21   S    
C27   H3    S    
Br4   C3    S    
Cr5   O28   S    
Cr6   O9    S    
C24   H14   S    
C14   O6    A    
Cr3   O24   S    
C4    O15   A    
C11   C22   S    
C16   C24   S    
C23   C31   S    
C21   C22   T    
C28   O21   S    
C5    C36   D    
C2    O21   S    
Cr5   O8    S    
Cr2   O24   S    
C18   O18   A    
Cr6   O2    S    
C33   C34   D    
C5    O20   S    
C29   C30   S    
C9    C17   S    
Cr2   O19   S    
C13   C33   S    
C10   O26   A    
C25   O20   S    
C26   H20   S    
Cr4   O25   S    
C25   H19   S    
Cr2   O12   S    
C14   O7    A    
C19   O22   A    
C30   H13   S    
Cr3   O15   S    
C10   C12   S    
C27   H4    S    
C28   H7    S    
C23   H1    S    
C29   H8    S    
C3    C5    S    
C13   O3    A    
C32   C35   D    
C27   H5    S    
C1    O4    A    
Cr6   O11   S    
C2    C3    D    
C6    C20   S    
C28   C29   S    
C15   O9    A    
Cr1   O18   S    
C34   C35   S    
C11   O2    A    
Cr4   O6    S    
C15   O8    A    
C19   O12   A    
C6    C7    T    
C25   C26   S    
C8    C9    T    
C4    O14   A    
Cr3   O16   S    
Cr5   O11   S    
Cr1   O4    S    
