data_mof_unit_62591.cif
_audit_creation_date              2012-12-10T18:16:39-0500
_audit_creation_method            fapswitch 2.2
_symmetry_space_group_name_H-M    P1
_symmetry_Int_Tables_number       1
_space_group_crystal_system       triclinic
_cell_length_a                    38.801753
_cell_length_b                    32.274046
_cell_length_c                    21.449862
_cell_angle_alpha                 90.001652
_cell_angle_beta                  123.743902
_cell_angle_gamma                 90.004242
_cell_volume                      22336.0577008

loop_
_atom_site_label
_atom_site_type_symbol
_atom_type_description
_atom_site_fract_x
_atom_site_fract_y
_atom_site_fract_z
_atom_type_partial_charge
C1    C     C_R   0.920473 0.999979 0.420568 0.831250
C2    C     C_R   0.079526 0.999998 0.579537 0.829972
C3    C     C_R   0.420474 0.499988 0.420511 0.830453
C4    C     C_R   0.579526 0.499992 0.579491 0.830433
C5    C     C_3   0.000119 0.000354 0.688652 -0.200180
C6    C     C_3   0.999866 0.000383 0.311304 -0.200045
C7    C     C_3   0.500221 0.500317 0.688754 -0.200342
C8    C     C_3   0.499780 0.500315 0.311247 -0.200375
C9    C     C_R   0.727596 0.969799 0.195303 0.403544
C10   C     C_R   0.272402 0.974320 0.812861 0.403230
C11   C     C_R   0.227598 0.471417 0.192018 0.403088
C12   C     C_R   0.772394 0.471521 0.808144 0.403137
C13   C     C_R   0.706265 0.000536 0.207675 -0.088636
C14   C     C_R   0.293742 0.000826 0.793182 -0.088743
C15   C     C_R   0.206262 0.500684 0.207217 -0.088560
C16   C     C_R   0.793738 0.500701 0.792802 -0.088564
C17   C     C_R   0.728671 0.030724 0.263699 -0.179435
C18   C     C_R   0.271348 0.027201 0.730553 -0.179771
C19   C     C_R   0.228663 0.529611 0.265664 -0.179359
C20   C     C_R   0.771345 0.529553 0.734226 -0.179397
C21   C     C_R   0.772331 0.029551 0.308470 0.409998
C22   C     C_R   0.227679 0.026078 0.686233 0.409513
C23   C     C_R   0.272328 0.528486 0.310217 0.409570
C24   C     C_R   0.727679 0.528431 0.689682 0.409575
C25   C     C_R   0.793637 0.999058 0.295516 -0.093119
C26   C     C_R   0.206365 0.999582 0.705993 -0.091203
C27   C     C_R   0.293638 0.499339 0.294722 -0.092155
C28   C     C_R   0.706362 0.499365 0.705308 -0.092117
C29   C     C_R   0.771235 0.968593 0.240162 -0.177992
C30   C     C_R   0.228754 0.973189 0.768542 -0.178619
C31   C     C_R   0.271242 0.470271 0.236608 -0.178097
C32   C     C_R   0.728750 0.470377 0.763563 -0.178145
C33   C     C_1   0.661324 0.000571 0.162412 0.042787
C34   C     C_1   0.338681 0.000634 0.838009 0.042259
C35   C     C_1   0.161322 0.500608 0.162195 0.042591
C36   C     C_1   0.838678 0.500618 0.837814 0.042606
C37   C     C_1   0.838554 0.999423 0.339607 0.045206
C38   C     C_1   0.161447 0.999773 0.661411 0.045350
C39   C     C_1   0.338555 0.499612 0.339063 0.045088
C40   C     C_1   0.661445 0.499634 0.660956 0.045070
C41   C     C_1   0.875955 0.999793 0.376497 -0.126781
C42   C     C_1   0.124043 0.999928 0.624062 -0.127668
C43   C     C_1   0.375957 0.499863 0.376196 -0.127041
C44   C     C_1   0.624043 0.499878 0.623814 -0.127076
C45   C     C_R   0.000130 0.000057 0.620581 0.912317
C46   C     C_R   0.999895 0.000061 0.379435 0.912396
C47   C     C_R   0.500145 0.500051 0.620596 0.912019
C48   C     C_R   0.499856 0.500050 0.379404 0.912018
C49   C     C_1   0.623905 0.000375 0.124416 -0.152544
C50   C     C_1   0.376099 0.000364 0.875714 -0.152777
C51   C     C_1   0.123903 0.500374 0.124352 -0.152541
C52   C     C_1   0.876097 0.500379 0.875651 -0.152505
C53   C     C_R   0.999998 0.920545 0.999995 0.862004
C54   C     C_R   0.499998 0.420546 0.999998 0.861047
C55   C     C_R   0.999961 0.000634 0.879485 0.892070
C56   C     C_R   0.000048 0.000700 0.120515 0.892674
C57   C     C_R   0.499966 0.500635 0.879492 0.892057
C58   C     C_R   0.500034 0.500635 0.120508 0.892064
C59   C     C_R   0.000007 0.079593 0.999976 0.807004
C60   C     C_R   0.500002 0.579594 0.000001 0.807647
C61   C     C_R   0.500006 0.920694 0.000004 0.805712
C62   C     C_R   0.000007 0.420693 0.000002 0.805552
C63   C     C_R   0.579357 0.000100 0.079426 0.811688
C64   C     C_R   0.420644 0.000075 0.920589 0.811493
C65   C     C_R   0.079356 0.500089 0.079419 0.811903
C66   C     C_R   0.920644 0.500089 0.920581 0.811943
C67   C     C_R   0.500001 0.079393 0.000002 0.819029
C68   C     C_R   0.000001 0.579391 0.000000 0.819873
C69   C     C_R   0.478228 0.228181 0.024717 -0.066888
C70   C     C_R   0.521770 0.228186 0.975288 -0.067054
C71   C     C_R   0.973797 0.728167 0.014756 -0.066883
C72   C     C_R   0.026153 0.728174 0.985089 -0.067633
C73   C     C_R   0.500000 0.206300 0.000005 0.023312
C74   C     C_R   0.999980 0.706289 0.999934 0.023385
C75   C     C_R   0.026163 0.771896 0.985109 -0.062854
C76   C     C_R   0.973778 0.771888 0.014719 -0.064057
C77   C     C_R   0.521784 0.271907 0.975311 -0.063496
C78   C     C_R   0.478207 0.271903 0.024684 -0.063455
C79   C     C_3   0.962820 0.987939 0.692381 0.290461
C80   C     C_3   0.036227 0.985606 0.306554 0.291533
C81   C     C_3   0.462811 0.488401 0.692393 0.293139
C82   C     C_3   0.537166 0.488339 0.307582 0.293133
C83   C     C_R   0.999972 0.793752 0.999920 0.021784
C84   C     C_R   0.499994 0.293762 0.999995 0.022515
C85   C     C_1   0.500001 0.161286 0.000005 -0.016167
C86   C     C_1   0.999992 0.661278 0.999966 -0.016119
C87   C     C_1   0.999982 0.838727 0.999949 -0.023896
C88   C     C_1   0.499993 0.338734 0.999994 -0.024801
C89   C     C_1   0.999991 0.876093 0.999973 -0.125981
C90   C     C_1   0.499994 0.376098 0.999995 -0.127566
C91   C     C_1   0.500001 0.123893 0.000004 -0.136338
C92   C     C_1   0.999998 0.623887 0.999990 -0.136407
C93   C     C_R   0.486598 0.772130 0.933367 0.348652
C94   C     C_R   0.513507 0.772134 0.066678 0.349000
C95   C     C_R   0.985012 0.272134 0.932666 0.348764
C96   C     C_R   0.015559 0.272122 0.067386 0.348765
C97   C     C_R   0.500049 0.793892 0.000021 -0.094983
C98   C     C_R   0.000218 0.293889 0.000014 -0.095036
C99   C     C_R   0.014557 0.228470 0.067012 -0.120729
C100  C     C_R   0.986122 0.228483 0.933044 -0.122305
C101  C     C_R   0.512428 0.728482 0.066195 -0.121531
C102  C     C_R   0.487665 0.728478 0.933843 -0.121508
C103  C     C_R   0.000286 0.206506 0.999998 -0.080713
C104  C     C_R   0.500038 0.706509 0.000015 -0.080806
C105  C     C_1   0.500036 0.838743 0.000018 0.071974
C106  C     C_1   0.000124 0.338741 0.000013 0.071923
C107  C     C_3   0.992575 0.962394 0.763073 0.328596
C108  C     C_3   0.004828 0.962037 0.234243 0.324226
C109  C     C_3   0.492223 0.462459 0.762736 0.325665
C110  C     C_3   0.507706 0.462446 0.237188 0.325648
C111  C     C_1   0.000158 0.161505 0.999937 0.013648
C112  C     C_1   0.500022 0.661507 0.000007 0.013825
C113  C     C_1   0.000054 0.124105 0.999922 -0.150210
C114  C     C_1   0.500010 0.624106 0.000002 -0.150040
C115  C     C_1   0.500022 0.876153 0.000014 -0.154706
C116  C     C_1   0.000060 0.376151 0.000022 -0.154817
C117  C     C_3   0.999929 0.001323 0.811371 -0.281161
C118  C     C_3   0.000126 0.001407 0.188658 -0.280505
C119  C     C_3   0.499959 0.501317 0.811411 -0.281028
C120  C     C_3   0.500043 0.501317 0.188591 -0.281031
C121  C     C_3   0.969924 0.026937 0.739835 -0.206793
C122  C     C_3   0.031743 0.024953 0.261838 -0.205791
C123  C     C_3   0.470297 0.527254 0.740194 -0.206294
C124  C     C_3   0.529753 0.527205 0.259859 -0.206310
C125  C     C_3   0.007325 0.039132 0.736575 0.374646
C126  C     C_3   0.995260 0.039570 0.266042 0.373634
C127  C     C_3   0.507825 0.539015 0.737057 0.373954
C128  C     C_3   0.492247 0.539027 0.263019 0.373987
C129  C     C_3   0.037362 0.014013 0.807800 -0.201057
C130  C     C_3   0.963607 0.016542 0.193157 -0.199383
C131  C     C_3   0.537580 0.513571 0.808030 -0.200508
C132  C     C_3   0.462444 0.513632 0.191995 -0.200491
C133  C     C_3   0.029899 0.975219 0.760208 0.288888
C134  C     C_3   0.968437 0.977255 0.238088 0.289977
C135  C     C_3   0.529714 0.474778 0.760026 0.287784
C136  C     C_3   0.470239 0.474825 0.239925 0.287796
Cu1   Cu    Cu3+1 0.000000 0.041030 0.500000 1.044923
Cu2   Cu    Cu3+1 0.500000 0.541030 0.500000 1.044682
Cu3   Cu    Cu3+1 1.000000 0.958990 0.500000 1.015903
Cu4   Cu    Cu3+1 0.500000 0.458990 0.500000 1.016892
Cu5   Cu    Cu3+1 0.041030 0.000050 0.040990 0.992555
Cu6   Cu    Cu3+1 0.958970 0.000050 0.959010 0.993206
Cu7   Cu    Cu3+1 0.541030 0.500050 0.040990 0.991999
Cu8   Cu    Cu3+1 0.458970 0.500050 0.959010 0.991875
Cu9   Cu    Cu3+1 0.500010 0.000050 0.062750 0.986148
Cu10  Cu    Cu3+1 0.499990 0.000050 0.937250 0.986784
Cu11  Cu    Cu3+1 0.000010 0.500050 0.062750 0.985792
Cu12  Cu    Cu3+1 0.999990 0.500050 0.937250 0.985803
O1    O     O_R   0.940150 0.034650 0.440170 -0.579904
O2    O     O_R   0.059850 0.034650 0.559830 -0.578533
O3    O     O_R   0.440150 0.534650 0.440170 -0.578905
O4    O     O_R   0.559850 0.534650 0.559830 -0.578894
O5    O     O_R   0.559860 0.000050 0.112810 -0.575476
O6    O     O_R   0.440140 0.000050 0.887190 -0.575316
O7    O     O_R   0.059860 0.500050 0.112810 -0.575536
O8    O     O_R   0.940140 0.500050 0.887190 -0.575516
O9    O     O_R   0.559850 0.999980 0.006800 -0.578315
O10   O     O_R   0.440150 0.999980 0.993200 -0.578188
O11   O     O_R   0.059850 0.499980 0.006800 -0.578339
O12   O     O_R   0.940150 0.499980 0.993200 -0.578320
O13   O     O_R   0.500000 0.059900 0.052920 -0.573515
O14   O     O_R   0.500000 0.059900 0.947080 -0.572989
O15   O     O_R   1.000000 0.559900 0.052920 -0.573743
O16   O     O_R   0.000000 0.559900 0.947080 -0.573710
O17   O     O_R   0.940170 0.965370 0.440140 -0.577893
O18   O     O_R   0.059830 0.965370 0.559860 -0.578443
O19   O     O_R   0.440170 0.465370 0.440140 -0.578446
O20   O     O_R   0.559830 0.465370 0.559860 -0.578435
O21   O     O_R   0.000010 0.034650 0.591580 -0.556791
O22   O     O_R   0.999990 0.034650 0.408420 -0.555463
O23   O     O_R   0.500010 0.534650 0.591580 -0.556477
O24   O     O_R   0.499990 0.534650 0.408420 -0.556434
O25   O     O_R   0.000020 0.965370 0.591550 -0.576060
O26   O     O_R   0.999980 0.965370 0.408450 -0.576503
O27   O     O_R   0.500020 0.465370 0.591550 -0.575790
O28   O     O_R   0.499980 0.465370 0.408450 -0.575823
O29   O     O_R   0.034640 0.940200 0.034570 -0.581039
O30   O     O_R   0.965360 0.940200 0.965430 -0.579634
O31   O     O_R   0.534640 0.440200 0.034570 -0.580387
O32   O     O_R   0.465360 0.440200 0.965430 -0.580416
O33   O     O_R   0.034640 0.000050 0.943030 -0.592732
O34   O     O_R   0.965360 0.000050 0.056970 -0.591703
O35   O     O_R   0.534640 0.500050 0.943030 -0.592856
O36   O     O_R   0.465360 0.500050 0.056970 -0.592854
O37   O     O_R   0.965370 0.000070 0.873780 -0.581528
O38   O     O_R   0.034630 0.000070 0.126220 -0.582862
O39   O     O_R   0.465370 0.500070 0.873780 -0.581340
O40   O     O_R   0.534630 0.500070 0.126220 -0.581352
O41   O     O_R   0.034650 0.059910 0.034650 -0.578245
O42   O     O_R   0.965350 0.059910 0.965350 -0.577346
O43   O     O_R   0.534650 0.559910 0.034650 -0.578099
O44   O     O_R   0.465350 0.559910 0.965350 -0.578096
O45   O     O_R   0.500030 0.940190 0.053050 -0.575176
O46   O     O_R   0.499970 0.940190 0.946950 -0.575811
O47   O     O_R   0.000030 0.440190 0.053050 -0.575391
O48   O     O_R   0.999970 0.440190 0.946950 -0.575436
O49   O     O_3   0.985467 0.923427 0.783820 -0.595960
C137  C     C_3   0.978674 0.893243 0.730591 0.082953
H1    H     H_    0.003613 0.893204 0.719913 0.187473
H2    H     H_    0.948441 0.898399 0.676843 0.183362
C138  C     C_3   0.977807 0.850704 0.760126 -0.792333
H3    H     H_    0.952760 0.849344 0.770428 0.255957
H4    H     H_    0.972061 0.826571 0.718482 0.207975
H5    H     H_    0.008004 0.844385 0.813397 0.264099
O50   O     O_3   0.010043 0.922787 0.211528 -0.598566
C139  C     C_3   0.012801 0.891936 0.260653 0.081008
H6    H     H_    0.982711 0.888185 0.254828 0.186173
H7    H     H_    0.037241 0.899091 0.320091 0.185407
C140  C     C_3   0.023729 0.850922 0.240902 -0.788087
H8    H     H_    0.054207 0.853442 0.247742 0.250431
H9    H     H_    0.025487 0.826135 0.278471 0.208202
H10   H     H_    0.999690 0.842526 0.181927 0.265608
O51   O     O_3   0.483673 0.423750 0.781936 -0.596863
C141  C     C_3   0.479106 0.393143 0.730936 0.088982
H11   H     H_    0.509599 0.385457 0.740682 0.184425
H12   H     H_    0.457561 0.402952 0.671624 0.184490
C142  C     C_3   0.461571 0.354114 0.742966 -0.785864
H13   H     H_    0.430520 0.360658 0.731843 0.248553
H14   H     H_    0.458548 0.329398 0.704202 0.207985
H15   H     H_    0.482484 0.343115 0.801610 0.265447
O52   O     O_3   0.516190 0.423722 0.217925 -0.596926
C143  C     C_3   0.520681 0.393105 0.268846 0.089147
H16   H     H_    0.490145 0.385385 0.258887 0.184356
H17   H     H_    0.542132 0.402917 0.328190 0.184440
C144  C     C_3   0.538314 0.354105 0.256971 -0.785739
H18   H     H_    0.569410 0.360684 0.268317 0.248485
H19   H     H_    0.541267 0.329375 0.295652 0.207936
H20   H     H_    0.517502 0.343103 0.198299 0.265500
O53   O     O_3   0.794382 0.059610 0.362632 -0.557417
C145  C     C_3   0.802670 0.044878 0.431726 0.056472
H21   H     H_    0.817634 0.013781 0.445886 0.136816
H22   H     H_    0.773515 0.043047 0.430054 0.146940
C146  C     C_3   0.832179 0.074590 0.493917 -0.703482
H23   H     H_    0.818190 0.105986 0.482332 0.253480
H24   H     H_    0.838536 0.063501 0.548372 0.199490
H25   H     H_    0.861903 0.076295 0.497770 0.254341
O54   O     O_3   0.205646 0.052771 0.625926 -0.557750
C147  C     C_3   0.197762 0.032595 0.560786 0.053217
H26   H     H_    0.181392 0.002586 0.551553 0.139430
H27   H     H_    0.227214 0.026850 0.564734 0.144930
C148  C     C_3   0.170249 0.060034 0.493026 -0.694524
H28   H     H_    0.185325 0.090569 0.500702 0.254583
H29   H     H_    0.165061 0.045126 0.441842 0.196787
H30   H     H_    0.139833 0.064753 0.485675 0.254128
O55   O     O_3   0.294363 0.557522 0.366451 -0.557453
C149  C     C_3   0.302563 0.540984 0.434405 0.055249
H31   H     H_    0.318442 0.510409 0.447280 0.139047
H32   H     H_    0.273278 0.537363 0.431899 0.145305
C150  C     C_3   0.330894 0.570416 0.498235 -0.699436
H33   H     H_    0.316125 0.601384 0.487385 0.253508
H34   H     H_    0.336805 0.558161 0.551711 0.197214
H35   H     H_    0.360931 0.573540 0.503541 0.254635
O56   O     O_3   0.705652 0.557401 0.633329 -0.557462
C151  C     C_3   0.697456 0.540750 0.565446 0.055159
H36   H     H_    0.681539 0.510196 0.552663 0.139085
H37   H     H_    0.726745 0.537046 0.567995 0.145312
C152  C     C_3   0.669173 0.570138 0.501510 -0.699109
H38   H     H_    0.683974 0.601089 0.512288 0.253603
H39   H     H_    0.663280 0.557804 0.448092 0.197189
H40   H     H_    0.639124 0.573329 0.496137 0.254594
C153  C     C_1   0.946769 0.794386 0.029793 0.253095
N1    N     N_1   0.925227 0.812346 0.041779 -0.280788
C154  C     C_1   0.053180 0.794404 0.970060 0.258045
N2    N     N_1   0.074740 0.812368 0.958118 -0.287345
C155  C     C_1   0.455722 0.294411 0.049933 0.253016
N3    N     N_1   0.437787 0.312382 0.070028 -0.285074
C156  C     C_1   0.544265 0.294420 0.950053 0.253264
N4    N     N_1   0.562195 0.312395 0.929951 -0.284889
C157  C     C_1   0.455838 0.205700 0.050153 0.267727
N5    N     N_1   0.437984 0.187756 0.070436 -0.263026
C158  C     C_1   0.544164 0.205709 0.949858 0.268623
N6    N     N_1   0.562021 0.187768 0.929581 -0.261454
C159  C     C_1   0.946868 0.705683 0.030017 0.268159
N7    N     N_1   0.925395 0.687736 0.042186 -0.262255
C160  C     C_1   0.053086 0.705697 0.969834 0.267970
N8    N     N_1   0.074562 0.687756 0.957670 -0.262381
C161  C     C_1   0.972518 0.206571 0.864146 0.316696
N9    N     N_1   0.961639 0.189045 0.809079 -0.298174
C162  C     C_1   0.028578 0.206543 0.136066 0.315966
N10   N     N_1   0.039843 0.189010 0.191289 -0.303697
C163  C     C_1   0.475769 0.706560 0.865787 0.317374
N11   N     N_1   0.466226 0.689037 0.811370 -0.302238
C164  C     C_1   0.524333 0.706569 0.134256 0.317595
N12   N     N_1   0.533883 0.689050 0.188678 -0.302189
O57   O     O_3   0.474841 0.793660 0.868614 -0.560215
C165  C     C_3   0.431753 0.801089 0.828273 0.075548
H41   H     H_    0.423428 0.819069 0.862464 0.142000
H42   H     H_    0.414131 0.771405 0.810315 0.147589
C166  C     C_3   0.418720 0.826226 0.758525 -0.738859
H43   H     H_    0.426043 0.808903 0.722517 0.254866
H44   H     H_    0.384847 0.832212 0.726205 0.198320
H45   H     H_    0.435385 0.856344 0.774739 0.251324
O58   O     O_3   0.525290 0.793667 0.131444 -0.560056
C167  C     C_3   0.568376 0.801110 0.171729 0.075494
H46   H     H_    0.576679 0.819084 0.137499 0.142283
H47   H     H_    0.586000 0.771430 0.189678 0.147699
C168  C     C_3   0.581438 0.826261 0.241481 -0.737169
H48   H     H_    0.574140 0.808945 0.277530 0.254604
H49   H     H_    0.615310 0.832257 0.273755 0.199205
H50   H     H_    0.564770 0.856374 0.225275 0.251268
O59   O     O_3   0.971437 0.293678 0.867095 -0.560309
C169  C     C_3   0.928488 0.301005 0.830195 0.075694
H51   H     H_    0.921561 0.318886 0.866449 0.142217
H52   H     H_    0.910948 0.271279 0.813526 0.147756
C170  C     C_3   0.913515 0.326219 0.759673 -0.738286
H53   H     H_    0.919409 0.308996 0.721650 0.254671
H54   H     H_    0.879730 0.332124 0.730041 0.199163
H55   H     H_    0.930076 0.356376 0.774652 0.251098
O60   O     O_3   0.029174 0.293643 0.133002 -0.560234
C171  C     C_3   0.072072 0.301192 0.169624 0.075564
H56   H     H_    0.078801 0.319194 0.133216 0.142153
H57   H     H_    0.089749 0.271555 0.186181 0.147804
C172  C     C_3   0.087078 0.326365 0.240206 -0.737992
H58   H     H_    0.081382 0.309023 0.278382 0.254662
H59   H     H_    0.120823 0.332443 0.269622 0.199234
H60   H     H_    0.070382 0.356438 0.225336 0.251047
O61   O     O_3   0.925615 0.973845 0.627541 -0.590149
C173  C     C_3   0.894622 0.969247 0.642285 0.084388
H61   H     H_    0.880379 0.999811 0.638178 0.161766
H62   H     H_    0.906728 0.955525 0.698534 0.175224
C174  C     C_3   0.860809 0.940843 0.583482 -0.803283
H63   H     H_    0.873515 0.909407 0.587565 0.245717
H64   H     H_    0.835321 0.938488 0.592477 0.207462
H65   H     H_    0.848163 0.953340 0.526487 0.246085
O62   O     O_3   0.072654 0.969382 0.370259 -0.588906
C175  C     C_3   0.102122 0.960383 0.353169 0.088441
H66   H     H_    0.118903 0.989077 0.356811 0.157855
H67   H     H_    0.088012 0.946502 0.296435 0.180617
C176  C     C_3   0.133482 0.929616 0.410298 -0.802879
H68   H     H_    0.117784 0.900048 0.406527 0.248840
H69   H     H_    0.157697 0.923368 0.399069 0.206675
H70   H     H_    0.148452 0.942357 0.467806 0.245615
O63   O     O_3   0.425274 0.474926 0.627590 -0.590753
C177  C     C_3   0.395018 0.468663 0.643773 0.093629
H71   H     H_    0.379312 0.498467 0.638429 0.157710
H72   H     H_    0.408034 0.455765 0.700898 0.180645
C178  C     C_3   0.362726 0.438280 0.587303 -0.805053
H73   H     H_    0.377309 0.407682 0.593046 0.249124
H74   H     H_    0.337790 0.434405 0.597446 0.206282
H75   H     H_    0.348895 0.449950 0.529406 0.245517
O64   O     O_3   0.574680 0.474805 0.372358 -0.590697
C179  C     C_3   0.604913 0.468458 0.356144 0.093706
H76   H     H_    0.620669 0.498228 0.361479 0.157653
H77   H     H_    0.591862 0.455548 0.299015 0.180716
C180  C     C_3   0.637154 0.438041 0.412595 -0.805028
H78   H     H_    0.622512 0.407479 0.406875 0.249160
H79   H     H_    0.662066 0.434086 0.402411 0.206304
H80   H     H_    0.651028 0.449730 0.470497 0.245499
C181  C     C_1   0.937977 0.055187 0.731662 0.239371
N13   N     N_1   0.912835 0.077447 0.725310 -0.284900
C182  C     C_1   0.065669 0.050980 0.272469 0.246233
N14   N     N_1   0.092373 0.071495 0.280759 -0.287167
C183  C     C_1   0.438319 0.555588 0.731645 0.242741
N15   N     N_1   0.413137 0.577906 0.724972 -0.285254
C184  C     C_1   0.561785 0.555488 0.268473 0.242869
N16   N     N_1   0.587009 0.577766 0.275197 -0.285182
O65   O     O_3   0.016445 0.078109 0.719053 -0.552449
C185  C     C_3   0.015087 0.109512 0.763492 0.100831
H81   H     H_    0.025529 0.098830 0.820859 0.131793
H82   H     H_    0.982944 0.121555 0.734984 0.180827
C186  C     C_3   0.043104 0.145009 0.771777 -0.732276
H83   H     H_    0.032916 0.157376 0.715713 0.252247
H84   H     H_    0.041697 0.170255 0.805487 0.211345
H85   H     H_    0.075604 0.133959 0.800577 0.250854
O66   O     O_3   0.988829 0.079055 0.286328 -0.552306
C187  C     C_3   0.992004 0.110338 0.243732 0.102219
H86   H     H_    0.981300 0.100239 0.185941 0.131261
H87   H     H_    0.024750 0.120702 0.273201 0.180214
C188  C     C_3   0.965702 0.147185 0.236913 -0.728340
H88   H     H_    0.976382 0.159116 0.293481 0.251370
H89   H     H_    0.968365 0.172285 0.204408 0.214451
H90   H     H_    0.932698 0.137717 0.207493 0.250740
O67   O     O_3   0.517407 0.577862 0.719947 -0.552749
C189  C     C_3   0.516097 0.609353 0.764290 0.101290
H91   H     H_    0.526312 0.598681 0.821547 0.132178
H92   H     H_    0.484018 0.621602 0.735549 0.181190
C190  C     C_3   0.544425 0.644619 0.772948 -0.729568
H93   H     H_    0.534438 0.657009 0.717000 0.251913
H94   H     H_    0.543136 0.669917 0.806698 0.212707
H95   H     H_    0.576850 0.633322 0.801871 0.250760
O68   O     O_3   0.482738 0.577890 0.280205 -0.552731
C191  C     C_3   0.484098 0.609377 0.235912 0.101142
H96   H     H_    0.473870 0.598718 0.178639 0.132174
H97   H     H_    0.516196 0.621584 0.264675 0.181181
C192  C     C_3   0.455822 0.644680 0.227304 -0.729096
H98   H     H_    0.465827 0.657060 0.283270 0.251903
H99   H     H_    0.457147 0.669974 0.193589 0.212856
H100  H     H_    0.423380 0.633424 0.198365 0.250770
C193  C     C_1   0.077599 0.029405 0.870363 0.300969
N17   N     N_1   0.109271 0.041586 0.919623 -0.285904
C194  C     C_1   0.924745 0.034938 0.131615 0.296230
N18   N     N_1   0.894172 0.049498 0.083165 -0.285252
C195  C     C_1   0.577782 0.528952 0.870741 0.299504
N19   N     N_1   0.609417 0.541139 0.920109 -0.286024
C196  C     C_1   0.422273 0.529081 0.129312 0.299404
N20   N     N_1   0.390663 0.541322 0.079965 -0.286051
O69   O     O_3   0.059862 0.948387 0.764411 -0.578321
C197  C     C_3   0.085114 0.931705 0.837346 0.081715
H101  H     H_    0.067864 0.925336 0.864013 0.174866
H102  H     H_    0.110931 0.953443 0.873453 0.166790
C198  C     C_3   0.103576 0.890987 0.833522 -0.733759
H103  H     H_    0.121384 0.895991 0.807787 0.270473
H104  H     H_    0.124673 0.878292 0.890890 0.214157
H105  H     H_    0.078509 0.868174 0.799357 0.240820
O70   O     O_3   0.936807 0.952530 0.232498 -0.579191
C199  C     C_3   0.910063 0.938052 0.158303 0.066645
H106  H     H_    0.927102 0.927570 0.133076 0.176394
H107  H     H_    0.887833 0.962791 0.122757 0.166404
C200  C     C_3   0.885304 0.901486 0.158119 -0.737746
H108  H     H_    0.867214 0.911060 0.181514 0.269132
H109  H     H_    0.863589 0.890286 0.099836 0.210646
H110  H     H_    0.906475 0.875807 0.192517 0.243839
O71   O     O_3   0.559238 0.447564 0.763515 -0.576909
C201  C     C_3   0.585039 0.431348 0.836664 0.067681
H111  H     H_    0.567464 0.422509 0.861717 0.173755
H112  H     H_    0.609203 0.454373 0.873493 0.166890
C202  C     C_3   0.606756 0.392805 0.834080 -0.731588
H113  H     H_    0.625136 0.400584 0.810407 0.269838
H114  H     H_    0.627890 0.380324 0.891605 0.212301
H115  H     H_    0.583614 0.368663 0.798663 0.242030
O72   O     O_3   0.440668 0.447657 0.236391 -0.576919
C203  C     C_3   0.414830 0.431490 0.163207 0.067663
H116  H     H_    0.432387 0.422600 0.138146 0.173738
H117  H     H_    0.390724 0.454566 0.126421 0.166828
C204  C     C_3   0.393013 0.393004 0.165707 -0.732046
H118  H     H_    0.374639 0.400841 0.189366 0.269828
H119  H     H_    0.371859 0.380555 0.108158 0.212101
H120  H     H_    0.416092 0.368816 0.201098 0.242097
C205  C     C_1   0.792633 0.935603 0.229286 0.325531
N21   N     N_1   0.809684 0.909137 0.220614 -0.291293
C206  C     C_1   0.207303 0.944693 0.787861 0.329844
N22   N     N_1   0.190185 0.921895 0.803375 -0.291155
C207  C     C_1   0.292673 0.438909 0.222320 0.328215
N23   N     N_1   0.309766 0.413787 0.210864 -0.292060
C208  C     C_1   0.707311 0.439104 0.778013 0.328365
N24   N     N_1   0.690211 0.414055 0.789600 -0.291922
O73   O     O_3   0.705606 0.939273 0.142171 -0.563838
C209  C     C_3   0.698290 0.952646 0.073107 0.068857
H121  H     H_    0.728008 0.956664 0.077232 0.145109
H122  H     H_    0.680776 0.982404 0.054710 0.146299
C210  C     C_3   0.672572 0.920158 0.013512 -0.737412
H123  H     H_    0.642416 0.915894 0.007363 0.250345
H124  H     H_    0.666667 0.930277 0.958897 0.199343
H125  H     H_    0.689428 0.890158 0.029579 0.254479
O74   O     O_3   0.294366 0.947600 0.873118 -0.563559
C211  C     C_3   0.302063 0.967705 0.938176 0.069839
H126  H     H_    0.272495 0.974840 0.933034 0.146158
H127  H     H_    0.319812 0.996964 0.949029 0.146431
C212  C     C_3   0.327672 0.939295 0.005297 -0.735125
H128  H     H_    0.357688 0.932099 0.012516 0.251498
H129  H     H_    0.333875 0.954729 0.056852 0.199065
H130  H     H_    0.310587 0.909979 0.996810 0.254375
O75   O     O_3   0.205623 0.442176 0.136195 -0.564128
C213  C     C_3   0.198072 0.458090 0.068340 0.069767
H131  H     H_    0.227698 0.463311 0.072623 0.145866
H132  H     H_    0.180438 0.487746 0.052764 0.146590
C214  C     C_3   0.172388 0.426978 0.005908 -0.737950
H133  H     H_    0.142319 0.421578 0.999576 0.250645
H134  H     H_    0.166298 0.439100 0.952211 0.199292
H135  H     H_    0.189361 0.397147 0.019132 0.254269
O76   O     O_3   0.794362 0.442358 0.864111 -0.564069
C215  C     C_3   0.801921 0.458414 0.931890 0.069672
H136  H     H_    0.772299 0.463706 0.927583 0.145913
H137  H     H_    0.819572 0.488059 0.947321 0.146597
C216  C     C_3   0.827589 0.427382 0.994471 -0.737472
H138  H     H_    0.857654 0.421914 0.000828 0.250655
H139  H     H_    0.833686 0.439617 0.048109 0.199297
H140  H     H_    0.810600 0.397566 0.981391 0.254380
C217  C     C_1   0.707224 0.063100 0.275840 0.324004
N25   N     N_1   0.690074 0.088995 0.285573 -0.272115
C218  C     C_1   0.292826 0.055660 0.711232 0.323022
N26   N     N_1   0.309997 0.078418 0.695756 -0.272023
C219  C     C_1   0.207200 0.560675 0.280464 0.324281
N27   N     N_1   0.190040 0.585519 0.292324 -0.272006
C220  C     C_1   0.792817 0.560537 0.719286 0.324296
N28   N     N_1   0.809984 0.585317 0.707314 -0.271816

loop_
_geom_bond_atom_site_label_1
_geom_bond_atom_site_label_2
_ccdc_geom_bond_type
C209  C210  S    
C99   C103  A    
Cu8   O36   S    
O65   C185  S    
C131  C195  S    
C176  H69   S    
C214  H133  S    
C62   O48   A    
Cu9   Cu10  S    
Cu10  O9    S    
C217  N25   T    
C79   C121  S    
C191  H96   S    
C127  O67   S    
C80   O62   S    
C20   C220  S    
C215  H137  S    
C28   C40   S    
Cu7   Cu8   S    
C96   C99   A    
C144  H20   S    
C185  C186  S    
C79   O61   S    
C9    C13   A    
C190  H95   S    
C151  H37   S    
C211  C212  S    
C171  H56   S    
C11   C15   A    
C185  H81   S    
C12   C16   A    
C212  H129  S    
C61   C115  S    
C46   O26   A    
C175  H66   S    
Cu10  O46   S    
Cu11  O7    S    
C133  O69   S    
C165  C166  S    
C96   O60   S    
C188  H90   S    
C97   C105  S    
C128  O68   S    
O55   C149  S    
C201  H112  S    
C130  C134  S    
C76   C83   A    
C82   C124  S    
C178  H73   S    
C68   O16   A    
C25   C29   A    
C186  H85   S    
C171  H57   S    
C150  H34   S    
C27   C31   A    
C28   C32   A    
C63   O5    A    
C139  H6    S    
C26   C38   S    
C210  H125  S    
C94   C97   A    
O63   C177  S    
C17   C21   A    
C4    O20   A    
C19   C23   A    
C13   C33   S    
O53   C145  S    
C45   O25   A    
Cu10  O14   S    
C10   C30   A    
C6    C80   S    
C184  N16   T    
Cu10  O6    S    
C16   C20   A    
C175  C176  S    
C111  C113  T    
O60   C171  S    
C180  H80   S    
C145  H22   S    
Cu2   Cu4   S    
C129  C133  S    
C1    C41   S    
Cu6   O34   S    
C87   C89   T    
C35   C51   T    
C193  N17   T    
C214  H135  S    
C199  H107  S    
C59   O41   A    
C56   O38   A    
C178  H75   S    
C55   C117  S    
C211  H127  S    
C173  C174  S    
Cu2   O23   S    
C84   C88   S    
C59   C113  S    
C179  C180  S    
C53   O29   A    
C47   O23   A    
C119  C123  S    
Cu2   O3    S    
C195  N19   T    
C143  C144  S    
C219  N27   T    
O70   C199  S    
C165  H42   S    
C177  C178  S    
C71   C76   A    
Cu9   O13   S    
C17   C217  S    
C204  H120  S    
C71   C159  S    
Cu5   O33   S    
O74   C211  S    
C127  C131  S    
C57   O39   A    
C168  H48   S    
C125  C129  S    
C174  H63   S    
Cu7   O43   S    
C137  H2    S    
C152  H39   S    
C200  H108  S    
O66   C187  S    
C110  O52   S    
C158  N6    T    
C192  H99   S    
C2    O2    A    
C11   O75   S    
C181  N13   T    
C100  C161  S    
C109  C135  S    
C72   C160  S    
C60   C114  S    
C182  N14   T    
C67   O14   A    
C166  H45   S    
C112  C114  T    
C198  H103  S    
C53   C89   S    
C3    O19   A    
C205  N21   T    
C5    C133  S    
C150  H33   S    
O52   C143  S    
C81   C123  S    
C94   O58   S    
C58   O36   A    
C54   C90   S    
O56   C151  S    
C141  H12   S    
C172  H59   S    
C30   C206  S    
C152  H38   S    
C118  C122  S    
Cu3   O17   S    
C189  H91   S    
C173  H62   S    
C68   C92   S    
C187  H86   S    
C126  O66   S    
C99   C162  S    
C8    C128  S    
Cu8   O32   S    
C170  H54   S    
C96   C98   A    
C119  C131  S    
C213  H131  S    
Cu7   O31   S    
C5    C79   S    
C117  C129  S    
C146  H23   S    
C36   C52   T    
C60   O44   A    
C22   O54   S    
Cu4   O19   S    
O54   C147  S    
C70   C77   A    
C138  H4    S    
C102  C163  S    
O62   C175  S    
C72   C75   A    
Cu11  O12   S    
C202  H114  S    
C216  H138  S    
C4    O4    A    
C169  H52   S    
C67   C91   S    
Cu12  O16   S    
C10   C14   A    
C104  C112  S    
C177  H71   S    
C77   C84   A    
C142  H13   S    
C46   O22   A    
C189  C190  S    
C185  H82   S    
C121  C125  S    
O58   C167  S    
C146  H24   S    
C123  C127  S    
C206  N22   T    
C132  C136  S    
C174  H65   S    
C213  C214  S    
C140  H8    S    
C95   O59   S    
C200  H110  S    
C143  H17   S    
C187  C188  S    
C73   C85   S    
Cu1   O22   S    
C31   C207  S    
C7    C81   S    
C26   C30   A    
C203  H116  S    
C197  H102  S    
Cu1   O2    S    
C63   O9    A    
C93   C97   A    
C198  H105  S    
Cu6   O37   S    
C21   C25   A    
C149  H31   S    
C150  H35   S    
C18   C22   A    
C105  C115  T    
C24   C28   A    
C45   O21   A    
C14   C34   S    
C156  N4    T    
C32   C208  S    
C19   C219  S    
C80   C108  S    
C138  H3    S    
C13   C17   A    
C152  H40   S    
C65   O7    A    
Cu11  O15   S    
O69   C197  S    
C16   C36   S    
C93   O57   S    
C215  C216  S    
C70   C158  S    
Cu6   O30   S    
C2    C42   S    
C144  H19   S    
C122  C182  S    
C37   C41   T    
O49   C137  S    
C146  H25   S    
C190  H94   S    
C40   C44   T    
C203  C204  S    
C212  H128  S    
C64   O10   A    
C164  N12   T    
Cu3   O26   S    
C175  H67   S    
Cu5   O38   S    
C7    C127  S    
C47   O27   A    
C188  H89   S    
Cu8   O39   S    
C83   C87   S    
O71   C201  S    
C61   O45   A    
C8    C136  S    
C187  H87   S    
C204  H119  S    
Cu7   O40   S    
C160  N8    T    
C183  N15   T    
C154  N2    T    
C80   C122  S    
O51   C141  S    
C142  H15   S    
C15   C19   A    
C186  H84   S    
C147  C148  S    
O72   C203  S    
Cu5   O29   S    
C167  H46   S    
C179  H77   S    
C210  H124  S    
C126  C130  S    
C33   C49   T    
Cu6   O42   S    
C140  H10   S    
C54   O31   A    
C103  C111  S    
C51   C65   S    
C121  C181  S    
C209  H121  S    
C110  C136  S    
Cu11  Cu12  S    
C29   C205  S    
C162  N10   T    
C69   C73   A    
C180  H79   S    
C2    O18   A    
Cu9   O45   S    
C124  C128  S    
C204  H118  S    
C157  N5    T    
C214  H134  S    
C62   O47   A    
C178  H74   S    
C147  H27   S    
C101  C164  S    
Cu2   O24   S    
C78   C155  S    
Cu5   O41   S    
C6    C126  S    
C167  C168  S    
C72   C74   A    
C107  O49   S    
C95   C100  A    
C4    C44   S    
C191  C192  S    
Cu2   O4    S    
O76   C215  S    
C5    C45   S    
C100  C103  A    
C106  C116  T    
C179  H76   S    
Cu12  O11   S    
Cu7   O35   S    
C23   O55   S    
C218  N26   T    
C8    C48   S    
C108  C134  S    
O57   C165  S    
C118  C130  S    
C67   O13   A    
C212  H130  S    
C21   O53   S    
C70   C73   A    
C58   C120  S    
C79   C107  S    
C168  H49   S    
C132  C196  S    
C81   C109  S    
C101  C104  A    
C201  H111  S    
C75   C154  S    
C52   C66   S    
C109  C119  S    
C192  H98   S    
C68   O15   A    
C147  H26   S    
C215  H136  S    
C56   C118  S    
O59   C169  S    
C108  O50   S    
C93   C102  A    
C71   C74   A    
C196  N20   T    
Cu8   O44   S    
C109  O51   S    
C148  H30   S    
C145  H21   S    
C107  C133  S    
Cu9   O10   S    
C75   C83   A    
C172  H58   S    
C153  N1    T    
Cu4   O27   S    
C24   O56   S    
C189  H92   S    
C10   O74   S    
C62   C116  S    
C69   C157  S    
C151  C152  S    
C8    C82   S    
C81   O63   S    
C170  H53   S    
C22   C26   A    
C199  H106  S    
C166  H44   S    
C59   O42   A    
C213  H132  S    
Cu12  O8    S    
O67   C189  S    
C107  C117  S    
C7    C47   S    
C171  C172  S    
Cu4   O20   S    
C66   O8    A    
C76   C153  S    
C211  H126  S    
C49   C63   S    
O73   C209  S    
C50   C64   S    
C176  H68   S    
C14   C18   A    
C65   O11   A    
C53   O30   A    
C66   O12   A    
C202  H113  S    
C85   C91   T    
C95   C98   A    
C194  N18   T    
O50   C139  S    
C201  C202  S    
C169  C170  S    
C3    C43   S    
C151  H36   S    
O61   C173  S    
C129  C193  S    
C82   C110  S    
C38   C42   T    
C131  C135  S    
C165  H41   S    
C177  H72   S    
C64   O6    A    
C148  H28   S    
C145  C146  S    
C117  C121  S    
C216  H139  S    
C48   O24   A    
Cu12  O48   S    
C20   C24   A    
C94   C101  A    
C27   C39   S    
C123  C183  S    
C174  H64   S    
C199  C200  S    
Cu11  O47   S    
C98   C106  S    
C23   C27   A    
C200  H109  S    
C82   O64   S    
C155  N3    T    
Cu1   O21   S    
Cu4   O28   S    
C57   C119  S    
C192  H100  S    
C25   C37   S    
C12   O76   S    
C11   C31   A    
C12   C32   A    
C203  H117  S    
C197  C198  S    
Cu1   O1    S    
C69   C78   A    
C143  H16   S    
C176  H70   S    
C128  C132  S    
C15   C35   S    
C198  H104  S    
C125  O65   S    
C149  H32   S    
C34   C50   T    
C9    O73   S    
C58   O40   A    
C108  C118  S    
C124  C184  S    
C110  C120  S    
C220  N28   T    
C18   C218  S    
C141  H11   S    
C172  H60   S    
C39   C43   T    
C168  H50   S    
C163  N11   T    
C77   C156  S    
C148  H29   S    
C122  C126  S    
Cu3   O18   S    
C7    C135  S    
C173  H61   S    
C135  O71   S    
C130  C194  S    
C1    O17   A    
C170  H55   S    
C137  C138  S    
C144  H18   S    
C55   O33   A    
C74   C86   S    
C102  C104  A    
Cu1   Cu3   S    
C190  H93   S    
C137  H1    S    
C138  H5    S    
Cu3   O25   S    
C136  O72   S    
C5    C125  S    
C57   O35   A    
C202  H115  S    
C166  H43   S    
C188  H88   S    
C169  H51   S    
C191  H97   S    
C6    C46   S    
C120  C132  S    
C88   C90   T    
C1    O1    A    
C141  C142  S    
C9    C29   A    
C142  H14   S    
C186  H83   S    
C3    O3    A    
C216  H140  S    
Cu9   O5    S    
C6    C134  S    
C86   C92   T    
Cu5   Cu6   S    
C167  H47   S    
C134  O70   S    
C139  C140  S    
C210  H123  S    
O68   C191  S    
C56   O34   A    
C60   O43   A    
C140  H9    S    
C54   O32   A    
C55   O37   A    
O75   C213  S    
C209  H122  S    
C208  N24   T    
C78   C84   A    
C207  N23   T    
O64   C179  S    
C197  H101  S    
C48   O28   A    
C180  H78   S    
C161  N9    T    
C139  H7    S    
C61   O46   A    
C149  C150  S    
C120  C124  S    
C159  N7    T    
