data_mof_unit_40401.cif
_audit_creation_date              2013-03-05T15:50:33-0500
_audit_creation_method            fapswitch 2.2
_symmetry_space_group_name_H-M    P1
_symmetry_Int_Tables_number       1
_space_group_crystal_system       triclinic
_cell_length_a                    9.598514
_cell_length_b                    10.889278
_cell_length_c                    13.474753
_cell_angle_alpha                 92.950589
_cell_angle_beta                  72.352073
_cell_angle_gamma                 89.267663
_cell_volume                      1339.73487075

loop_
_atom_site_label
_atom_site_type_symbol
_atom_site_description
_atom_site_fract_x
_atom_site_fract_y
_atom_site_fract_z
_atom_type_partial_charge
O1    O     O_R   0.381190 0.680360 0.500010 -0.545604
O2    O     O_R   0.618760 0.680340 0.500000 -0.561299
C1    C     C_R   0.497078 0.737916 0.505317 0.954193
O3    O     O_R   0.323240 0.499990 0.650990 -0.550565
O4    O     O_R   0.560820 0.499960 0.650980 -0.570260
C2    C     C_R   0.422513 0.489606 0.699292 0.895047
Cu1   Cu    Cu3+1 0.359340 0.500010 0.500010 1.017945
Cu2   Cu    Cu3+1 0.640660 0.499990 0.499990 1.001938
O5    O     O_R   0.381240 0.319660 0.500000 -0.586618
O6    O     O_R   0.618810 0.319640 0.499990 -0.613140
O7    O     O_R   0.439180 0.500040 0.349020 -0.612242
O8    O     O_R   0.676760 0.500010 0.349010 -0.579960
C3    C     C_R   0.501619 0.262704 0.497081 0.735448
C4    C     C_R   0.578614 0.495493 0.300306 0.834661
C5    C     C_R   0.789458 0.382511 0.027993 -0.080747
H1    H     H_    0.835212 0.392859 0.173565 0.154865
H2    H     H_    0.893134 0.335194 0.989989 0.181371
C6    C     C_R   0.623896 0.475249 0.186961 -0.015246
C7    C     C_R   0.236502 0.527123 0.871072 -0.130436
C8    C     C_R   0.193963 0.544391 0.979504 0.349183
C9    C     C_R   0.295414 0.518979 0.031999 -0.238535
C10   C     C_R   0.440918 0.478637 0.977720 0.044298
C11   C     C_R   0.479301 0.452682 0.868513 0.043645
C12   C     C_R   0.548972 0.462298 0.029276 0.043145
C13   C     C_R   0.687939 0.406703 0.974223 0.043359
C14   C     C_R   0.720853 0.373412 0.867554 0.304629
C15   C     C_R   0.617804 0.396395 0.816851 -0.274054
C16   C     C_R   0.523298 0.501275 0.134392 -0.161906
C17   C     C_R   0.757198 0.416004 0.133505 -0.148943
C18   C     C_R   0.378000 0.484091 0.814325 -0.103936
H3    H     H_    0.425579 0.552920 0.177938 0.177475
H4    H     H_    0.160193 0.552357 0.830158 0.227023
H5    H     H_    0.256585 0.529643 0.115770 0.175299
C19   C     C_R   0.504188 0.896156 0.695547 0.359381
C20   C     C_R   0.522889 0.972842 0.777030 -0.118747
C21   C     C_R   0.525177 0.098694 0.770661 -0.173213
H6    H     H_    0.529842 0.156893 0.836995 0.162990
C22   C     C_R   0.512406 0.149609 0.681802 -0.111383
H7    H     H_    0.502654 0.247865 0.682909 0.111800
C23   C     C_R   0.506848 0.075379 0.594391 0.083578
C24   C     C_R   0.502502 0.945527 0.599543 -0.074677
C25   C     C_R   0.493278 0.872935 0.509845 -0.220470
C26   C     C_R   0.480829 0.931069 0.421191 0.342974
H8    H     H_    0.472861 0.102882 0.351854 0.155921
C27   C     C_R   0.481003 0.058694 0.420296 -0.248775
C28   C     C_R   0.498449 0.129953 0.503981 -0.091526
H9    H     H_    0.817853 0.638508 0.620169 0.175408
C29   C     C_R   0.916827 0.337162 0.359996 -0.127493
H10   H     H_    0.809171 0.330215 0.354624 0.180575
C30   C     C_R   0.018992 0.257490 0.290689 -0.186184
H11   H     H_    0.986026 0.195650 0.236912 0.165229
C31   C     C_R   0.162681 0.256617 0.290591 -0.177684
H12   H     H_    0.242127 0.193946 0.236802 0.175119
C32   C     C_R   0.205106 0.335480 0.359722 -0.138954
H13   H     H_    0.317615 0.326013 0.353638 0.182028
C33   C     C_R   0.104974 0.419407 0.431044 0.226818
C34   C     C_R   0.955384 0.419793 0.431078 0.226855
N1    N     N_R   0.852480 0.498790 0.499000 -0.213724
C35   C     C_R   0.896904 0.576070 0.566055 -0.014013
C36   C     C_R   0.044828 0.576051 0.566022 0.010468
N2    N     N_R   0.148360 0.498710 0.498970 -0.206429
N3    N     N_R   0.463307 0.774057 0.720330 0.073712
O9    O     O_R   0.532881 0.714700 0.773125 -0.385447
O10   O     O_R   0.329673 0.745240 0.727407 -0.395573
H14   H     H_    0.523653 0.935271 0.849765 0.192617
N4    N     N_R   0.859876 0.318219 0.807960 0.112995
O11   O     O_R   0.865172 0.224819 0.742529 -0.349401
O12   O     O_R   0.979735 0.375142 0.803521 -0.378135
H15   H     H_    0.076219 0.638383 0.620123 0.166287
N5    N     N_R   0.049843 0.593440 0.036005 0.130070
O13   O     O_R   0.960650 0.628918 0.986377 -0.315452
O14   O     O_R   0.008997 0.608874 0.137289 -0.344780
H16   H     H_    0.650318 0.365425 0.736110 0.199539
N6    N     N_R   0.472707 0.861534 0.329589 0.121571
O15   O     O_R   0.387116 0.899807 0.278213 -0.343008
O16   O     O_R   0.568339 0.773453 0.287336 -0.350903

loop_
_geom_bond_atom_site_label_1
_geom_bond_atom_site_label_2
_geom_bond_distance
_ccdc_geom_bond_type
N4    O12   1.300655 A    
C1    C25   1.467912 S    
C24   C25   1.435923 A    
C4    C6    1.459645 S    
C7    C8    1.394599 A    
C29   C34   1.413764 A    
C27   C28   1.389047 A    
C31   H12   1.083151 S    
Cu1   O7    1.944579 S    
C14   C15   1.388804 A    
N6    O16   1.300412 A    
C21   H6    1.081317 S    
C22   H7    1.071777 S    
O7    C4    1.298776 A    
C5    C13   1.408913 A    
C9    H5    1.075583 S    
C20   H14   1.083319 S    
C19   N3    1.418748 S    
C33   C34   1.435653 A    
C5    H2    1.081088 S    
C19   C20   1.401419 A    
O5    C3    1.293411 A    
Cu1   N2    2.029613 S    
N3    O10   1.300792 A    
Cu2   N1    2.029023 S    
C20   C21   1.377564 A    
C30   C31   1.378717 A    
N5    O13   1.301795 A    
C11   C15   1.414834 A    
C26   N6    1.437563 S    
C29   C30   1.387817 A    
N4    O11   1.301350 A    
C35   C36   1.419716 A    
O1    Cu1   1.977713 S    
C9    C10   1.417865 A    
C8    N5    1.441938 S    
C19   C24   1.430677 A    
O3    Cu1   1.957434 S    
C7    H4    1.082228 S    
C13   C14   1.401881 A    
C31   C32   1.388376 A    
C5    C17   1.388196 A    
C32   C33   1.417624 A    
N6    O15   1.301406 A    
C14   N4    1.437641 S    
C11   C18   1.429416 A    
Cu1   Cu2   2.700169 S    
C6    C16   1.393846 A    
C12   C13   1.424490 A    
O3    C2    1.313484 A    
N1    C35   1.367805 A    
C36   N2    1.367122 A    
O1    C1    1.302570 A    
C23   C28   1.405931 A    
N3    O9    1.301611 A    
Cu2   O8    1.957434 S    
C30   H11   1.083009 S    
C6    C17   1.394420 A    
C26   C27   1.390437 A    
C23   C24   1.419792 A    
C2    C18   1.482379 S    
O8    C4    1.301265 A    
C10   C12   1.426490 A    
C25   C26   1.415810 A    
H8    C27   1.084707 S    
C3    C28   1.453441 S    
Cu1   O5    1.972415 S    
C32   H13   1.061219 S    
C29   H10   1.060912 S    
C10   C11   1.416628 A    
C16   H3    1.076651 S    
O2    Cu2   1.972416 S    
C12   C16   1.403889 A    
O6    C3    1.301261 A    
O4    Cu2   1.944579 S    
C21   C22   1.382633 A    
O2    C1    1.299336 A    
H1    C17   1.081618 S    
C22   C23   1.408801 A    
C34   N1    1.379246 A    
O4    C2    1.298557 A    
C36   H15   1.081848 S    
H9    C35   1.081667 S    
C8    C9    1.398599 A    
Cu2   O6    1.977712 S    
C33   N2    1.384130 A    
N5    O14   1.301858 A    
C15   H16   1.071660 S    
C7    C18   1.402163 A    
