data_mof_unit_14487.cif
_audit_creation_date              2012-12-10T17:06:35-0500
_audit_creation_method            fapswitch 2.2
_symmetry_space_group_name_H-M    P1
_symmetry_Int_Tables_number       1
_space_group_crystal_system       triclinic
_cell_length_a                    14.14057
_cell_length_b                    10.612321
_cell_length_c                    10.096361
_cell_angle_alpha                 91.672147
_cell_angle_beta                  90.641285
_cell_angle_gamma                 88.731662
_cell_volume                      1514.00246625

loop_
_atom_site_label
_atom_site_type_symbol
_atom_type_description
_atom_site_fract_x
_atom_site_fract_y
_atom_site_fract_z
_atom_type_partial_charge
C1    C     C_R   0.505950 0.261850 0.497690 0.857240
C2    C     C_R   0.490040 0.737410 0.502306 0.800155
C3    C     C_R   0.670579 0.501898 0.500661 0.867962
C4    C     C_1   0.227845 0.499323 0.499460 -0.188698
C5    C     C_1   0.142526 0.500189 0.500214 -0.008163
C6    C     C_1   0.042579 0.502128 0.500999 0.014697
C7    C     C_1   0.957267 0.503772 0.501555 0.000757
C8    C     C_1   0.857330 0.504850 0.501911 -0.012173
C9    C     C_3   0.467917 0.937304 0.729023 0.135845
C10   C     C_3   0.424984 0.894318 0.858003 -0.345730
C11   C     C_3   0.477447 0.949006 0.978820 -0.940834
C12   C     C_1   0.772053 0.504209 0.501814 -0.181698
C13   C     C_3   0.651269 0.107673 0.618549 0.005282
C14   C     C_3   0.736733 0.168940 0.558029 -0.301058
C15   C     C_3   0.802793 0.221506 0.665646 -0.927790
C16   C     C_3   0.717666 0.585622 0.927795 0.020454
C17   C     C_3   0.695216 0.709664 0.858779 -0.320114
C18   C     C_3   0.751523 0.817887 0.920338 -0.975552
C19   C     C_3   0.372390 0.639722 0.140681 0.228563
C20   C     C_3   0.295913 0.543114 0.106225 -0.318948
C21   C     C_3   0.199697 0.588429 0.158368 -0.984604
C22   C     C_2   0.448966 0.932721 0.400043 -0.335514
C23   C     C_2   0.453640 0.865844 0.509799 0.339306
C24   C     C_2   0.441705 0.068963 0.416868 0.439150
C25   C     C_2   0.511135 0.125931 0.486964 0.256632
C26   C     C_2   0.575603 0.485103 0.927471 0.571132
C27   C     C_2   0.566742 0.450131 0.074066 0.532454
C28   C     C_R   0.329361 0.499516 0.499566 0.905725
H1    H     H_    0.472794 0.894506 0.304961 0.138391
H2    H     H_    0.678049 0.028452 0.678864 0.160667
H3    H     H_    0.613813 0.172102 0.689758 0.158008
H4    H     H_    0.776224 0.097396 0.496494 0.234466
H5    H     H_    0.712621 0.245629 0.492678 0.211598
H6    H     H_    0.866501 0.259736 0.619385 0.268404
H7    H     H_    0.825913 0.145905 0.733418 0.258954
H8    H     H_    0.766439 0.298357 0.723710 0.297671
H9    H     H_    0.793628 0.561025 0.912662 0.181127
H10   H     H_    0.708236 0.597426 0.036990 0.139397
H11   H     H_    0.712517 0.699024 0.751881 0.234853
H12   H     H_    0.475208 0.041192 0.736296 0.158960
H13   H     H_    0.618561 0.732720 0.867209 0.220188
H14   H     H_    0.734179 0.831413 0.026924 0.275599
H15   H     H_    0.733343 0.906365 0.869002 0.253934
H16   H     H_    0.828611 0.798103 0.910250 0.272811
H17   H     H_    0.384707 0.423046 0.821804 0.378771
H18   H     H_    0.673376 0.334103 0.060487 0.319864
H19   H     H_    0.350391 0.727977 0.091433 0.109976
H20   H     H_    0.372892 0.667447 0.245910 0.165801
H21   H     H_    0.287944 0.532221 0.997339 0.248689
H22   H     H_    0.314936 0.450167 0.147953 0.256459
H23   H     H_    0.539987 0.893687 0.718413 0.129900
H24   H     H_    0.204545 0.616248 0.264727 0.270829
H25   H     H_    0.147761 0.511959 0.145448 0.280016
H26   H     H_    0.173856 0.671346 0.102649 0.262305
H27   H     H_    0.349597 0.925962 0.862952 0.238682
H28   H     H_    0.427954 0.789636 0.860123 0.242655
H29   H     H_    0.552982 0.918627 0.977843 0.272343
H30   H     H_    0.444887 0.915803 0.070460 0.261962
H31   H     H_    0.472709 0.053674 0.980241 0.276975
H32   H     H_    0.323274 0.075587 0.319265 0.339466
N1    N     N_2   0.500930 0.501330 0.852150 0.032348
N2    N     N_2   0.500950 0.501360 0.147810 0.077579
O1    O     O_R   0.499990 0.319060 0.613040 -0.639474
O2    O     O_3   0.365254 0.136234 0.366213 -0.782410
O3    O     O_3   0.593026 0.054990 0.517598 -0.698069
O4    O     O_3   0.664089 0.486858 0.870242 -0.687043
O5    O     O_3   0.425472 0.442900 0.898785 -0.760314
O6    O     O_3   0.630415 0.366996 0.130862 -0.785771
O7    O     O_3   0.463378 0.606865 0.091960 -0.619787
O8    O     O_R   0.500010 0.319100 0.386900 -0.546950
O9    O     O_R   0.373700 0.499980 0.613090 -0.614835
O10   O     O_R   0.373730 0.500020 0.386960 -0.616394
O11   O     O_R   0.499990 0.680900 0.613100 -0.611441
O12   O     O_R   0.500010 0.680940 0.386960 -0.640596
O13   O     O_R   0.626270 0.499980 0.613040 -0.558300
O14   O     O_R   0.626300 0.500020 0.386910 -0.558332
O15   O     O_3   0.405356 0.909408 0.622309 -0.641349
Zn1   Zn    Zn3+2 0.499980 0.499970 0.650990 0.977788
Zn2   Zn    Zn3+2 0.500020 0.500030 0.349010 1.019154

loop_
_geom_bond_atom_site_label_1
_geom_bond_atom_site_label_2
_ccdc_geom_bond_type
C16   H9    S    
H17   O5    S    
C21   H25   S    
O11   Zn1   S    
C24   C25   D    
H18   O6    S    
C6    C7    T    
C10   H27   S    
C22   H1    S    
C18   H16   S    
C11   H30   S    
C10   H28   S    
C9    C10   S    
N1    O5    S    
C15   H6    S    
C19   C20   S    
C9    H23   S    
O14   Zn2   S    
H32   O2    S    
N1    Zn1   S    
C8    C12   T    
C14   H5    S    
C17   C18   S    
C3    C12   S    
C25   O3    S    
C7    C8    S    
C24   O2    S    
C9    O15   S    
C18   H15   S    
C28   O10   A    
C1    O8    A    
C1    C25   S    
C3    O14   A    
C26   C27   S    
C20   H21   S    
C2    O11   A    
C11   H29   S    
C11   H31   S    
C5    C6    S    
C1    O1    A    
C15   H7    S    
C4    C28   S    
C26   N1    D    
O10   Zn2   S    
C17   H13   S    
O12   Zn2   S    
C18   H14   S    
C21   H26   S    
O13   Zn1   S    
C22   C24   S    
C19   O7    S    
C28   O9    A    
C16   O4    S    
C10   C11   S    
C13   H2    S    
O9    Zn1   S    
C26   O4    S    
C16   C17   S    
N2    Zn2   S    
C21   H24   S    
C3    O13   A    
C20   C21   S    
C20   H22   S    
C17   H11   S    
C19   H19   S    
C14   H4    S    
C2    C23   S    
C14   C15   S    
C15   H8    S    
C13   O3    S    
C27   O6    S    
C19   H20   S    
C13   C14   S    
O8    Zn2   S    
C22   C23   D    
C13   H3    S    
C9    H12   S    
C23   O15   S    
C27   N2    D    
N2    O7    S    
C16   H10   S    
C4    C5    T    
O1    Zn1   S    
C2    O12   A    
