data_mof_unit_8448.cif
_audit_creation_date              2012-12-10T19:09:05-0500
_audit_creation_method            fapswitch 2.2
_symmetry_space_group_name_H-M    P1
_symmetry_Int_Tables_number       1
_space_group_crystal_system       triclinic
_cell_length_a                    17.691888
_cell_length_b                    10.804112
_cell_length_c                    9.58141
_cell_angle_alpha                 89.991383
_cell_angle_beta                  90.835044
_cell_angle_gamma                 91.807559
_cell_volume                      1830.33414519

loop_
_atom_site_label
_atom_site_type_symbol
_atom_type_description
_atom_site_fract_x
_atom_site_fract_y
_atom_site_fract_z
_atom_type_partial_charge
C1    C     C_R   0.502715 0.262610 0.499992 0.791200
C2    C     C_R   0.885390 0.513437 0.497753 0.152519
C3    C     C_1   0.966177 0.516955 0.496630 -0.071786
C4    C     C_1   0.033985 0.518121 0.496021 -0.071068
C5    C     C_R   0.154735 0.518704 0.623039 -0.162504
C6    C     C_R   0.233315 0.513305 0.624011 -0.198264
C7    C     C_R   0.272596 0.506420 0.497829 -0.033077
C8    C     C_R   0.231848 0.505974 0.370754 -0.210704
C9    C     C_R   0.153177 0.511126 0.370144 -0.161595
C10   C     C_R   0.114724 0.517128 0.496255 0.154625
C11   C     C_R   0.515547 0.063827 0.623951 0.044975
C12   C     C_R   0.355587 0.501382 0.499238 0.770330
C13   C     C_R   0.513057 0.130314 0.499678 -0.067722
C14   C     C_R   0.524134 0.065855 0.374186 -0.245899
C15   C     C_R   0.523199 0.936296 0.373769 -0.207720
C16   C     C_R   0.512168 0.870576 0.499240 -0.124917
C17   C     C_R   0.513465 0.937308 0.623402 -0.001529
C18   C     C_3   0.473555 0.930774 0.761014 0.310078
C19   C     C_3   0.476106 0.072683 0.760059 -0.527861
C20   C     C_R   0.539800 0.589064 0.074620 0.233769
C21   C     C_R   0.452674 0.420425 0.070339 0.163352
C22   C     C_R   0.453585 0.422117 0.921931 -0.079557
C23   C     C_R   0.503094 0.737408 0.499860 0.801855
C24   C     C_R   0.539666 0.589343 0.927879 0.205470
C25   C     C_3   0.622659 0.617800 0.924737 -0.582231
C26   C     C_3   0.622530 0.617367 0.083728 0.233785
C27   C     C_R   0.644345 0.500660 0.500680 0.783047
C28   C     C_R   0.847432 0.560886 0.611968 -0.164107
C29   C     C_R   0.768592 0.555703 0.613830 -0.202227
C30   C     C_R   0.727295 0.503006 0.501355 -0.027422
C31   C     C_R   0.765934 0.455369 0.387157 -0.228147
C32   C     C_R   0.844714 0.460643 0.385445 -0.164702
Cu1   Cu    Cu3+1 0.500000 0.499980 0.640670 0.948556
Cu2   Cu    Cu3+1 0.500000 0.500020 0.359330 0.938153
H1    H     H_    0.878729 0.602068 0.699197 0.127114
H2    H     H_    0.527617 0.888451 0.275058 0.202916
H3    H     H_    0.510642 0.892794 0.844255 0.117937
H4    H     H_    0.420439 0.116591 0.750008 0.202265
H5    H     H_    0.514605 0.113268 0.841573 0.169495
H6    H     H_    0.416977 0.359511 0.862022 0.158266
H7    H     H_    0.654672 0.540201 0.881387 0.179317
H8    H     H_    0.635843 0.710129 0.878190 0.204404
H9    H     H_    0.654202 0.540330 0.132069 0.089120
H10   H     H_    0.740066 0.595030 0.701604 0.138230
H11   H     H_    0.735250 0.413873 0.299482 0.138678
H12   H     H_    0.873867 0.423386 0.296872 0.129619
H13   H     H_    0.125172 0.523288 0.721074 0.127273
H14   H     H_    0.263174 0.514520 0.723511 0.151094
H15   H     H_    0.260598 0.501316 0.272001 0.146406
H16   H     H_    0.122351 0.509700 0.271570 0.127986
H17   H     H_    0.530087 0.114523 0.276059 0.161916
N1    N     N_R   0.500470 0.500930 0.147930 -0.236898
N2    N     N_R   0.500480 0.500890 0.852020 -0.196338
O1    O     O_R   0.500000 0.319640 0.618810 -0.575441
O2    O     O_R   0.500010 0.319680 0.381230 -0.601288
O3    O     O_R   0.391250 0.499990 0.618840 -0.577168
O4    O     O_R   0.391260 0.500020 0.381250 -0.604339
O5    O     O_R   0.499990 0.680320 0.618770 -0.560094
O6    O     O_R   0.500000 0.680360 0.381190 -0.561177
O7    O     O_R   0.608740 0.499980 0.618750 -0.577443
O8    O     O_R   0.608750 0.500010 0.381160 -0.585978
O9    O     O_3   0.399194 0.875668 0.766621 -0.593083
C33   C     C_3   0.353660 0.890352 0.645215 0.111565
H18   H     H_    0.366911 0.818077 0.568001 0.145347
H19   H     H_    0.361178 0.983225 0.596516 0.131844
C34   C     C_3   0.270711 0.871551 0.684461 -0.349564
H20   H     H_    0.262771 0.781144 0.738609 0.232466
H21   H     H_    0.254793 0.946300 0.757075 0.215673
C35   C     C_3   0.218888 0.872857 0.555734 -0.912113
H22   H     H_    0.224946 0.963041 0.500682 0.252110
H23   H     H_    0.159181 0.859068 0.587957 0.260296
H24   H     H_    0.232869 0.796914 0.483257 0.266575
C36   C     C_3   0.393467 0.332631 0.133548 -0.360633
C37   C     C_3   0.402346 0.195591 0.092934 -0.387635
C38   C     C_3   0.335290 0.144487 0.005903 -0.853146
H25   H     H_    0.282572 0.147503 0.067214 0.250721
H26   H     H_    0.327890 0.199076 0.908884 0.239989
H27   H     H_    0.344942 0.046703 0.977386 0.274521
H28   H     H_    0.455779 0.182570 0.036664 0.216453
H29   H     H_    0.405321 0.138435 0.189140 0.219795
H30   H     H_    0.392664 0.334316 0.246662 0.238969
H31   H     H_    0.336892 0.364992 0.100445 0.172340
O10   O     O_3   0.635895 0.736330 0.141848 -0.595590
C39   C     C_3   0.712800 0.751331 0.180713 0.059782
H32   H     H_    0.749188 0.745579 0.087132 0.139488
H33   H     H_    0.728923 0.679377 0.257718 0.155804
C40   C     C_3   0.725568 0.877995 0.249316 -0.323304
H34   H     H_    0.710886 0.951808 0.173699 0.217814
H35   H     H_    0.688144 0.884981 0.341008 0.229488
C41   C     C_3   0.807606 0.897759 0.297781 -0.926904
H36   H     H_    0.822845 0.826215 0.375737 0.263754
H37   H     H_    0.815044 0.990449 0.347041 0.258532
H38   H     H_    0.846152 0.892896 0.207596 0.254103

loop_
_geom_bond_atom_site_label_1
_geom_bond_atom_site_label_2
_ccdc_geom_bond_type
C8    C9    A    
C23   O5    A    
C34   H21   S    
C40   H34   S    
C33   H19   S    
C26   O10   S    
C36   C37   S    
C36   H31   S    
C39   C40   S    
C1    O1    A    
C7    C8    A    
C23   O6    A    
C5    H13   S    
C11   C19   S    
O9    C33   S    
C6    H14   S    
O10   C39   S    
C28   C29   A    
C18   H3    S    
C39   H33   S    
C27   O7    A    
C30   C31   A    
C34   C35   S    
C15   C16   A    
C21   C36   S    
C2    C32   A    
C18   C19   S    
C35   H23   S    
C27   O8    A    
C31   C32   A    
C28   H1    S    
C16   C17   A    
Cu2   O4    S    
C9    C10   A    
Cu1   O3    S    
C34   H20   S    
C33   C34   S    
Cu2   O2    S    
C37   H29   S    
C13   C14   A    
C27   C30   S    
C36   H30   S    
C26   H9    S    
Cu1   Cu2   S    
C22   N2    A    
Cu1   N2    S    
C7    C12   S    
C37   C38   S    
C20   C24   A    
C39   H32   S    
C25   H7    S    
C18   O9    S    
C24   N2    A    
Cu2   O8    S    
C35   H24   S    
C38   H25   S    
C29   C30   A    
C19   H4    S    
C41   H37   S    
C14   H17   S    
C22   H6    S    
C17   C18   S    
C24   C25   S    
C38   H26   S    
C12   O3    A    
C19   H5    S    
C12   O4    A    
C16   C23   S    
C37   H28   S    
C40   H35   S    
C29   H10   S    
Cu2   O6    S    
C1    C13   S    
C4    C10   S    
C3    C4    T    
C15   H2    S    
C41   H38   S    
Cu1   O1    S    
C11   C17   A    
C32   H12   S    
C9    H16   S    
C25   H8    S    
C6    C7    A    
Cu1   O7    S    
Cu2   N1    S    
Cu1   O5    S    
C2    C3    S    
C25   C26   S    
C5    C10   A    
C20   N1    A    
C11   C13   A    
C41   H36   S    
C5    C6    A    
C20   C26   S    
C1    O2    A    
C35   H22   S    
C38   H27   S    
C33   H18   S    
C31   H11   S    
C40   C41   S    
C14   C15   A    
C2    C28   A    
C21   C22   A    
C8    H15   S    
C21   N1    A    
