data_mof_unit_59595.cif
_audit_creation_date              2012-12-10T20:25:38-0500
_audit_creation_method            fapswitch 2.2
_symmetry_space_group_name_H-M    P1
_symmetry_Int_Tables_number       1
_space_group_crystal_system       triclinic
_cell_length_a                    8.570651
_cell_length_b                    10.766222
_cell_length_c                    9.921939
_cell_angle_alpha                 86.733357
_cell_angle_beta                  97.438483
_cell_angle_gamma                 91.672337
_cell_volume                      906.132639887

loop_
_atom_site_label
_atom_site_type_symbol
_atom_type_description
_atom_site_fract_x
_atom_site_fract_y
_atom_site_fract_z
_atom_type_partial_charge
C1    C     C_R   0.500476 0.259575 0.503869 0.862396
C2    C     C_R   0.583697 0.942960 0.408380 -0.216252
C3    C     C_R   0.486951 0.870864 0.486116 -0.071484
C4    C     C_R   0.387134 0.927288 0.562315 -0.052787
C5    C     C_3   0.350341 0.891715 0.702013 0.022460
C6    C     C_3   0.370501 0.031312 0.725617 0.360664
C7    C     C_R   0.375455 0.452976 0.060053 0.178514
C8    C     C_R   0.619129 0.555597 0.081590 -0.137865
C9    C     C_R   0.620268 0.554042 0.938108 -0.139770
C10   C     C_R   0.368559 0.462441 0.917088 0.089775
C11   C     C_3   0.286925 0.338538 0.907309 -0.020370
C12   C     C_R   0.201721 0.500686 0.464773 0.969373
C13   C     C_3   0.310063 0.322645 0.062348 -0.021938
C14   C     C_R   0.498687 0.739514 0.496181 0.872035
C15   C     C_R   0.798121 0.504113 0.534437 0.979922
C16   C     C_2   0.036945 0.499092 0.445095 -0.400003
C17   C     C_2   0.962366 0.515528 0.550930 -0.420043
C18   C     C_R   0.394946 0.054009 0.576473 -0.067787
C19   C     C_R   0.504424 0.126272 0.510392 -0.075105
C20   C     C_R   0.593500 0.070537 0.421730 -0.216597
H1    H     H_    0.977360 0.480734 0.344259 0.174849
H2    H     H_    0.353759 0.275148 0.855308 0.183528
H3    H     H_    0.202540 0.312572 0.113201 0.128252
H4    H     H_    0.021892 0.536974 0.650085 0.192954
H5    H     H_    0.659223 0.900240 0.345502 0.151128
H6    H     H_    0.437662 0.831441 0.764078 0.186894
H7    H     H_    0.716863 0.598482 0.143599 0.144005
N1    N     N_R   0.498950 0.499140 0.142680 -0.104667
N2    N     N_R   0.498950 0.499180 0.857030 -0.126215
O1    O     O_R   0.500020 0.316790 0.614690 -0.638530
O2    O     O_R   0.500000 0.316760 0.385350 -0.618777
O3    O     O_R   0.271760 0.500010 0.587850 -0.623349
O4    O     O_R   0.271740 0.499970 0.358500 -0.629283
O5    O     O_R   0.500000 0.683240 0.614650 -0.630531
O6    O     O_R   0.499980 0.683210 0.385310 -0.619033
O7    O     O_R   0.728260 0.500030 0.641500 -0.640364
O8    O     O_R   0.728240 0.499990 0.412150 -0.621515
Zn1   Zn    Zn3+2 0.500010 0.500020 0.653130 0.911044
Zn2   Zn    Zn3+2 0.499990 0.499980 0.346870 0.933017
H8    H     H_    0.719050 0.595407 0.892939 0.150134
N3    N     N_2   0.122867 0.344687 0.846364 -0.300672
H9    H     H_    0.107925 0.346254 0.741720 0.254457
C21   C     C_3   0.010370 0.416053 0.905811 -0.840213
H10   H     H_    0.896770 0.415696 0.839207 0.267379
H11   H     H_    0.052845 0.513404 0.918453 0.239326
H12   H     H_    0.984475 0.372349 0.004340 0.235589
N4    N     N_2   0.421475 0.224780 0.111075 -0.291488
H13   H     H_    0.396209 0.172883 0.196234 0.249180
C22   C     C_3   0.587131 0.236074 0.094168 -0.729919
H14   H     H_    0.637497 0.141834 0.100200 0.231176
H15   H     H_    0.652251 0.289795 0.176374 0.251799
H16   H     H_    0.604868 0.281684 0.994366 0.230278
H17   H     H_    0.673659 0.125545 0.365510 0.155948
N5    N     N_2   0.189490 0.843107 0.698150 -0.292724
H18   H     H_    0.128934 0.829508 0.603006 0.235523
C23   C     C_3   0.167053 0.742350 0.796772 -0.836549
H19   H     H_    0.039192 0.723201 0.797659 0.231846
H20   H     H_    0.219479 0.766974 0.900455 0.247539
H21   H     H_    0.223691 0.657897 0.769493 0.275998
N6    N     N_2   0.227672 0.087142 0.758343 -0.309497
H22   H     H_    0.137316 0.096955 0.679213 0.218868
C24   C     C_3   0.174993 0.047131 0.887956 -0.729839
H23   H     H_    0.107040 0.121046 0.924657 0.247990
H24   H     H_    0.275822 0.024228 0.966691 0.262424
H25   H     H_    0.092882 0.966194 0.876444 0.251317
N7    N     N_2   0.509859 0.067455 0.818699 -0.289687
H26   H     H_    0.537581 0.160534 0.807861 0.248161
C25   C     C_3   0.651445 0.994284 0.834547 -0.853204
H27   H     H_    0.751272 0.048311 0.887452 0.241436
H28   H     H_    0.683391 0.971039 0.734195 0.256802
H29   H     H_    0.635872 0.908584 0.899391 0.242077

loop_
_geom_bond_atom_site_label_1
_geom_bond_atom_site_label_2
_ccdc_geom_bond_type
N2    Zn1   S    
C14   O5    A    
C7    C10   A    
N7    C25   S    
C21   H10   S    
C16   H1    S    
O3    Zn1   S    
C5    H6    S    
C21   H11   S    
N3    H9    S    
C5    N5    S    
C11   H2    S    
O6    Zn2   S    
C19   C20   A    
N1    Zn2   S    
C23   H21   S    
C9    N2    A    
C22   H16   S    
C4    C18   A    
O7    Zn1   S    
C2    C3    A    
C8    C9    A    
N4    C22   S    
O4    Zn2   S    
C8    H7    S    
C12   O3    A    
C18   C19   A    
N3    C21   S    
C10   N2    A    
O1    Zn1   S    
C6    N7    S    
C24   H23   S    
C3    C14   S    
C25   H29   S    
C6    C18   S    
C20   H17   S    
N6    C24   S    
C1    O1    A    
C23   H20   S    
C11   N3    S    
C2    H5    S    
C1    O2    A    
C5    C6    S    
C8    N1    A    
C21   H12   S    
N5    C23   S    
C1    C19   S    
C17   H4    S    
C16   C17   D    
C10   C11   S    
C2    C20   A    
C3    C4    A    
N4    H13   S    
C6    N6    S    
C15   O7    A    
C11   C13   S    
N7    H26   S    
C23   H19   S    
C13   H3    S    
O8    Zn2   S    
C22   H14   S    
C14   O6    A    
C15   C17   S    
C25   H28   S    
N5    H18   S    
C4    C5    S    
C24   H24   S    
C7    C13   S    
C24   H25   S    
C12   O4    A    
O5    Zn1   S    
C13   N4    S    
C25   H27   S    
C9    H8    S    
C15   O8    A    
C7    N1    A    
C12   C16   S    
O2    Zn2   S    
N6    H22   S    
C22   H15   S    
