data_mof_unit_42295.cif
_audit_creation_date              2012-12-11T14:21:03-0500
_audit_creation_method            fapswitch 2.2
_symmetry_space_group_name_H-M    P1
_symmetry_Int_Tables_number       1
_space_group_crystal_system       triclinic
_cell_length_a                    21.942163
_cell_length_b                    7.204976
_cell_length_c                    14.921099
_cell_angle_alpha                 89.995642
_cell_angle_beta                  106.951423
_cell_angle_gamma                 89.99893
_cell_volume                      2256.42811789

loop_
_atom_site_label
_atom_site_type_symbol
_atom_type_description
_atom_site_fract_x
_atom_site_fract_y
_atom_site_fract_z
_atom_type_partial_charge
O1    O     O_R   0.584770 0.505770 0.002090 -0.542090
O2    O     O_R   0.415230 0.005770 0.997910 -0.542111
O3    O     O_R   0.467060 0.173340 0.861950 -0.536581
O4    O     O_R   0.532940 0.673340 0.138050 -0.536566
C1    C     C_R   0.455280 0.344201 0.825947 0.680428
C2    C     C_R   0.544717 0.844182 0.174054 0.680427
O5    O     O_R   0.587510 0.175890 0.993210 -0.540513
O6    O     O_R   0.412490 0.675890 0.006790 -0.540488
O7    O     O_R   0.536540 0.008150 0.130100 -0.534371
O8    O     O_R   0.463460 0.508150 0.869900 -0.534354
C3    C     C_R   0.612817 0.345360 0.996644 0.741195
C4    C     C_R   0.387183 0.845361 0.003356 0.741217
O9    O     O_3   0.483140 0.340040 0.044760 -0.374328
O10   O     O_3   0.516860 0.840040 0.955240 -0.374338
V1    V     V_3+5 0.503130 0.064190 0.991700 1.471576
V2    V     V_3+5 0.496870 0.564190 0.008300 1.471697
C5    C     C_2   0.222905 0.744333 0.042365 0.030458
C6    C     C_2   0.777092 0.244377 0.957615 0.030456
C7    C     C_2   0.181204 0.880719 0.999732 -0.310414
C8    C     C_2   0.818796 0.380724 0.000267 -0.310378
H1    H     H_    0.195606 0.983728 0.956943 0.109493
H2    H     H_    0.804396 0.483690 0.043072 0.109492
C9    C     C_2   0.286807 0.722062 0.026626 -0.208929
C10   C     C_2   0.713190 0.222086 0.973350 -0.209030
C11   C     C_2   0.320940 0.864226 0.008199 -0.281946
C12   C     C_2   0.679061 0.364227 0.991806 -0.281855
H3    H     H_    0.308640 0.585384 0.038535 0.144367
H4    H     H_    0.691352 0.085423 0.961414 0.144330
H5    H     H_    0.301517 0.003727 0.002358 0.138410
H6    H     H_    0.698486 0.503721 0.997671 0.138433
C13   C     C_R   0.927291 0.888914 0.723935 -0.102321
C14   C     C_R   0.072707 0.388880 0.276066 -0.102337
C15   C     C_R   0.572908 0.850789 0.275564 -0.036257
C16   C     C_R   0.427079 0.350925 0.724440 -0.036246
C17   C     C_R   0.937389 0.933680 0.568467 0.466574
C18   C     C_R   0.062591 0.433584 0.431529 0.466599
C19   C     C_R   0.964843 0.924814 0.665115 -0.183216
C20   C     C_R   0.035143 0.424702 0.334880 -0.183207
C21   C     C_R   0.861741 0.863305 0.686719 -0.149507
C22   C     C_R   0.138264 0.363419 0.313292 -0.149528
C23   C     C_R   0.831437 0.880373 0.589349 0.052135
C24   C     C_R   0.168559 0.380598 0.410656 0.052102
C25   C     C_R   0.870686 0.912681 0.529869 0.041469
C26   C     C_R   0.129298 0.412688 0.470136 0.041459
C27   C     C_R   0.763623 0.868349 0.549606 0.022087
C28   C     C_R   0.236379 0.368871 0.450393 0.022046
C29   C     C_R   0.736238 0.880713 0.450452 0.064248
C30   C     C_R   0.263751 0.380925 0.549555 0.064251
C31   C     C_R   0.777365 0.909373 0.394407 -0.181029
C32   C     C_R   0.222615 0.409340 0.605607 -0.181038
C33   C     C_R   0.842683 0.925570 0.433243 -0.111939
C34   C     C_R   0.157293 0.425481 0.566767 -0.111934
C35   C     C_R   0.722301 0.848333 0.606041 -0.197684
C36   C     C_R   0.277717 0.349597 0.393940 -0.197707
C37   C     C_R   0.656629 0.835517 0.567828 0.365013
C38   C     C_R   0.343400 0.337135 0.432146 0.364990
C39   C     C_R   0.629086 0.841905 0.470387 0.032952
C40   C     C_R   0.370930 0.343040 0.529599 0.032944
C41   C     C_R   0.668623 0.865301 0.410556 0.033536
C42   C     C_R   0.331369 0.365618 0.589449 0.033544
C43   C     C_R   0.562549 0.824409 0.431407 -0.073179
C44   C     C_R   0.437482 0.325926 0.568571 -0.073164
C45   C     C_R   0.534905 0.827509 0.334865 -0.134490
C46   C     C_R   0.465116 0.328607 0.665120 -0.134448
C47   C     C_R   0.638769 0.870158 0.312582 -0.178357
C48   C     C_R   0.361200 0.369830 0.687434 -0.178376
H7    H     H_    0.871071 0.949328 0.385974 0.181629
H8    H     H_    0.128896 0.449097 0.614035 0.181622
H9    H     H_    0.665030 0.884033 0.262266 0.092649
H10   H     H_    0.334909 0.382862 0.737756 0.092603
H11   H     H_    0.483809 0.810846 0.306323 0.146775
H12   H     H_    0.516229 0.312372 0.693651 0.146720
H13   H     H_    0.015665 0.946298 0.694583 0.143963
H14   H     H_    0.984317 0.446111 0.305404 0.143959
H15   H     H_    0.836059 0.833550 0.736452 0.129146
H16   H     H_    0.163961 0.333609 0.263582 0.129187
H17   H     H_    0.760843 0.923116 0.319445 0.118658
H18   H     H_    0.239139 0.423081 0.680569 0.118672
H19   H     H_    0.739213 0.844613 0.681283 0.164421
H20   H     H_    0.260807 0.346378 0.318690 0.164547
H21   H     H_    0.531254 0.806068 0.474896 0.188595
H22   H     H_    0.468800 0.308279 0.525066 0.188582
O11   O     O_R   0.036450 0.233070 0.130130 -0.543004
O12   O     O_R   0.963550 0.733070 0.869870 -0.542999
O13   O     O_R   0.912470 0.560570 0.006790 -0.554310
O14   O     O_R   0.087530 0.060570 0.993210 -0.554310
C49   C     C_R   0.886345 0.391634 0.999449 0.771595
C50   C     C_R   0.113655 0.891631 0.000550 0.771586
O15   O     O_R   0.032920 0.562940 0.138050 -0.520981
O16   O     O_R   0.967080 0.062940 0.861950 -0.520983
O17   O     O_R   0.084790 0.730500 0.002090 -0.522093
O18   O     O_R   0.915210 0.230500 0.997910 -0.522085
C51   C     C_R   0.044678 0.394545 0.174508 0.730369
C52   C     C_R   0.955324 0.894557 0.825492 0.730354
O19   O     O_3   0.016820 0.396170 0.955260 -0.382498
O20   O     O_3   0.983180 0.896170 0.044740 -0.382497
V3    V     V_3+5 0.996880 0.672090 0.008300 1.497823
V4    V     V_3+5 0.003120 0.172090 0.991700 1.497838
C53   C     C_2   0.208878 0.609594 0.109177 0.412480
H23   H     H_    0.230654 0.472948 0.117263 0.028453
O21   O     O_2   0.176627 0.653362 0.160080 -0.531230
C54   C     C_2   0.791117 0.109700 0.890783 0.412492
H24   H     H_    0.769325 0.973083 0.882661 0.028450
O22   O     O_2   0.823386 0.153490 0.839906 -0.531169
Cl1   Cl    Cl    0.610647 0.810975 0.646624 -0.675969
Cl2   Cl    Cl    0.389410 0.313689 0.353329 -0.676010
Cl3   Cl    Cl    0.988715 0.976397 0.499054 -0.593361
Cl4   Cl    Cl    0.011254 0.476258 0.500930 -0.593340

loop_
_geom_bond_atom_site_label_1
_geom_bond_atom_site_label_2
_ccdc_geom_bond_type
C40   C44   A    
C18   Cl4   S    
O1    C3    A    
C46   H12   S    
O2    C4    A    
C16   C48   A    
C2    O7    A    
O19   V4    S    
C15   C47   A    
C29   C31   A    
O5    C3    A    
C5    C9    S    
C37   Cl1   S    
C6    C10   S    
O12   V3    S    
C7    H1    S    
C10   C12   D    
C24   C28   A    
O14   C50   A    
C39   C41   A    
C40   C42   A    
O11   C51   A    
C8    C49   S    
C6    C54   S    
C27   C29   A    
C43   C45   A    
C44   C46   A    
C31   H17   S    
C31   C33   A    
O11   V4    S    
C32   C34   A    
C30   C42   A    
C14   C20   A    
C17   C25   A    
C34   H8    S    
O6    C4    A    
C26   C34   A    
C30   C32   A    
C14   C51   S    
C44   H22   S    
C42   C48   A    
O6    V2    S    
C49   O18   A    
O20   V3    S    
C23   C25   A    
C24   C26   A    
C32   H18   S    
O16   C52   A    
C36   H20   S    
C9    H3    S    
C35   C37   A    
C11   H5    S    
C36   C38   A    
O13   C49   A    
O18   V4    S    
C17   Cl3   S    
O4    C2    A    
C7    C50   S    
C33   H7    S    
O5    V1    S    
C3    C12   S    
C27   C35   A    
C22   H16   S    
O15   V3    S    
O4    V2    S    
C53   H23   S    
C50   O17   A    
C15   C45   A    
C1    C16   S    
C28   C36   A    
C16   C46   A    
O1    V2    S    
O12   C52   A    
O17   V3    S    
C54   O22   D    
O2    V1    S    
C5    C53   S    
C38   Cl2   S    
C53   O21   D    
C45   H11   S    
C12   H6    S    
C21   H15   S    
C37   C39   A    
C18   C26   A    
C14   C22   A    
O3    V1    S    
C17   C19   A    
C20   H14   S    
C19   H13   S    
C35   H19   S    
C10   H4    S    
C8    H2    S    
O3    C1    A    
C39   C43   A    
C13   C52   S    
C2    C15   S    
C4    C11   S    
C18   C20   A    
O7    V1    S    
C1    O8    A    
C43   H21   S    
C41   C47   A    
C25   C33   A    
C48   H10   S    
C47   H9    S    
C22   C24   A    
C5    C7    D    
C38   C40   A    
C6    C8    D    
C9    C11   D    
O15   C51   A    
C54   H24   S    
O14   V4    S    
O13   V3    S    
C29   C41   A    
C28   C30   A    
C13   C19   A    
C21   C23   A    
O9    V2    S    
C13   C21   A    
C23   C27   A    
O10   V1    S    
O8    V2    S    
O16   V4    S    
