data_mof_unit_28272.cif
_audit_creation_date              2012-12-10T21:26:02-0500
_audit_creation_method            fapswitch 2.2
_symmetry_space_group_name_H-M    P1
_symmetry_Int_Tables_number       1
_space_group_crystal_system       triclinic
_cell_length_a                    8.591845
_cell_length_b                    16.116906
_cell_length_c                    16.631415
_cell_angle_alpha                 87.635698
_cell_angle_beta                  90.8877
_cell_angle_gamma                 101.018111
_cell_volume                      2258.57359565

loop_
_atom_site_label
_atom_site_type_symbol
_atom_type_description
_atom_site_fract_x
_atom_site_fract_y
_atom_site_fract_z
_atom_type_partial_charge
C1    C     C_R   0.503941 0.489173 0.653446 0.903095
C2    C     C_R   0.496310 0.510856 0.346552 0.911341
C3    C     C_R   0.424383 0.756814 0.460171 -0.009090
C4    C     C_R   0.575736 0.243204 0.539774 -0.011004
C5    C     C_R   0.428624 0.844356 0.462508 -0.256507
C6    C     C_R   0.571480 0.155660 0.537452 -0.259430
C7    C     C_R   0.532100 0.893467 0.516768 0.324643
C8    C     C_R   0.467861 0.106526 0.483266 0.323905
C9    C     C_R   0.627963 0.851765 0.566972 -0.276200
C10   C     C_R   0.371872 0.148209 0.433120 -0.269014
C11   C     C_R   0.619921 0.764163 0.562661 0.013283
C12   C     C_R   0.379933 0.235814 0.437414 0.019994
C13   C     C_R   0.800923 0.521916 0.501006 0.977125
C14   C     C_R   0.199077 0.478083 0.498999 0.975925
C15   C     C_2   0.966802 0.533861 0.501501 -0.372725
C16   C     C_2   0.033198 0.466138 0.498510 -0.372810
C17   C     C_R   0.527279 0.484073 0.740012 -0.088323
C18   C     C_R   0.474491 0.516185 0.259908 -0.110542
C19   C     C_R   0.601700 0.556579 0.779221 -0.304213
C20   C     C_R   0.400021 0.443966 0.220292 -0.282251
C21   C     C_R   0.622773 0.554089 0.862185 0.375568
C22   C     C_R   0.380575 0.446811 0.137216 0.450899
C23   C     C_R   0.563054 0.478377 0.906189 0.240494
C24   C     C_R   0.441920 0.522509 0.093588 0.220110
C25   C     C_R   0.498990 0.404671 0.866583 -0.173335
C26   C     C_R   0.506411 0.595903 0.133547 -0.157383
C27   C     C_R   0.481281 0.407299 0.783476 -0.229754
C28   C     C_R   0.522442 0.592971 0.216723 -0.226005
H1    H     H_    0.033858 0.598206 0.504285 0.182652
H2    H     H_    0.966141 0.401793 0.495726 0.182979
H3    H     H_    0.357247 0.385294 0.254052 0.198474
H4    H     H_    0.643036 0.615271 0.745230 0.191961
H5    H     H_    0.454922 0.346393 0.900600 0.206207
H6    H     H_    0.551880 0.654168 0.099816 0.230668
H7    H     H_    0.426574 0.350401 0.753650 0.177035
H8    H     H_    0.577368 0.649633 0.246853 0.183539
H9    H     H_    0.655313 0.280557 0.581355 0.138084
H10   H     H_    0.344910 0.719478 0.418537 0.139601
H11   H     H_    0.648471 0.127203 0.577628 0.163019
H12   H     H_    0.351736 0.872829 0.422284 0.164751
H13   H     H_    0.708867 0.887081 0.609433 0.162816
H14   H     H_    0.290854 0.112875 0.390718 0.165486
H15   H     H_    0.694349 0.732755 0.601703 0.140946
H16   H     H_    0.305401 0.267206 0.398421 0.142892
N1    N     N_2   0.548941 0.477430 0.989951 -0.090475
N2    N     N_2   0.456537 0.523703 0.009851 -0.081695
N3    N     N_R   0.519180 0.718290 0.509780 -0.093767
N4    N     N_R   0.480820 0.281710 0.490220 -0.094484
N5    N     N_2   0.544257 0.983247 0.523210 -0.176260
N6    N     N_2   0.455700 0.016746 0.476831 -0.174859
O1    O     O_R   0.493140 0.422050 0.612640 -0.624964
O2    O     O_R   0.506860 0.577950 0.387360 -0.623967
O3    O     O_R   0.505450 0.562230 0.618920 -0.620903
O4    O     O_R   0.494550 0.437770 0.381080 -0.617771
O5    O     O_R   0.723530 0.446300 0.497600 -0.615183
O6    O     O_R   0.276470 0.553700 0.502400 -0.615854
O7    O     O_R   0.735850 0.586490 0.503880 -0.626702
O8    O     O_R   0.264150 0.413510 0.496120 -0.627743
Zn1   Zn    Zn3+2 0.491780 0.406400 0.495810 0.955613
Zn2   Zn    Zn3+2 0.508220 0.593600 0.504190 0.953973
S1    S     S_3+6 0.283341 0.354923 0.089404 0.036805
O9    O     O_2   0.404466 0.303573 0.068068 -0.295189
O10   O     O_2   0.163776 0.302892 0.145338 -0.277937
O11   O     O_3   0.190614 0.381802 0.005227 -0.538823
H17   H     H_    0.154734 0.327998 0.977806 0.383490
S2    S     S_3+6 0.719120 0.646721 0.909292 0.047615
O12   O     O_2   0.806447 0.623724 0.983389 -0.239307
O13   O     O_2   0.835133 0.700187 0.852558 -0.283160
O14   O     O_3   0.583136 0.702734 0.935756 -0.526478
H18   H     H_    0.527210 0.713569 0.885004 0.359119

loop_
_geom_bond_atom_site_label_1
_geom_bond_atom_site_label_2
_ccdc_geom_bond_type
C13   O5    A    
S1    O11   S    
S2    O13   D    
C8    C10   A    
C11   H15   S    
C23   N1    S    
C14   C16   S    
O5    Zn1   S    
C21   S2    S    
C10   H14   S    
C9    C11   A    
C14   O6    A    
C11   N3    A    
C12   N4    A    
C24   N2    S    
O11   H17   S    
C13   C15   S    
S2    O12   D    
N3    Zn2   S    
C18   C28   A    
C12   H16   S    
N1    N2    D    
C22   S1    S    
C1    O1    A    
C28   H8    S    
S1    O9    D    
C2    O2    A    
C27   H7    S    
C19   H4    S    
C10   C12   A    
C3    N3    A    
C26   C28   A    
C19   C21   A    
O3    Zn2   S    
C24   C26   A    
C15   H1    S    
C18   C20   A    
O4    Zn1   S    
C23   C25   A    
C21   C23   A    
C2    O4    A    
O14   H18   S    
C14   O8    A    
N5    N6    D    
C22   C24   A    
S2    O14   S    
C25   C27   A    
C1    C17   S    
C16   H2    S    
C15   C16   D    
C17   C27   A    
C8    N6    S    
C13   O7    A    
O1    Zn1   S    
C4    H9    S    
C7    N5    S    
N4    Zn1   S    
C7    C9    A    
C4    C6    A    
C4    N4    A    
C5    H12   S    
C25   H5    S    
C5    C7    A    
C1    O3    A    
C6    H11   S    
O7    Zn2   S    
C6    C8    A    
O2    Zn2   S    
C17   C19   A    
O8    Zn1   S    
C9    H13   S    
C26   H6    S    
S1    O10   D    
O6    Zn2   S    
C3    H10   S    
C20   C22   A    
C2    C18   S    
C3    C5    A    
C20   H3    S    
