data_mof_unit_48456.cif
_audit_creation_date              2012-12-10T18:09:50-0500
_audit_creation_method            fapswitch 2.2
_symmetry_space_group_name_H-M    P1
_symmetry_Int_Tables_number       1
_space_group_crystal_system       triclinic
_cell_length_a                    10.628714
_cell_length_b                    12.58847
_cell_length_c                    13.069072
_cell_angle_alpha                 82.161158
_cell_angle_beta                  90.406646
_cell_angle_gamma                 102.536779
_cell_volume                      1690.53073904

loop_
_atom_site_label
_atom_site_type_symbol
_atom_type_description
_atom_site_fract_x
_atom_site_fract_y
_atom_site_fract_z
_atom_type_partial_charge
C1    C     C_R   0.488931 0.438578 0.691434 0.859906
C2    C     C_R   0.502393 0.446681 0.974224 0.035485
C3    C     C_R   0.547929 0.463585 0.871450 0.099846
C4    C     C_R   0.741682 0.500040 0.501398 0.907658
C5    C     C_R   0.549226 0.529170 0.036918 0.062169
C6    C     C_R   0.655780 0.616689 0.002911 0.062106
C7    C     C_R   0.711923 0.621669 0.905531 -0.226026
C8    C     C_R   0.658067 0.546703 0.840285 -0.216117
C9    C     C_R   0.491234 0.527329 0.132240 -0.268464
C10   C     C_R   0.652980 0.683893 0.168077 -0.292082
C11   C     C_R   0.480106 0.398318 0.801482 -0.176141
C12   C     C_3   0.121155 0.498003 0.504338 -0.024442
C13   C     C_R   0.321908 0.088469 0.345840 -0.298666
C14   C     C_R   0.653228 0.799460 0.629542 -0.014205
C15   C     C_R   0.686393 0.904586 0.658092 0.143068
C16   C     C_R   0.516829 0.561254 0.308633 0.942740
C17   C     C_R   0.627632 0.986097 0.608461 -0.259255
C18   C     C_R   0.537182 0.962833 0.530207 -0.013831
C19   C     C_R   0.508472 0.854856 0.504035 0.203332
C20   C     C_R   0.474289 0.042050 0.477055 0.005430
C21   C     C_R   0.384957 0.011777 0.398951 0.177683
C22   C     C_R   0.359695 0.905436 0.374237 -0.283262
C23   C     C_3   0.075318 0.502082 0.390272 0.254333
C24   C     C_R   0.421016 0.828389 0.425846 -0.192382
C25   C     C_R   0.496044 0.150850 0.497896 -0.079299
C26   C     C_R   0.347799 0.194508 0.370285 0.013066
C27   C     C_R   0.258120 0.498713 0.502589 0.902929
C28   C     C_3   0.899427 0.394617 0.572468 -0.433738
C29   C     C_3   0.043870 0.390941 0.571586 -0.070764
C30   C     C_3   0.931244 0.508991 0.389904 0.318367
C31   C     C_3   0.953688 0.599533 0.552076 -0.516998
C32   C     C_3   0.877923 0.499311 0.503015 -0.020081
C33   C     C_3   0.154326 0.579957 0.224725 -0.315488
C34   C     C_3   0.097215 0.600953 0.549415 -0.373228
C35   C     C_3   0.784737 0.883067 0.038841 -0.353439
C36   C     C_3   0.272247 0.088718 0.935051 -0.340242
C37   C     C_3   0.781608 0.928711 0.742517 -0.429900
C38   C     C_3   0.917536 0.924947 0.708669 -0.865316
C39   C     C_3   0.093500 0.371979 0.683462 -0.352412
C40   C     C_3   0.039682 0.254958 0.736690 -0.892699
C41   C     C_3   0.844638 0.329966 0.341447 -0.265325
C42   C     C_R   0.704587 0.696988 0.067275 0.531643
C43   C     C_R   0.548106 0.597644 0.200130 -0.119826
C44   C     C_R   0.388482 0.302462 0.837283 -0.347587
C45   C     C_R   0.358673 0.273564 0.943322 0.596869
C46   C     C_R   0.411727 0.348157 0.010078 -0.272110
H1    H     H_    0.841025 0.317939 0.548912 0.169314
H2    H     H_    0.704060 0.553583 0.765313 0.142464
H3    H     H_    0.300521 0.255363 0.329913 0.125388
H4    H     H_    0.292245 0.881579 0.314499 0.174724
H5    H     H_    0.253767 0.066683 0.286027 0.158503
H6    H     H_    0.561981 0.182013 0.555116 0.124620
H7    H     H_    0.696822 0.734833 0.667008 0.138916
H8    H     H_    0.654805 0.066401 0.632265 0.130747
H9    H     H_    0.398229 0.748628 0.402494 0.237088
H10   H     H_    0.054725 0.319422 0.533477 0.158878
H11   H     H_    0.089585 0.425766 0.362201 0.082276
H12   H     H_    0.147966 0.678025 0.501177 0.228526
H13   H     H_    0.938180 0.678319 0.509328 0.199773
H14   H     H_    0.920249 0.595302 0.633437 0.190947
H15   H     H_    0.135692 0.603564 0.628622 0.177981
H16   H     H_    0.055876 0.562012 0.192842 0.207204
H17   H     H_    0.204657 0.513061 0.215314 0.149859
H18   H     H_    0.209695 0.656432 0.179163 0.191779
H19   H     H_    0.691234 0.890211 0.002438 0.150725
H20   H     H_    0.861387 0.946155 0.994453 0.204187
H21   H     H_    0.785761 0.902006 0.119441 0.176757
H22   H     H_    0.373084 0.081541 0.920637 0.159530
H23   H     H_    0.929813 0.594808 0.355693 0.143592
H24   H     H_    0.217737 0.090644 0.862238 0.167378
H25   H     H_    0.224453 0.013550 0.986673 0.201717
H26   H     H_    0.921067 0.841472 0.691874 0.248815
H27   H     H_    0.948913 0.985526 0.638613 0.260877
H28   H     H_    0.985472 0.945795 0.771539 0.254381
H29   H     H_    0.783930 0.011269 0.764762 0.205235
H30   H     H_    0.751015 0.867608 0.812234 0.219834
H31   H     H_    0.932774 0.236923 0.741623 0.257432
H32   H     H_    0.070807 0.194483 0.693664 0.256146
H33   H     H_    0.076723 0.245525 0.816315 0.272000
H34   H     H_    0.699566 0.736085 0.222917 0.165316
H35   H     H_    0.200068 0.385062 0.682906 0.202046
H36   H     H_    0.067093 0.431068 0.730864 0.213490
H37   H     H_    0.747064 0.287691 0.372266 0.205443
H38   H     H_    0.916731 0.303264 0.394207 0.103749
H39   H     H_    0.857541 0.300478 0.266843 0.177855
H40   H     H_    0.795833 0.684789 0.878351 0.188780
H41   H     H_    0.404969 0.467273 0.158605 0.142669
H42   H     H_    0.336640 0.253466 0.782179 0.174153
H43   H     H_    0.383308 0.324734 0.090497 0.155605
H44   H     H_    0.863775 0.395952 0.652132 0.180712
N1    N     N_R   0.433240 0.222190 0.444680 -0.102709
N2    N     N_R   0.566070 0.776970 0.554790 -0.146869
O1    O     O_R   0.468120 0.366740 0.627160 -0.621814
O2    O     O_3   0.812323 0.778873 0.035348 -0.619450
O3    O     O_3   0.267100 0.180925 0.984188 -0.616711
O4    O     O_3   0.852236 0.444568 0.322025 -0.616630
O5    O     O_R   0.510770 0.544830 0.662520 -0.613952
O6    O     O_R   0.663880 0.410950 0.482330 -0.603009
O7    O     O_R   0.706530 0.589040 0.517700 -0.646264
O8    O     O_R   0.489230 0.455170 0.337480 -0.599991
O9    O     O_R   0.531880 0.633260 0.372840 -0.637889
O10   O     O_R   0.293470 0.410960 0.482300 -0.646746
O11   O     O_R   0.336120 0.589050 0.517670 -0.627238
O12   O     O_3   0.150620 0.596441 0.329211 -0.636953
Zn1   Zn    Zn3+2 0.471520 0.381090 0.476390 0.935135
Zn2   Zn    Zn3+2 0.528480 0.618910 0.523610 0.920374

loop_
_geom_bond_atom_site_label_1
_geom_bond_atom_site_label_2
_ccdc_geom_bond_type
C28   H1    S    
C4    O6    A    
C12   C29   S    
C10   C42   A    
C33   O12   S    
N1    Zn1   S    
C1    C11   S    
C7    C8    A    
C46   H43   S    
C45   C46   A    
C2    C46   A    
C24   H9    S    
C12   C23   S    
O8    Zn1   S    
O6    Zn1   S    
C28   C29   S    
C5    C6    A    
C41   O4    S    
C20   C25   A    
C35   H19   S    
C41   H37   S    
O10   Zn1   S    
C23   H11   S    
C18   C19   A    
C31   H13   S    
C15   C37   S    
C30   O4    S    
C19   N2    A    
O1    Zn1   S    
C13   H5    S    
C23   O12   S    
C33   H16   S    
C18   C20   A    
C36   H25   S    
C22   H4    S    
C37   H29   S    
C21   C22   A    
C36   H24   S    
C38   H26   S    
C9    C43   A    
C25   N1    A    
C12   C27   S    
C23   C30   S    
C28   C32   S    
C39   H35   S    
C3    C8    A    
C26   H3    S    
C1    O5    A    
C39   C40   S    
C10   H34   S    
C16   O8    A    
C35   H20   S    
C26   N1    A    
C41   H38   S    
C34   H15   S    
C31   H14   S    
C8    H2    S    
C5    C9    A    
C37   C38   S    
C31   C32   S    
C14   C15   A    
C35   H21   S    
C33   H17   S    
C29   C39   S    
C17   C18   A    
C40   H33   S    
C13   C21   A    
C11   C44   A    
C16   C43   S    
C14   N2    A    
C4    C32   S    
O5    Zn2   S    
N2    Zn2   S    
C37   H30   S    
C40   H32   S    
C13   C26   A    
C2    C5    A    
C12   C34   S    
C45   O3    S    
C30   H23   S    
C31   C34   S    
C44   C45   A    
C38   H28   S    
C35   O2    S    
O9    Zn2   S    
C15   C17   A    
O7    Zn2   S    
C10   C43   A    
C42   O2    S    
C39   H36   S    
C36   H22   S    
C6    C7    A    
C29   H10   S    
C41   H39   S    
C27   O10   A    
C2    C3    A    
C25   H6    S    
C9    H41   S    
C30   C32   S    
C36   O3    S    
C33   H18   S    
C27   O11   A    
C19   C24   A    
O11   Zn2   S    
C22   C24   A    
C3    C11   A    
C7    H40   S    
C16   O9    A    
C14   H7    S    
C20   C21   A    
C1    O1    A    
C6    C42   A    
C4    O7    A    
C34   H12   S    
C40   H31   S    
C28   H44   S    
C44   H42   S    
C17   H8    S    
C38   H27   S    
