data_mof_unit_18086.cif
_audit_creation_date              2013-03-05T15:47:34-0500
_audit_creation_method            fapswitch 2.2
_symmetry_space_group_name_H-M    P1
_symmetry_Int_Tables_number       1
_space_group_crystal_system       triclinic
_cell_length_a                    7.236125
_cell_length_b                    15.005575
_cell_length_c                    22.457859
_cell_angle_alpha                 89.976519
_cell_angle_beta                  89.917776
_cell_angle_gamma                 90.000746
_cell_volume                      2438.52138973

loop_
_atom_site_label
_atom_site_type_symbol
_atom_site_description
_atom_site_fract_x
_atom_site_fract_y
_atom_site_fract_z
_atom_type_partial_charge
O1    O     O_R   0.390810 0.844810 0.447340 -0.599270
O2    O     O_R   0.109190 0.155190 0.947340 -0.589671
O3    O     O_R   0.890810 0.655190 0.552660 -0.599103
O4    O     O_R   0.609190 0.344810 0.052660 -0.589939
O5    O     O_R   0.720550 0.655820 0.440420 -0.546636
O6    O     O_R   0.779450 0.344180 0.940420 -0.600212
O7    O     O_R   0.220550 0.844180 0.559580 -0.545765
O8    O     O_R   0.279450 0.155820 0.059580 -0.600817
C1    C     C_R   0.551737 0.627334 0.425581 1.050888
C2    C     C_R   0.946652 0.374768 0.926788 1.036274
C3    C     C_R   0.051565 0.872709 0.574389 1.049301
C4    C     C_R   0.446449 0.125207 0.073208 1.034897
O9    O     O_R   0.720530 0.844130 0.440420 -0.583993
O10   O     O_R   0.779470 0.155870 0.940420 -0.586446
O11   O     O_R   0.220530 0.655870 0.559580 -0.583349
O12   O     O_R   0.279470 0.344130 0.059580 -0.585630
O13   O     O_R   0.890830 0.844810 0.552660 -0.586695
O14   O     O_R   0.609170 0.155190 0.052660 -0.526155
O15   O     O_R   0.390830 0.655190 0.447340 -0.585364
O16   O     O_R   0.109170 0.344810 0.947340 -0.526472
C5    C     C_R   0.552808 0.873544 0.425914 1.032616
C6    C     C_R   0.947922 0.126210 0.926300 1.014584
C7    C     C_R   0.052620 0.626497 0.574111 1.032842
C8    C     C_R   0.447763 0.373750 0.073706 1.014491
O17   O     O_3   0.557310 0.749980 0.536820 -0.283112
O18   O     O_3   0.942690 0.250020 0.036820 -0.273529
O19   O     O_3   0.057310 0.750020 0.463180 -0.282840
O20   O     O_3   0.442690 0.249980 0.963180 -0.273549
V1    V     V_3+5 0.832160 0.749980 0.493170 1.291120
V2    V     V_3+5 0.667840 0.250020 0.993170 1.298014
V3    V     V_3+5 0.332160 0.750020 0.506830 1.291680
V4    V     V_3+5 0.167840 0.249980 0.006830 1.298618
C9    C     C_R   0.737915 0.567157 0.845877 0.941276
C10   C     C_R   0.394312 0.408787 0.364098 0.942712
C11   C     C_R   0.234820 0.934288 0.155037 0.941591
C12   C     C_R   0.886824 0.089732 0.636199 0.942927
H1    H     H_    0.710992 0.509072 0.931583 0.243247
H2    H     H_    0.440687 0.463987 0.450555 0.230995
H3    H     H_    0.206352 0.992749 0.069634 0.245142
H4    H     H_    0.933835 0.034875 0.549674 0.231514
C13   C     C_R   0.938328 0.450855 0.884044 -0.403468
C14   C     C_R   0.534786 0.552523 0.382775 -0.405102
C15   C     C_R   0.437290 0.049264 0.116073 -0.406375
C16   C     C_R   0.033836 0.947569 0.617159 -0.404410
C17   C     C_R   0.146223 0.469856 0.597663 0.297333
C18   C     C_R   0.497175 0.537330 0.089610 0.282285
C19   C     C_R   0.648394 0.029716 0.402022 0.298566
C20   C     C_R   0.001651 0.962932 0.910346 0.284175
C21   C     C_R   0.193913 0.406510 0.640521 -0.260309
C22   C     C_R   0.517477 0.610481 0.127510 -0.254347
C23   C     C_R   0.700057 0.091901 0.358874 -0.259553
C24   C     C_R   0.024206 0.889891 0.872455 -0.254248
C25   C     C_R   0.142107 0.414331 0.700146 0.367818
C26   C     C_R   0.500238 0.602704 0.189236 0.398377
C27   C     C_R   0.649854 0.083651 0.299186 0.364943
C28   C     C_R   0.005573 0.897401 0.810773 0.398571
C29   C     C_R   0.037925 0.489831 0.719582 0.052285
C30   C     C_R   0.478180 0.517391 0.215774 0.027558
C31   C     C_R   0.541120 0.009409 0.280121 0.054912
C32   C     C_R   0.979422 0.982452 0.784282 0.027836
C33   C     C_R   0.983861 0.553610 0.674906 -0.041657
C34   C     C_R   0.436234 0.444303 0.177042 -0.065221
C35   C     C_R   0.484955 0.946335 0.325082 -0.040012
C36   C     C_R   0.934901 0.055139 0.823088 -0.065192
C37   C     C_R   0.972644 0.501795 0.780045 -0.177743
C38   C     C_R   0.483104 0.502740 0.279286 -0.179488
C39   C     C_R   0.473761 0.997937 0.219884 -0.178508
C40   C     C_R   0.982303 0.997033 0.720760 -0.178313
C41   C     C_R   0.823383 0.562261 0.789777 -0.409199
C42   C     C_R   0.404134 0.422744 0.302142 -0.438154
C43   C     C_R   0.322262 0.938523 0.210741 -0.408483
C44   C     C_R   0.898550 0.075961 0.698113 -0.437444
C45   C     C_R   0.760425 0.616845 0.743460 0.965596
C46   C     C_R   0.337035 0.357664 0.262869 0.965428
C47   C     C_R   0.259068 0.884213 0.257209 0.964746
C48   C     C_R   0.828371 0.140120 0.737554 0.966959
C49   C     C_R   0.849214 0.617333 0.688851 -0.254129
C50   C     C_R   0.363187 0.366111 0.201793 -0.248595
C51   C     C_R   0.348649 0.883337 0.311538 -0.253665
C52   C     C_R   0.856793 0.132256 0.798536 -0.248047
C53   C     C_R   0.042998 0.455081 0.831150 0.859795
C54   C     C_R   0.563706 0.563551 0.321199 0.806691
C55   C     C_R   0.543749 0.044174 0.168453 0.860439
C56   C     C_R   0.064928 0.937050 0.678638 0.808052
C57   C     C_R   0.790679 0.509836 0.891005 -0.324312
C58   C     C_R   0.455333 0.474009 0.403314 -0.317055
C59   C     C_R   0.287645 0.991333 0.109773 -0.320475
C60   C     C_R   0.950275 0.025180 0.596851 -0.317822
C61   C     C_R   0.053209 0.548202 0.615529 -0.294406
C62   C     C_R   0.457042 0.452647 0.114079 -0.289434
C63   C     C_R   0.554075 0.951723 0.384398 -0.294323
C64   C     C_R   0.957865 0.047211 0.885963 -0.289619
H5    H     H_    0.263121 0.345945 0.626716 0.234631
H6    H     H_    0.532270 0.676339 0.108317 0.228655
H7    H     H_    0.771977 0.151853 0.372386 0.233447
H8    H     H_    0.041775 0.824218 0.891672 0.228969
H9    H     H_    0.799342 0.664044 0.656022 0.172079
H10   H     H_    0.317826 0.311702 0.173775 0.158684
H11   H     H_    0.297972 0.837002 0.344512 0.172213
H12   H     H_    0.808972 0.186080 0.826666 0.161419
F1    F     F_    0.612038 0.671266 0.750745 -0.581291
F2    F     F_    0.250270 0.283436 0.283391 -0.593200
F3    F     F_    0.109501 0.830455 0.250365 -0.581830
F4    F     F_    0.736146 0.212899 0.717266 -0.591058
F5    F     F_    0.594933 0.623601 0.856602 -0.564473
F6    F     F_    0.321414 0.332938 0.387313 -0.569840
F7    F     F_    0.089747 0.878905 0.144885 -0.563925
F8    F     F_    0.809541 0.164643 0.613166 -0.569322
F9    F     F_    0.214063 0.418140 0.831608 -0.637726
F10   F     F_    0.677307 0.630558 0.303673 -0.647891
F11   F     F_    0.716873 0.078687 0.166799 -0.634892
F12   F     F_    0.181694 0.871211 0.695879 -0.647954
N1    N     N_R   0.178385 0.449054 0.535664 0.235596
O21   O     O_R   0.264609 0.375920 0.521413 -0.312958
O22   O     O_R   0.091412 0.491724 0.493730 -0.389130
N2    N     N_R   0.500988 0.552628 0.026241 0.232136
O23   O     O_R   0.586601 0.622057 0.005001 -0.326719
O24   O     O_R   0.393860 0.507481 0.990843 -0.371208
N3    N     N_R   0.678314 0.051264 0.463978 0.235752
O25   O     O_R   0.764604 0.124418 0.478076 -0.312327
O26   O     O_R   0.588928 0.009419 0.505842 -0.387983
N4    N     N_R   0.006221 0.947760 0.973693 0.232030
O27   O     O_R   0.095113 0.879314 0.994877 -0.329298
O28   O     O_R   0.896183 0.991482 0.009068 -0.369723
N5    N     N_R   0.169305 0.336668 0.736205 0.271580
O29   O     O_R   0.324182 0.292735 0.733382 -0.289616
O30   O     O_R   0.029865 0.301136 0.763777 -0.408243
N6    N     N_R   0.467384 0.683057 0.222001 0.268756
O31   O     O_R   0.330895 0.686716 0.259684 -0.360726
O32   O     O_R   0.558226 0.755425 0.209122 -0.328886
N7    N     N_R   0.685718 0.159807 0.262499 0.272296
O33   O     O_R   0.846316 0.198789 0.264339 -0.289015
O34   O     O_R   0.550064 0.199583 0.235693 -0.406074
N8    N     N_R   0.974731 0.816760 0.778130 0.268672
O35   O     O_R   0.838425 0.812308 0.740551 -0.363811
O36   O     O_R   0.066897 0.744840 0.791077 -0.327238

loop_
_geom_bond_atom_site_label_1
_geom_bond_atom_site_label_2
_geom_bond_distance
_ccdc_geom_bond_type
C48   F4    1.358711 S    
C30   C34   1.432862 A    
C27   C31   1.429975 A    
C12   F8    1.358024 S    
O13   V1    1.998307 S    
O3    C7    1.337856 A    
C14   C54   1.408013 A    
H3    C59   1.077294 S    
C44   C48   1.403126 A    
O15   V3    1.997500 S    
N6    O31   1.300891 A    
C35   C51   1.400018 A    
C12   C60   1.389047 A    
O1    C5    1.337828 A    
C30   C38   1.443571 A    
C1    C14   1.483451 S    
C56   F12   1.356675 S    
H2    C58   1.076562 S    
C54   F10   1.356591 S    
H1    C57   1.077751 S    
C4    C15   1.492863 S    
C20   N4    1.441073 S    
O4    C8    1.332311 A    
C21   C25   1.395011 A    
O19   V1    1.762045 S    
C12   C44   1.408313 A    
O1    V3    1.996253 S    
C15   C55   1.409097 A    
N2    O23   1.302096 A    
O2    V4    1.997847 S    
C10   C58   1.389333 A    
O3    V1    1.997075 S    
C9    C57   1.383166 A    
C42   C46   1.403312 A    
C31   C39   1.448922 A    
C51   H11   1.079388 S    
C11   C59   1.382162 A    
C1    O15   1.329568 A    
C33   C49   1.400400 A    
C50   H10   1.082240 S    
C7    C61   1.498228 S    
C41   C45   1.400379 A    
C14   C58   1.389282 A    
C5    C63   1.498226 S    
C10   C42   1.408685 A    
C39   C43   1.428131 A    
C9    C41   1.404652 A    
C46   F2    1.358665 S    
O11   C7    1.332570 A    
C11   C43   1.404171 A    
O12   C8    1.335070 A    
C52   H12   1.082108 S    
C2    C13   1.492627 S    
C47   F3    1.358767 S    
C36   C52   1.401035 A    
C35   C63   1.425899 A    
O10   V2    2.012580 S    
O16   V4    1.997535 S    
C33   C61   1.426441 A    
O5    V1    2.013975 S    
N3    O26   1.301661 A    
O7    V3    2.012626 S    
C40   C56   1.435804 A    
C9    F5    1.358431 S    
C2    O16   1.341449 A    
C25   C29   1.428929 A    
O18   V4    1.762045 S    
C22   H6    1.083234 S    
C19   C23   1.395601 A    
N7    O34   1.297540 A    
C26   N6    1.432482 S    
O11   V3    2.011884 S    
C28   C32   1.420657 A    
C8    C62   1.493076 S    
C40   C44   1.424459 A    
O8    V4    2.013309 S    
O7    C3    1.337186 A    
O2    C6    1.332626 A    
C38   C54   1.435664 A    
C37   C53   1.438335 A    
C17   C21   1.396156 A    
O8    C4    1.328888 A    
C13   C53   1.409304 A    
O9    C5    1.332266 A    
C3    C16   1.483730 S    
C22   C26   1.396493 A    
C39   C55   1.438610 A    
C49   H9    1.079549 S    
C25   N5    1.432589 S    
N2    O24   1.301552 A    
O14   V2    1.996712 S    
O6    V2    2.011930 S    
C53   F9    1.356354 S    
C27   N7    1.432033 S    
C46   C50   1.390091 A    
N5    O29   1.301709 A    
C55   F11   1.356018 S    
C36   C64   1.426954 A    
N4    O28   1.301622 A    
N7    O33   1.301726 A    
C17   C61   1.412705 A    
N1    O21   1.302224 A    
C26   C30   1.420782 A    
O9    V1    2.013263 S    
C3    O13   1.329647 A    
C45   C49   1.383708 A    
C45   F1    1.358754 S    
C19   C63   1.411835 A    
O17   V3    1.763831 S    
C34   C50   1.401294 A    
C48   C52   1.390152 A    
C29   C37   1.448284 A    
C16   C56   1.408022 A    
N6    O32   1.301600 A    
O6    C2    1.329300 A    
C28   N8    1.432736 S    
N3    O25   1.302273 A    
C29   C33   1.440823 A    
N8    O35   1.300758 A    
C18   C62   1.414215 A    
O12   V4    2.013930 S    
C13   C57   1.396026 A    
C18   C22   1.397160 A    
C31   C35   1.441723 A    
C18   N2    1.441645 S    
C32   C36   1.432804 A    
C15   C59   1.395981 A    
O10   C6    1.335470 A    
O20   V2    1.763831 S    
C43   C47   1.400071 A    
H4    C60   1.076151 S    
C38   C42   1.424630 A    
C37   C41   1.427259 A    
C34   C62   1.427238 A    
C19   N3    1.445213 S    
N8    O36   1.301659 A    
C24   H8    1.083225 S    
C10   F6    1.358010 S    
C23   C27   1.394865 A    
C11   F7    1.358478 S    
C17   N1    1.445563 S    
C20   C24   1.397267 A    
C32   C40   1.443283 A    
C20   C64   1.414046 A    
C4    O14   1.341665 A    
N5    O30   1.297579 A    
C6    C64   1.493888 S    
O5    C1    1.336867 A    
C21   H5    1.082891 S    
N4    O27   1.302107 A    
C16   C60   1.389350 A    
C47   C51   1.382496 A    
O4    V2    1.997041 S    
C24   C28   1.396491 A    
C23   H7    1.082995 S    
N1    O22   1.301614 A    
