data_mof_unit_36752.cif
_audit_creation_date              2012-12-10T17:33:06-0500
_audit_creation_method            fapswitch 2.2
_symmetry_space_group_name_H-M    P1
_symmetry_Int_Tables_number       1
_space_group_crystal_system       triclinic
_cell_length_a                    15.521758
_cell_length_b                    15.544467
_cell_length_c                    17.82561
_cell_angle_alpha                 90.248453
_cell_angle_beta                  108.7509
_cell_angle_gamma                 68.264319
_cell_volume                      3750.78474668

loop_
_atom_site_label
_atom_site_type_symbol
_atom_type_description
_atom_site_fract_x
_atom_site_fract_y
_atom_site_fract_z
_atom_type_partial_charge
C1    C     C_R   0.463427 0.740100 0.531712 0.831509
C2    C     C_R   0.580536 0.389689 0.075455 -0.170965
C3    C     C_R   0.640478 0.335301 0.035685 -0.239899
C4    C     C_R   0.532783 0.260028 0.467666 0.806818
C5    C     C_R   0.619022 0.360294 0.955036 0.165919
C6    C     C_R   0.531816 0.438233 0.911816 0.133105
C7    C     C_R   0.684808 0.308683 0.917296 -0.205994
C8    C     C_R   0.666449 0.335160 0.837445 -0.195643
C9    C     C_R   0.518976 0.467167 0.832922 -0.234642
C10   C     C_R   0.334745 0.988525 0.554352 0.466397
C11   C     C_R   0.445668 0.836814 0.541595 -0.059901
C12   C     C_R   0.315417 0.645061 0.155799 -0.219157
C13   C     C_R   0.639092 0.106586 0.444392 -0.317101
C14   C     C_R   0.672077 0.009615 0.451287 0.521742
C15   C     C_R   0.621409 0.965141 0.476952 -0.280409
C16   C     C_R   0.757598 0.447041 0.531386 0.787621
C17   C     C_R   0.531360 0.016868 0.489060 0.041407
C18   C     C_R   0.494938 0.116077 0.476766 0.089013
C19   C     C_R   0.476569 0.973438 0.513596 0.053648
C20   C     C_R   0.388622 0.029757 0.527780 0.054828
C21   C     C_R   0.352747 0.126494 0.511742 -0.220626
C22   C     C_R   0.401893 0.168538 0.482631 -0.194061
C23   C     C_R   0.468101 0.521506 0.159835 -0.205166
C24   C     C_R   0.504086 0.876014 0.521838 -0.268816
C25   C     C_R   0.362116 0.892207 0.558751 -0.296446
C26   C     C_R   0.552772 0.160474 0.459423 -0.138651
C27   C     C_R   0.999516 0.308816 0.513336 -0.226735
C28   C     C_R   0.241696 0.552644 0.468763 0.839134
C29   C     C_R   0.860746 0.422325 0.540026 -0.000087
C30   C     C_R   0.085737 0.678375 0.470274 0.339406
C31   C     C_R   0.006844 0.703319 0.500130 0.392626
C32   C     C_R   0.972570 0.635890 0.514370 -0.344406
C33   C     C_R   0.016200 0.542282 0.501323 0.012954
C34   C     C_R   0.435295 0.528636 0.075787 0.016803
C35   C     C_R   0.099671 0.516733 0.476354 0.019079
C36   C     C_R   0.980980 0.472531 0.513583 0.131916
C37   C     C_R   0.030730 0.379375 0.500833 0.166164
C38   C     C_R   0.108274 0.357811 0.471757 -0.271723
C39   C     C_R   0.141723 0.425327 0.458944 -0.158943
C40   C     C_R   0.560186 0.439990 0.711393 0.782534
C41   C     C_R   0.894912 0.492513 0.533489 -0.267016
C42   C     C_R   0.915412 0.330109 0.533159 -0.188284
C43   C     C_R   0.138753 0.583351 0.467306 -0.232304
C44   C     C_R   0.440300 0.558793 0.287243 0.796582
C45   C     C_R   0.341980 0.599092 0.031841 -0.012597
C46   C     C_R   0.408185 0.577287 0.199788 -0.022102
C47   C     C_R   0.584101 0.414899 0.795871 -0.009714
C48   C     C_R   0.282806 0.656156 0.072717 -0.149207
C49   C     C_3   0.219347 0.750880 0.865419 0.118236
C50   C     C_3   0.238231 0.821654 0.922116 -0.398811
C51   C     C_3   0.235415 0.906862 0.877713 -0.975704
C52   C     C_3   0.273612 0.047876 0.651722 0.049205
C53   C     C_3   0.191323 0.130777 0.665581 -0.316611
C54   C     C_3   0.211622 0.138919 0.754339 -0.963148
C55   C     C_3   0.748646 0.949764 0.361449 0.113761
C56   C     C_R   0.493923 0.468973 0.034794 0.011227
C57   C     C_3   0.731460 0.860695 0.338992 -0.349412
C58   C     C_3   0.728522 0.845332 0.253792 -0.970053
C59   C     C_3   0.050939 0.799844 0.377815 0.097940
C60   C     C_3   0.089499 0.763264 0.310095 -0.307153
C61   C     C_3   0.023427 0.824907 0.230612 -1.002217
C62   C     C_3   0.026297 0.827911 0.565253 0.162256
C63   C     C_3   0.976080 0.893897 0.616075 -0.323507
C64   C     C_3   0.040681 0.943552 0.663091 -1.018929
C65   C     C_3   0.288068 0.479783 0.812476 0.098310
C66   C     C_3   0.251192 0.475353 0.722584 -0.317258
C67   C     C_R   0.463610 0.487157 0.950267 -0.126884
C68   C     C_3   0.216747 0.395038 0.704186 -0.936259
C69   C     C_R   0.365292 0.551011 0.907474 0.306646
C70   C     C_R   0.308047 0.610882 0.947984 0.374504
H1    H     H_    0.750415 0.247998 0.949604 0.139750
H2    H     H_    0.141242 0.288816 0.456397 0.148898
H3    H     H_    0.037441 0.237786 0.503841 0.159054
H4    H     H_    0.848072 0.562725 0.536731 0.134658
H5    H     H_    0.912078 0.659200 0.536781 0.181272
H6    H     H_    0.199730 0.405441 0.433371 0.145127
H7    H     H_    0.716451 0.293923 0.808200 0.133286
H8    H     H_    0.705905 0.274943 0.069002 0.142144
H9    H     H_    0.210306 0.708856 0.040730 0.175449
H10   H     H_    0.267281 0.688573 0.185524 0.161272
H11   H     H_    0.540943 0.473830 0.196067 0.152473
H12   H     H_    0.316532 0.861014 0.573252 0.156442
H13   H     H_    0.602525 0.365550 0.137885 0.141654
H14   H     H_    0.146805 0.786508 0.817233 0.173710
H15   H     H_    0.275654 0.727741 0.835548 0.158471
H16   H     H_    0.181081 0.844985 0.950908 0.230867
H17   H     H_    0.311949 0.788256 0.969479 0.221146
H18   H     H_    0.289628 0.885389 0.846029 0.261540
H19   H     H_    0.254296 0.954214 0.921014 0.272696
H20   H     H_    0.160265 0.945717 0.833944 0.271681
H21   H     H_    0.344230 0.058286 0.678385 0.138929
H22   H     H_    0.280024 0.982335 0.682307 0.152465
H23   H     H_    0.284705 0.170229 0.519884 0.179196
H24   H     H_    0.185519 0.196106 0.635362 0.228802
H25   H     H_    0.119844 0.122608 0.639494 0.226694
H26   H     H_    0.216250 0.075079 0.785854 0.273057
H27   H     H_    0.150632 0.200044 0.761976 0.269961
H28   H     H_    0.281923 0.148928 0.781350 0.262967
H29   H     H_    0.817891 0.945106 0.352746 0.160181
H30   H     H_    0.688143 0.012110 0.320297 0.111255
H31   H     H_    0.791786 0.799501 0.380812 0.251897
H32   H     H_    0.660255 0.865897 0.344051 0.207920
H33   H     H_    0.667932 0.905225 0.210740 0.267421
H34   H     H_    0.566232 0.828937 0.507733 0.136424
H35   H     H_    0.715339 0.780736 0.239282 0.271343
H36   H     H_    0.799942 0.837379 0.247680 0.257968
H37   H     H_    0.046828 0.872496 0.382074 0.156234
H38   H     H_    0.973832 0.803941 0.363011 0.136020
H39   H     H_    0.165353 0.761558 0.324397 0.255710
H40   H     H_    0.092522 0.691101 0.304132 0.214801
H41   H     H_    0.947716 0.825811 0.213767 0.265281
H42   H     H_    0.054107 0.796870 0.183187 0.269504
H43   H     H_    0.019878 0.897391 0.234764 0.268237
H44   H     H_    0.047938 0.868276 0.528628 0.182515
H45   H     H_    0.684310 0.139126 0.431180 0.177347
H46   H     H_    0.094131 0.771141 0.606610 0.116418
H47   H     H_    0.904457 0.947339 0.577091 0.270323
H48   H     H_    0.961432 0.853346 0.658291 0.219646
H49   H     H_    0.114736 0.891874 0.699824 0.263160
H50   H     H_    0.005351 0.986661 0.703071 0.272206
H51   H     H_    0.049650 0.990036 0.621593 0.276326
H52   H     H_    0.226250 0.492192 0.835481 0.163707
H53   H     H_    0.348875 0.411239 0.842035 0.139861
H54   H     H_    0.188860 0.542266 0.691874 0.224435
H55   H     H_    0.311905 0.465324 0.698927 0.243404
H56   H     H_    0.655404 0.890034 0.487258 0.153091
H57   H     H_    0.277640 0.327411 0.734834 0.262587
H58   H     H_    0.193882 0.391823 0.638944 0.281806
H59   H     H_    0.152773 0.405814 0.723711 0.265209
H60   H     H_    0.364628 0.242892 0.464135 0.165869
H61   H     H_    0.888592 0.275666 0.537155 0.142425
H62   H     H_    0.460940 0.531691 0.799509 0.184123
O1    O     O_3   0.500000 0.500000 0.500000 -0.480772
O2    O     O_R   0.596500 0.492780 0.688380 -0.636475
O3    O     O_R   0.388780 0.611210 0.325000 -0.656780
O4    O     O_R   0.499860 0.410860 0.661600 -0.637201
O5    O     O_R   0.514860 0.485140 0.325020 -0.645136
O6    O     O_3   0.213876 0.675556 0.905557 -0.637243
O7    O     O_3   0.249801 0.043186 0.568759 -0.661504
O8    O     O_3   0.761607 0.957055 0.443126 -0.632043
O9    O     O_3   0.117494 0.745243 0.451782 -0.645714
O10   O     O_3   0.958802 0.793835 0.513815 -0.625630
O11   O     O_3   0.321170 0.553645 0.826084 -0.660338
O12   O     O_R   0.707110 0.418540 0.472990 -0.639110
O13   O     O_R   0.267620 0.606720 0.435250 -0.613362
O14   O     O_R   0.540230 0.674660 0.578090 -0.639207
O15   O     O_R   0.485030 0.300080 0.513670 -0.645773
O16   O     O_R   0.403610 0.721990 0.472930 -0.633582
O17   O     O_R   0.571130 0.303270 0.435320 -0.645907
O18   O     O_R   0.717650 0.497270 0.578120 -0.638739
O19   O     O_R   0.307610 0.477470 0.513630 -0.653174
Zn1   Zn    Zn3+2 0.572030 0.427990 0.434470 0.958405
Zn2   Zn    Zn3+2 0.587090 0.540470 0.584680 0.972546
Zn3   Zn    Zn3+2 0.449010 0.423430 0.546420 0.954633
Zn4   Zn    Zn3+2 0.391880 0.608100 0.434430 0.969035

loop_
_geom_bond_atom_site_label_1
_geom_bond_atom_site_label_2
_ccdc_geom_bond_type
C40   C47   S    
C66   C68   S    
C34   C56   A    
C44   O5    A    
C16   O18   A    
C29   C42   A    
C53   H25   S    
C19   C20   A    
C18   C26   A    
C12   C48   A    
C52   O7    S    
C32   H5    S    
C1    O14   A    
C7    C8    A    
C53   C54   S    
C57   H32   S    
C40   O4    A    
C28   O13   A    
C62   C63   S    
C30   O9    S    
O1    Zn2   S    
C5    C6    A    
C48   H9    S    
C36   C37   A    
C16   O12   A    
C62   H44   S    
C51   H20   S    
C7    H1    S    
C30   C31   A    
C65   O11   S    
C9    H62   S    
O2    Zn2   S    
C11   C25   A    
C64   H51   S    
C25   H12   S    
C11   C24   A    
C33   C36   A    
O3    Zn4   S    
O19   Zn3   S    
C49   C50   S    
O15   Zn3   S    
C60   H39   S    
C17   C19   A    
C41   H4    S    
C10   C20   A    
O18   Zn2   S    
C1    C11   S    
C55   H30   S    
C52   H21   S    
C54   H27   S    
C42   H61   S    
O16   Zn4   S    
C35   C43   A    
C68   H58   S    
C54   H26   S    
C44   O3    A    
C53   H24   S    
C59   C60   S    
C23   C46   A    
C18   C22   A    
C13   C14   A    
C22   H60   S    
C36   C41   A    
C69   C70   A    
O1    Zn1   S    
C62   O10   S    
C44   C46   S    
C17   C18   A    
C38   H2    S    
O1    Zn3   S    
C49   H15   S    
C12   C46   A    
O17   Zn1   S    
C5    C7    A    
C63   H48   S    
C16   C29   S    
C39   H6    S    
C4    O15   A    
C40   O2    A    
C15   H56   S    
C59   H37   S    
C55   O8    S    
C60   C61   S    
C58   H36   S    
C35   C39   A    
C62   H46   S    
C37   C38   A    
C4    O17   A    
O4    Zn3   S    
C31   C32   A    
C23   C34   A    
C50   C51   S    
O5    Zn1   S    
C34   C45   A    
C65   H52   S    
C64   H49   S    
C68   H57   S    
C13   H45   S    
C50   H17   S    
C10   C25   A    
C6    C67   A    
C14   O8    S    
C70   O6    S    
C55   C57   S    
C61   H43   S    
C8    H7    S    
C66   H54   S    
C30   C43   A    
C52   H22   S    
C10   O7    S    
C61   H41   S    
C52   C53   S    
C49   H14   S    
C45   C48   A    
C67   C69   A    
C15   C17   A    
C23   H11   S    
C29   C41   A    
C45   C70   A    
O1    Zn4   S    
C3    C5    A    
C51   H18   S    
C27   H3    S    
C4    C26   S    
C9    C47   A    
C69   O11   S    
C56   C67   A    
C57   H31   S    
C28   C43   S    
C59   H38   S    
C64   H50   S    
C66   H55   S    
C58   H35   S    
C32   C33   A    
C31   O10   S    
C2    C3    A    
C8    C47   A    
O12   Zn1   S    
C2    C56   A    
C51   H19   S    
C2    H13   S    
C61   H42   S    
C27   C42   A    
C57   C58   S    
C38   C39   A    
O14   Zn2   S    
C21   H23   S    
C27   C37   A    
C63   H47   S    
C12   H10   S    
C33   C35   A    
C19   C24   A    
C65   H53   S    
C68   H59   S    
C13   C26   A    
C60   H40   S    
C50   H16   S    
C63   C64   S    
O13   Zn4   S    
C6    C9    A    
C20   C21   A    
C59   O9    S    
C28   O19   A    
C65   C66   S    
C55   H29   S    
C14   C15   A    
C54   H28   S    
C1    O16   A    
C49   O6    S    
C58   H33   S    
C24   H34   S    
C21   C22   A    
C3    H8    S    
