data_mof_unit_18758.cif
_audit_creation_date              2013-03-05T15:53:20-0500
_audit_creation_method            fapswitch 2.2
_symmetry_space_group_name_H-M    P1
_symmetry_Int_Tables_number       1
_space_group_crystal_system       triclinic
_cell_length_a                    27.362194
_cell_length_b                    7.227086
_cell_length_c                    22.678028
_cell_angle_alpha                 90.026159
_cell_angle_beta                  101.064757
_cell_angle_gamma                 90.023868
_cell_volume                      4401.19085746

loop_
_atom_site_label
_atom_site_type_symbol
_atom_site_description
_atom_site_fract_x
_atom_site_fract_y
_atom_site_fract_z
_atom_type_partial_charge
O1    O     O_R   0.207310 0.594030 0.676830 -0.586620
O2    O     O_R   0.792690 0.405970 0.323170 -0.585680
O3    O     O_R   0.292690 0.094030 0.823170 -0.588821
O4    O     O_R   0.707310 0.905970 0.176830 -0.589474
O5    O     O_R   0.197320 0.262370 0.795700 -0.562050
O6    O     O_R   0.802680 0.737630 0.204300 -0.562996
O7    O     O_R   0.302680 0.762370 0.704300 -0.562265
O8    O     O_R   0.697320 0.237630 0.295700 -0.564414
C1    C     C_R   0.184380 0.433530 0.811657 0.917440
C2    C     C_R   0.815639 0.566475 0.188369 0.919511
C3    C     C_R   0.315628 0.933537 0.688356 0.916878
C4    C     C_R   0.684367 0.066466 0.311637 0.918036
O9    O     O_R   0.201410 0.264250 0.675590 -0.592297
O10   O     O_R   0.798590 0.735750 0.324410 -0.588832
O11   O     O_R   0.298590 0.764250 0.824410 -0.589693
O12   O     O_R   0.701410 0.235750 0.175590 -0.590166
O13   O     O_R   0.296810 0.094940 0.702210 -0.539856
O14   O     O_R   0.703190 0.905060 0.297790 -0.538381
O15   O     O_R   0.203190 0.594940 0.797790 -0.538547
O16   O     O_R   0.796810 0.405060 0.202210 -0.539307
C5    C     C_R   0.189309 0.432712 0.653842 0.965749
C6    C     C_R   0.810573 0.567028 0.346106 0.970157
C7    C     C_R   0.310602 0.933013 0.845970 0.970218
C8    C     C_R   0.689398 0.066987 0.154030 0.968846
O17   O     O_3   0.281300 0.427390 0.758870 -0.249115
O18   O     O_3   0.718700 0.572610 0.241130 -0.250797
O19   O     O_3   0.218700 0.927390 0.741130 -0.249854
O20   O     O_3   0.781300 0.072610 0.258870 -0.246450
V1    V     V_3+5 0.244190 0.152150 0.748350 1.264663
V2    V     V_3+5 0.755810 0.847850 0.251650 1.267410
V3    V     V_3+5 0.255810 0.652150 0.751650 1.266987
V4    V     V_3+5 0.744190 0.347850 0.248350 1.270415
C9    C     C_R   0.653255 0.058963 0.096628 -0.144549
C10   C     C_R   0.346744 0.941036 0.903373 -0.145272
C11   C     C_R   0.846371 0.555987 0.403900 -0.142606
C12   C     C_R   0.153494 0.436336 0.595735 -0.148945
C13   C     C_R   0.639188 0.088355 0.988614 -0.181059
C14   C     C_R   0.360811 0.911633 0.011386 -0.180800
C15   C     C_R   0.858674 0.515058 0.511538 -0.179293
C16   C     C_R   0.136169 0.342639 0.491332 -0.183962
C17   C     C_R   0.670163 0.107270 0.044422 -0.191396
C18   C     C_R   0.329836 0.892716 0.955578 -0.191162
C19   C     C_R   0.827151 0.526972 0.455857 -0.195581
C20   C     C_R   0.168311 0.351908 0.546605 -0.180645
C21   C     C_R   0.603146 0.000073 0.093055 0.173358
C22   C     C_R   0.396852 0.999939 0.906946 0.173500
C23   C     C_R   0.898754 0.569641 0.407690 0.197960
C24   C     C_R   0.104521 0.510315 0.589352 0.160303
C25   C     C_R   0.568604 0.016885 0.036791 0.070492
C26   C     C_R   0.431394 0.983123 0.963210 0.070552
C27   C     C_R   0.931661 0.528486 0.463759 0.066211
C28   C     C_R   0.068648 0.472604 0.535280 0.069626
C29   C     C_R   0.589029 0.040911 0.984299 0.144538
C30   C     C_R   0.410969 0.959089 0.015701 0.144366
C31   C     C_R   0.910440 0.515616 0.516059 0.141412
C32   C     C_R   0.086698 0.401069 0.485194 0.145052
C33   C     C_R   0.515158 0.008542 0.029452 0.072104
C34   C     C_R   0.484839 0.991471 0.970549 0.072145
C35   C     C_R   0.984226 0.493598 0.470451 0.071958
C36   C     C_R   0.015622 0.495282 0.528910 0.070602
C37   C     C_R   0.509232 0.972348 0.921632 -0.209954
C38   C     C_R   0.490765 0.027664 0.078368 -0.209899
C39   C     C_R   0.992344 0.489792 0.579102 -0.207691
C40   C     C_R   0.004908 0.428777 0.422084 -0.205504
C41   C     C_R   0.559648 0.010460 0.927713 -0.209717
C42   C     C_R   0.440349 0.989544 0.072288 -0.209530
C43   C     C_R   0.940876 0.496704 0.572666 -0.205476
C44   C     C_R   0.054837 0.380785 0.429590 -0.209914
H1    H     H_    0.576105 0.010862 0.887871 0.138557
H2    H     H_    0.423892 0.989139 0.112130 0.138719
H3    H     H_    0.924666 0.484642 0.612529 0.137269
H4    H     H_    0.068495 0.324157 0.391533 0.139182
H5    H     H_    0.291493 0.850692 0.953317 0.162334
H6    H     H_    0.708507 0.149285 0.046682 0.162394
H7    H     H_    0.205628 0.296541 0.550766 0.159826
H8    H     H_    0.787266 0.518565 0.453431 0.162552
H9    H     H_    0.654390 0.113040 0.948563 0.133313
H10   H     H_    0.345609 0.886940 0.051437 0.133447
H11   H     H_    0.842422 0.499694 0.551253 0.133136
H12   H     H_    0.149591 0.282608 0.453613 0.133203
H13   H     H_    0.489803 0.929527 0.877834 0.165842
H14   H     H_    0.510192 0.070491 0.122167 0.165908
H15   H     H_    0.013192 0.463168 0.623710 0.163261
H16   H     H_    0.981966 0.397656 0.378995 0.169752
C45   C     C_R   0.627979 0.876852 0.367294 0.407824
C46   C     C_R   0.371910 0.123166 0.632557 0.404959
C47   C     C_R   0.871899 0.376891 0.132531 0.402919
C48   C     C_R   0.128048 0.623179 0.867378 0.403720
C49   C     C_R   0.592311 0.867326 0.404033 -0.279158
C50   C     C_R   0.407549 0.132697 0.595781 -0.278211
C51   C     C_R   0.907543 0.367396 0.095762 -0.278119
C52   C     C_R   0.092407 0.632730 0.904154 -0.278422
H17   H     H_    0.580667 0.732187 0.416775 0.139645
H18   H     H_    0.419129 0.267832 0.582955 0.139848
H19   H     H_    0.919090 0.232271 0.082886 0.139934
H20   H     H_    0.080776 0.767874 0.916903 0.139796
C53   C     C_R   0.571833 0.027824 0.424097 0.083729
C54   C     C_R   0.428098 0.972209 0.575809 0.083307
C55   C     C_R   0.928152 0.527898 0.075879 0.083373
C56   C     C_R   0.071924 0.472244 0.924223 0.083619
C57   C     C_R   0.587720 0.200074 0.405980 -0.141050
C58   C     C_R   0.412303 0.799967 0.594045 -0.141311
C59   C     C_R   0.912406 0.700125 0.094193 -0.141113
C60   C     C_R   0.087791 0.299976 0.906094 -0.141612
H21   H     H_    0.572654 0.327372 0.420270 0.133688
H22   H     H_    0.427428 0.672680 0.579834 0.133741
H23   H     H_    0.927583 0.827420 0.080057 0.133555
H24   H     H_    0.072722 0.172689 0.920389 0.133675
C61   C     C_R   0.623494 0.210677 0.369272 -0.147881
C62   C     C_R   0.376551 0.789357 0.630785 -0.143961
C63   C     C_R   0.876643 0.710700 0.130918 -0.140330
C64   C     C_R   0.123544 0.289345 0.869358 -0.143634
H25   H     H_    0.634618 0.344778 0.356529 0.232174
H26   H     H_    0.365507 0.655263 0.643633 0.232262
H27   H     H_    0.865641 0.844773 0.143834 0.231942
H28   H     H_    0.134648 0.155232 0.856598 0.232121
C65   C     C_R   0.644793 0.050851 0.349465 -0.301808
C66   C     C_R   0.355185 0.949168 0.650504 -0.302812
C67   C     C_R   0.855214 0.550875 0.150542 -0.302101
C68   C     C_R   0.144837 0.449162 0.849531 -0.303362
N1    N     N_R   0.514001 0.167780 0.483544 -0.078680
N2    N     N_R   0.485924 0.832254 0.516354 -0.078613
N3    N     N_R   0.986027 0.667858 0.016487 -0.078515
N4    N     N_R   0.014061 0.332314 0.983631 -0.078599
N5    N     N_R   0.480509 0.154247 0.519010 -0.076839
N6    N     N_R   0.519415 0.845787 0.480886 -0.076837
N7    N     N_R   0.019529 0.654312 0.981033 -0.076814
N8    N     N_R   0.980558 0.345860 0.019082 -0.076856
C69   C     C_R   0.465690 0.986282 0.536266 0.133704
C70   C     C_R   0.534235 0.013752 0.463632 0.133471
C71   C     C_R   0.034327 0.486338 0.963757 0.133587
C72   C     C_R   0.965759 0.513831 0.036358 0.133894
C73   C     C_3   0.409240 0.105695 0.853958 -0.972801
H29   H     H_    0.443108 0.191990 0.866540 0.259516
H30   H     H_    0.412783 0.009094 0.816919 0.234750
H31   H     H_    0.379562 0.207418 0.837023 0.280177
C74   C     C_3   0.590755 0.894341 0.146047 -0.972622
H32   H     H_    0.587204 0.990962 0.183078 0.234736
H33   H     H_    0.556891 0.808023 0.133464 0.259563
H34   H     H_    0.620437 0.792640 0.162994 0.280133
C75   C     C_3   0.094247 0.644986 0.636677 -0.948955
H35   H     H_    0.060024 0.727320 0.621368 0.254100
H36   H     H_    0.092091 0.570378 0.678903 0.237638
H37   H     H_    0.124490 0.749283 0.646168 0.276102
C76   C     C_3   0.917140 0.651443 0.354439 -1.016969
H38   H     H_    0.955929 0.702911 0.366580 0.264196
H39   H     H_    0.913633 0.548397 0.317521 0.243041
H40   H     H_    0.894702 0.775040 0.337575 0.270752
N9    N     N_R   0.646254 0.706524 0.348417 0.220159
O21   O     O_R   0.626939 0.638662 0.295964 -0.425946
O22   O     O_R   0.685746 0.631066 0.380504 -0.449941
N10   N     N_R   0.353605 0.293498 0.651397 0.220088
O23   O     O_R   0.372829 0.361244 0.703900 -0.425495
O24   O     O_R   0.314214 0.369209 0.619185 -0.447698
N11   N     N_R   0.853577 0.206537 0.151333 0.219935
O25   O     O_R   0.872749 0.138982 0.203850 -0.425483
O26   O     O_R   0.814255 0.130456 0.119026 -0.449805
N12   N     N_R   0.146307 0.793503 0.848469 0.220066
O27   O     O_R   0.126975 0.861070 0.796004 -0.424578
O28   O     O_R   0.185801 0.869214 0.880520 -0.449122

loop_
_geom_bond_atom_site_label_1
_geom_bond_atom_site_label_2
_geom_bond_distance
_ccdc_geom_bond_type
O17   V3    1.763282 S    
C55   C59   1.405714 A    
C23   C76   1.514781 S    
O1    C5    1.331917 A    
C47   C51   1.401225 A    
N3    C72   1.358541 A    
N11   O26   1.301272 A    
C9    C21   1.422833 A    
O3    C7    1.328711 A    
C10   C18   1.395752 A    
C52   H20   1.083572 S    
N1    C70   1.358542 A    
O15   V3    1.979150 S    
C62   C66   1.405757 A    
C76   H38   1.108175 S    
C56   C71   1.492141 S    
C61   C65   1.405766 A    
C33   C38   1.406883 A    
C5    C12   1.483890 S    
C42   H2    1.084142 S    
O7    C3    1.354890 A    
C6    C11   1.480232 S    
C74   H33   1.107709 S    
C35   C40   1.407432 A    
C26   C30   1.419517 A    
C55   C72   1.492154 S    
C36   C39   1.407545 A    
C40   C44   1.388122 A    
O2    V4    1.987754 S    
O9    V1    2.002464 S    
C53   C70   1.492158 S    
C14   C18   1.388096 A    
N9    O22   1.301383 A    
O4    C8    1.328713 A    
C25   C29   1.419519 A    
O19   V1    1.762609 S    
N6    C70   1.360891 A    
C57   C61   1.403505 A    
C60   H24   1.082873 S    
O1    V3    1.987750 S    
O13   V1    1.979195 S    
C31   C43   1.396455 A    
C59   C63   1.403529 A    
O3    V1    1.988316 S    
C49   C53   1.401561 A    
C40   H16   1.078766 S    
C2    C67   1.509225 S    
C28   C36   1.439647 A    
C17   H6    1.083813 S    
C1    O15   1.336606 A    
C56   C60   1.405712 A    
C15   C31   1.400376 A    
C48   C52   1.401268 A    
C2    O16   1.336680 A    
C16   C32   1.399381 A    
O2    C6    1.328945 A    
C73   H31   1.108363 S    
C16   H12   1.084047 S    
C58   H22   1.082885 S    
C10   C22   1.422830 A    
C48   N12   1.425108 S    
C48   C68   1.424048 A    
C11   C19   1.395289 A    
C62   H26   1.072002 S    
N2    C69   1.358542 A    
C43   H3    1.084225 S    
C44   H4    1.084261 S    
N4    N8    1.333854 A    
C13   C29   1.399568 A    
C34   C37   1.406881 A    
O11   C7    1.331210 A    
C38   H14   1.077900 S    
C11   C23   1.422698 A    
C35   C36   1.434766 A    
O12   C8    1.331213 A    
N12   O28   1.301214 A    
C47   C67   1.424034 A    
O10   V2    2.002465 S    
N8    C72   1.360885 A    
C76   H39   1.110544 S    
C50   H18   1.083608 S    
O5    V1    1.990215 S    
C57   H21   1.082899 S    
C74   H34   1.108362 S    
C39   C43   1.388610 A    
O7    V3    1.990180 S    
C38   C42   1.387285 A    
C26   C34   1.440969 A    
C46   C50   1.401242 A    
C75   H37   1.109162 S    
C64   C68   1.405753 A    
C45   C49   1.401249 A    
O18   V4    1.763281 S    
C15   C19   1.388529 A    
C14   H10   1.083956 S    
C32   C44   1.396184 A    
C13   H9    1.083953 S    
C49   H17   1.083611 S    
O4    V2    1.988311 S    
N4    C71   1.358535 A    
C39   H15   1.079152 S    
O8    V4    1.990180 S    
C37   H13   1.077903 S    
N2    N6    1.333856 A    
C20   H7    1.083961 S    
O5    C1    1.354841 A    
C46   N10   1.425109 S    
C63   H27   1.071974 S    
N3    N7    1.333875 A    
C14   C30   1.399566 A    
C21   C25   1.439961 A    
O8    C4    1.354869 A    
C7    C10   1.477056 S    
C21   C74   1.516585 S    
O9    C5    1.331674 A    
C46   C66   1.424029 A    
C45   C65   1.424022 A    
O14   V2    1.979201 S    
C63   C67   1.405744 A    
O6    V2    1.990216 S    
N10   O24   1.301291 A    
N1    N5    1.333856 A    
N12   O27   1.301170 A    
C47   N11   1.425102 S    
C58   C62   1.403525 A    
C27   C35   1.439386 A    
C16   C20   1.387786 A    
C64   H28   1.072014 S    
C76   H40   1.109826 S    
C29   C41   1.394670 A    
C52   C56   1.401548 A    
C60   C64   1.403505 A    
O16   V4    1.979147 S    
C19   H8    1.083818 S    
C3    O13   1.336697 A    
C18   H5    1.083818 S    
O6    C2    1.354780 A    
C25   C33   1.440973 A    
C23   C27   1.441233 A    
O11   V3    2.001462 S    
C30   C42   1.394668 A    
C61   H25   1.072005 S    
O12   V4    2.001459 S    
C45   N9    1.425072 S    
C74   H32   1.110473 S    
C22   C26   1.439956 A    
C8    C9    1.477059 S    
C9    C17   1.395752 A    
O10   C6    1.332439 A    
C75   H36   1.110561 S    
C54   C58   1.405705 A    
N9    O21   1.301062 A    
C22   C73   1.516592 S    
C33   C34   1.436037 A    
C73   H29   1.107703 S    
C41   H1    1.084144 S    
C54   C69   1.492163 S    
O20   V2    1.762608 S    
C24   C75   1.514348 S    
C12   C24   1.424294 A    
C27   C31   1.420185 A    
C37   C41   1.387281 A    
C13   C17   1.388094 A    
N7    C71   1.360903 A    
C12   C20   1.396783 A    
C51   H19   1.083593 S    
C4    C65   1.509209 S    
N5    C69   1.360893 A    
C24   C28   1.441846 A    
N10   O23   1.301141 A    
C4    O14   1.336725 A    
N11   O25   1.301131 A    
C73   H30   1.110465 S    
C1    C68   1.509261 S    
C59   H23   1.082883 S    
C51   C55   1.401538 A    
C75   H35   1.107844 S    
C3    C66   1.509217 S    
C50   C54   1.401559 A    
C53   C57   1.405715 A    
C28   C32   1.419977 A    
C15   H11   1.084008 S    
