data_mof_unit_59499.cif
_audit_creation_date              2012-12-10T16:50:10-0500
_audit_creation_method            fapswitch 2.2
_symmetry_space_group_name_H-M    P1
_symmetry_Int_Tables_number       1
_space_group_crystal_system       triclinic
_cell_length_a                    7.785382
_cell_length_b                    8.573927
_cell_length_c                    10.669711
_cell_angle_alpha                 91.810655
_cell_angle_beta                  84.185013
_cell_angle_gamma                 93.823842
_cell_volume                      706.75338337

loop_
_atom_site_label
_atom_site_type_symbol
_atom_type_description
_atom_site_fract_x
_atom_site_fract_y
_atom_site_fract_z
_atom_type_partial_charge
C1    C     C_R   0.545856 0.794800 0.497050 0.955661
C2    C     C_R   0.454129 0.205189 0.502905 0.945515
C3    C     C_R   0.501805 0.509166 0.259996 0.863586
C4    C     C_R   0.158478 0.503370 0.915568 0.530803
C5    C     C_R   0.039311 0.599801 0.980086 -0.260582
C6    C     C_R   0.080122 0.682071 0.088527 -0.233638
C7    C     C_R   0.236453 0.661413 0.136516 -0.157693
C8    C     C_R   0.356856 0.562298 0.072738 0.028309
C9    C     C_3   0.056268 0.252628 0.868954 0.056445
C10   C     C_3   0.209927 0.148227 0.851713 -0.358189
C11   C     C_3   0.150055 0.975714 0.861859 -0.929130
C12   C     C_R   0.330178 0.506706 0.951677 -0.013094
C13   C     C_R   0.478689 0.461773 0.873337 -0.118435
C14   C     C_R   0.624495 0.419572 0.925659 -0.259676
C15   C     C_R   0.631919 0.437069 0.053062 -0.226112
C16   C     C_R   0.501318 0.512134 0.126335 -0.085651
C17   C     C_2   0.569952 0.958317 0.495134 -0.382786
C18   C     C_2   0.429961 0.041678 0.505289 -0.391748
C19   C     C_R   0.494468 0.484673 0.739636 0.882329
H1    H     H_    0.733402 0.375687 0.867598 0.182462
H2    H     H_    0.953121 0.199706 0.813312 0.172190
H3    H     H_    0.999894 0.254700 0.969444 0.107557
H4    H     H_    0.282824 0.167149 0.758010 0.237482
H5    H     H_    0.297991 0.178370 0.925640 0.213360
H6    H     H_    0.070277 0.955726 0.952813 0.264929
H7    H     H_    0.264186 0.903826 0.857144 0.272706
H8    H     H_    0.072336 0.938346 0.783132 0.259768
H9    H     H_    0.985863 0.618340 0.595587 0.198431
H10   H     H_    0.915117 0.611053 0.945841 0.177155
H11   H     H_    0.988251 0.757729 0.137698 0.165828
H12   H     H_    0.263161 0.725300 0.222188 0.165963
H13   H     H_    0.741891 0.395141 0.093484 0.172467
H14   H     H_    0.702103 0.009549 0.485095 0.178630
H15   H     H_    0.297789 0.990480 0.515584 0.182109
H16   H     H_    0.014192 0.381621 0.404491 0.189548
N1    N     N_2   0.950330 0.457950 0.466250 -0.171989
N2    N     N_2   0.049670 0.542050 0.533750 -0.150948
O1    O     O_R   0.389250 0.738570 0.508280 -0.620956
O2    O     O_R   0.678390 0.711630 0.486650 -0.632887
O3    O     O_R   0.355400 0.513470 0.694050 -0.566279
O4    O     O_R   0.644540 0.486530 0.672420 -0.626312
O5    O     O_R   0.321610 0.288370 0.513350 -0.620004
O6    O     O_R   0.610750 0.261430 0.491720 -0.614420
O7    O     O_R   0.355460 0.513470 0.327580 -0.634030
O8    O     O_R   0.644600 0.486530 0.305950 -0.622605
O9    O     O_3   0.102522 0.403567 0.821286 -0.627962
Zn1   Zn    Zn3+2 0.306930 0.517990 0.514440 0.963421
Zn2   Zn    Zn3+2 0.693070 0.482010 0.485560 0.938472

loop_
_geom_bond_atom_site_label_1
_geom_bond_atom_site_label_2
_ccdc_geom_bond_type
O3    Zn1   S    
C6    C7    A    
C10   H4    S    
N2    Zn1   S    
O6    Zn2   S    
C1    C17   S    
H16   N1    S    
O7    Zn1   S    
C11   H8    S    
C2    O6    A    
C8    C12   A    
C17   C18   D    
C9    O9    S    
C8    C16   A    
C4    O9    S    
C13   C14   A    
C18   H15   S    
C9    H2    S    
O1    Zn1   S    
C17   H14   S    
C1    O1    A    
C2    O5    A    
H9    N2    S    
C9    C10   S    
N1    N2    D    
C6    H11   S    
O4    Zn2   S    
N1    Zn2   S    
C5    H10   S    
O5    Zn1   S    
C5    C6    A    
C3    O7    A    
C9    H3    S    
C4    C12   A    
C19   O3    A    
C1    O2    A    
C15   C16   A    
C14   H1    S    
C7    C8    A    
C7    H12   S    
C12   C13   A    
C10   C11   S    
O8    Zn2   S    
C11   H6    S    
C14   C15   A    
C4    C5    A    
C13   C19   S    
C11   H7    S    
C10   H5    S    
C3    O8    A    
C3    C16   S    
C19   O4    A    
C2    C18   S    
O2    Zn2   S    
C15   H13   S    
