data_mof_unit_32512.cif
_audit_creation_date              2012-10-26T19:23:39-0400
_audit_creation_method            fapswitch 2.2
_symmetry_space_group_name_H-M    P1
_symmetry_Int_Tables_number       1
_space_group_crystal_system       triclinic
_cell_length_a                    27.761702
_cell_length_b                    13.304242
_cell_length_c                    11.798884
_cell_angle_alpha                 98.909072
_cell_angle_beta                  94.069169
_cell_angle_gamma                 93.288874
_cell_volume                      4284.12404761

loop_
_atom_site_label
_atom_site_type_symbol
_atom_type_description
_atom_site_fract_x
_atom_site_fract_y
_atom_site_fract_z
_atom_type_partial_charge
C1    C     C_R   0.502004 0.300389 0.480211 0.525736
C2    C     C_R   0.868185 0.470632 0.384627 0.032209
C3    C     C_R   0.354734 0.496142 0.499290 -0.038423
C4    C     C_R   0.645405 0.505383 0.498561 -0.021022
C5    C     C_R   0.969377 0.450662 0.393075 0.017288
C6    C     C_R   0.029593 0.564602 0.574151 0.022186
C7    C     C_R   0.978815 0.556589 0.582600 0.050776
C8    C     C_R   0.019443 0.432136 0.405037 0.040826
C9    C     C_R   0.948752 0.508436 0.485927 -0.052997
C10   C     C_R   0.050019 0.496958 0.489216 -0.055485
C11   C     C_R   0.940300 0.418236 0.289089 0.206373
C12   C     C_R   0.500890 0.701138 0.520287 0.514493
C13   C     C_R   0.059738 0.643895 0.640981 0.204280
C14   C     C_R   0.889339 0.421661 0.287063 0.245992
C15   C     C_R   0.110442 0.637247 0.648546 0.245772
C16   C     C_R   0.407729 0.498924 0.499802 0.541514
C17   C     C_R   0.592319 0.500770 0.499938 0.538175
C18   C     C_R   0.039557 0.349755 0.337738 0.075252
C19   C     C_R   0.957147 0.592992 0.684948 0.073481
C20   C     C_R   0.503413 0.815591 0.530203 -0.065962
C21   C     C_R   0.505304 0.188635 0.471407 -0.038636
C22   C     C_R   0.477622 0.026396 0.358566 0.228733
C23   C     C_R   0.100820 0.493990 0.488916 -0.104701
C24   C     C_R   0.533957 0.979845 0.637727 0.219307
C25   C     C_R   0.495593 0.127233 0.362165 -0.033849
C26   C     C_R   0.519434 0.878005 0.638248 0.008372
C27   C     C_R   0.514096 0.139624 0.570191 -0.043354
C28   C     C_R   0.493503 0.864946 0.431167 -0.027970
C29   C     C_R   0.514307 0.031314 0.551966 -0.035572
C30   C     C_R   0.493733 0.973397 0.447328 0.021039
C31   C     C_R   0.443848 0.430584 0.026658 -0.089845
C32   C     C_R   0.556584 0.565822 0.973387 -0.094201
C33   C     C_R   0.450707 0.430532 0.145544 0.331409
C34   C     C_R   0.898112 0.515814 0.483612 -0.104405
C35   C     C_R   0.550147 0.565429 0.854698 0.318571
C36   C     C_R   0.526075 0.526531 0.153022 0.341681
C37   C     C_R   0.473794 0.473387 0.846852 0.346491
C38   C     C_R   0.520931 0.522333 0.031815 -0.058086
C39   C     C_R   0.479004 0.476277 0.968148 -0.057913
C40   C     C_R   0.172537 0.423603 0.409874 0.376304
C41   C     C_R   0.826472 0.560819 0.581023 0.404514
C42   C     C_R   0.181489 0.554812 0.574055 0.428809
C43   C     C_R   0.817629 0.475972 0.386504 0.463476
C44   C     C_R   0.279175 0.575558 0.465474 0.264947
C45   C     C_R   0.121209 0.424881 0.404245 0.006187
C46   C     C_R   0.722430 0.424710 0.507487 0.277980
C47   C     C_R   0.330041 0.582499 0.478215 0.000594
C48   C     C_R   0.671112 0.417096 0.507380 -0.046965
C49   C     C_R   0.328400 0.406585 0.518477 0.004896
C50   C     C_R   0.670369 0.597317 0.481395 0.009219
C51   C     C_R   0.277775 0.405843 0.522156 0.275711
C52   C     C_R   0.720648 0.600550 0.471528 0.244972
C53   C     C_R   0.252908 0.489209 0.492317 0.200956
C54   C     C_R   0.746402 0.514751 0.486881 0.256647
C55   C     C_3   0.353271 0.310678 0.537198 -0.204477
C56   C     C_R   0.877467 0.568160 0.580501 0.009632
C57   C     C_3   0.343903 0.227027 0.431449 -0.285785
C58   C     C_3   0.364007 0.127344 0.455472 -0.452879
C59   C     C_3   0.644399 0.693323 0.469260 -0.201908
C60   C     C_3   0.656921 0.776727 0.574422 -0.270173
C61   C     C_3   0.646280 0.881500 0.545742 -0.450155
C62   C     C_3   0.526805 0.833730 0.749655 -0.196370
C63   C     C_3   0.537091 0.905336 0.865181 -0.280426
C64   C     C_3   0.534434 0.844427 0.964677 -0.480523
C65   C     C_3   0.507424 0.164246 0.250553 -0.239318
C66   C     C_3   0.530571 0.084487 0.167369 -0.317022
C67   C     C_R   0.089703 0.357870 0.320239 0.012669
C68   C     C_3   0.553265 0.133293 0.073339 -0.466506
C69   C     C_3   0.109606 0.303445 0.210647 -0.221845
C70   C     C_3   0.073305 0.266759 0.105658 -0.332790
C71   C     C_3   0.098074 0.256610 0.993186 -0.455424
C72   C     C_3   0.891698 0.702789 0.764804 -0.235414
C73   C     C_3   0.927677 0.797604 0.788036 -0.310849
C74   C     C_3   0.907912 0.884648 0.867501 -0.456822
C75   C     C_3   0.644396 0.314499 0.511288 -0.257100
C76   C     C_3   0.649154 0.238044 0.401268 -0.288622
C77   C     C_3   0.635589 0.128922 0.418355 -0.468667
C78   C     C_R   0.908370 0.617547 0.676881 0.019270
C79   C     C_3   0.356741 0.684103 0.470500 -0.215905
C80   C     C_3   0.349505 0.764110 0.575640 -0.272490
C81   C     C_3   0.370746 0.869519 0.562126 -0.455912
C82   C     C_3   0.010156 0.246674 0.312762 -0.226179
C83   C     C_3   0.036846 0.161988 0.360088 -0.319626
C84   C     C_3   0.004995 0.062595 0.343569 -0.448614
C85   C     C_3   0.981031 0.580301 0.802242 -0.243306
C86   C     C_3   0.987123 0.467207 0.807770 -0.316835
C87   C     C_3   0.010597 0.452671 0.924292 -0.446919
C88   C     C_3   0.489773 0.807494 0.307125 -0.173101
C89   C     C_R   0.131078 0.561849 0.572234 0.030453
C90   C     C_3   0.438556 0.758250 0.265724 -0.245543
C91   C     C_3   0.430947 0.737395 0.134637 -0.431839
C92   C     C_3   0.518754 0.197241 0.694940 -0.196413
C93   C     C_3   0.567734 0.260077 0.730349 -0.266595
C94   C     C_3   0.580881 0.273738 0.859609 -0.444379
Cu1   Cu    Cu3+1 0.503580 0.507730 0.615930 0.920992
Cu2   Cu    Cu3+1 0.496420 0.492270 0.384070 0.925310
H1    H     H_    0.411186 0.392030 0.980303 0.191117
H2    H     H_    0.669640 0.901639 0.478830 0.165760
H3    H     H_    0.512821 0.143713 0.756728 0.176245
H4    H     H_    0.607802 0.882229 0.513512 0.158352
H5    H     H_    0.654165 0.939532 0.624127 0.166224
H6    H     H_    0.635295 0.760006 0.645848 0.163053
H7    H     H_    0.695768 0.779256 0.605347 0.223492
H8    H     H_    0.654794 0.720652 0.389334 0.198340
H9    H     H_    0.604528 0.679613 0.458645 0.124843
H10   H     H_    0.496842 0.812863 0.968588 0.149095
H11   H     H_    0.558798 0.781055 0.953549 0.185850
H12   H     H_    0.546585 0.893412 0.047434 0.138914
H13   H     H_    0.589683 0.602471 0.019561 0.193394
H14   H     H_    0.574515 0.940858 0.872219 0.224820
H15   H     H_    0.510575 0.965030 0.873719 0.175781
H16   H     H_    0.492944 0.788150 0.759093 0.172823
H17   H     H_    0.558167 0.787416 0.740136 0.156165
H18   H     H_    0.524507 0.159256 0.016504 0.154886
H19   H     H_    0.578905 0.199137 0.110963 0.160749
H20   H     H_    0.574068 0.077125 0.021599 0.153089
H21   H     H_    0.559169 0.048663 0.214945 0.161688
H22   H     H_    0.502658 0.024517 0.126092 0.189118
H23   H     H_    0.474425 0.189498 0.207315 0.152539
H24   H     H_    0.403221 0.139303 0.483031 0.160184
H25   H     H_    0.535394 0.228612 0.270493 0.187973
H26   H     H_    0.430501 0.033206 0.229838 0.324957
H27   H     H_    0.594379 0.059578 0.666478 0.320401
H28   H     H_    0.443586 0.384028 0.716391 0.350466
H29   H     H_    0.557261 0.613452 0.284854 0.352711
H30   H     H_    0.573023 0.637030 0.739649 0.359155
H31   H     H_    0.430713 0.350524 0.257925 0.360393
H32   H     H_    0.220633 0.338107 0.573282 0.348507
H33   H     H_    0.777762 0.679349 0.434327 0.338988
H34   H     H_    0.112907 0.332428 0.978422 0.163172
H35   H     H_    0.344782 0.097994 0.524342 0.164146
H36   H     H_    0.127877 0.204536 0.995810 0.175749
H37   H     H_    0.071360 0.224768 0.920094 0.146259
H38   H     H_    0.056999 0.189887 0.111685 0.158406
H39   H     H_    0.044679 0.321190 0.101371 0.212061
H40   H     H_    0.135348 0.359861 0.182295 0.200204
H41   H     H_    0.129794 0.237797 0.230643 0.182183
H42   H     H_    0.873810 0.908038 0.827298 0.166252
H43   H     H_    0.900877 0.860648 0.951232 0.163062
H44   H     H_    0.934836 0.951324 0.883550 0.150343
H45   H     H_    0.962634 0.779905 0.829311 0.195724
H46   H     H_    0.358797 0.069449 0.376277 0.172261
H47   H     H_    0.934720 0.823698 0.705269 0.193357
H48   H     H_    0.857497 0.730808 0.731712 0.201742
H49   H     H_    0.885253 0.673970 0.846266 0.165713
H50   H     H_    0.660095 0.107000 0.487622 0.151435
H51   H     H_    0.597794 0.121428 0.441658 0.158906
H52   H     H_    0.639073 0.075815 0.337435 0.149930
H53   H     H_    0.625081 0.257849 0.329849 0.168172
H54   H     H_    0.686718 0.241121 0.374787 0.214433
H55   H     H_    0.658305 0.284669 0.589066 0.127405
H56   H     H_    0.605292 0.320903 0.520609 0.151637
H57   H     H_    0.304467 0.212794 0.406511 0.229661
H58   H     H_    0.410356 0.868856 0.557033 0.161008
H59   H     H_    0.354003 0.893478 0.483146 0.169853
H60   H     H_    0.363630 0.925946 0.637716 0.150652
H61   H     H_    0.310416 0.769500 0.588187 0.239023
H62   H     H_    0.367391 0.741167 0.654111 0.167365
H63   H     H_    0.396128 0.677734 0.466445 0.136067
H64   H     H_    0.343363 0.710641 0.389897 0.180298
H65   H     H_    0.733295 0.294316 0.560064 0.325437
H66   H     H_    0.222098 0.633809 0.401838 0.344716
H67   H     H_    0.875930 0.317363 0.151924 0.326018
H68   H     H_    0.361607 0.252027 0.357904 0.174983
H69   H     H_    0.121578 0.728406 0.794855 0.323752
H70   H     H_    0.941252 0.401777 0.122202 0.332422
H71   H     H_    0.063453 0.789797 0.699538 0.338932
H72   H     H_    0.971915 0.073407 0.390549 0.159981
H73   H     H_    0.994365 0.036415 0.250653 0.153949
H74   H     H_    0.025349 0.002813 0.377746 0.160890
H75   H     H_    0.070141 0.147084 0.315505 0.170418
H76   H     H_    0.047390 0.186086 0.453480 0.169788
H77   H     H_    0.975881 0.251990 0.355909 0.150222
H78   H     H_    0.998762 0.224161 0.220297 0.174423
H79   H     H_    0.392917 0.324990 0.554583 0.135932
H80   H     H_    0.048308 0.487526 0.936883 0.161322
H81   H     H_    0.989637 0.488039 0.994853 0.178622
H82   H     H_    0.011291 0.369895 0.927413 0.152182
H83   H     H_    0.951029 0.424455 0.793040 0.178278
H84   H     H_    0.010130 0.434494 0.739897 0.163098
H85   H     H_    0.016493 0.623684 0.822984 0.189582
H86   H     H_    0.958495 0.609050 0.872581 0.136462
H87   H     H_    0.459429 0.689865 0.098199 0.147994
H88   H     H_    0.395087 0.695980 0.107874 0.160274
H89   H     H_    0.431934 0.810254 0.099715 0.179369
H90   H     H_    0.340125 0.283070 0.614540 0.199523
H91   H     H_    0.432375 0.684679 0.296605 0.188263
H92   H     H_    0.410503 0.808406 0.299666 0.199763
H93   H     H_    0.501737 0.858701 0.247225 0.171918
H94   H     H_    0.517684 0.752376 0.294591 0.134318
H95   H     H_    0.550588 0.304965 0.907501 0.150578
H96   H     H_    0.589458 0.199395 0.884453 0.181576
H97   H     H_    0.613413 0.327571 0.882783 0.168297
H98   H     H_    0.597307 0.223103 0.685970 0.144607
H99   H     H_    0.567311 0.337330 0.707351 0.216791
H100  H     H_    0.487935 0.245000 0.710699 0.141614
N1    N     N_R   0.200900 0.488349 0.492622 -0.430093
N2    N     N_R   0.798189 0.518715 0.484097 -0.389176
N3    N     N_R   0.508960 0.519350 0.790140 -0.244428
N4    N     N_R   0.491040 0.480650 0.209860 -0.243356
O1    O     O_R   0.502540 0.354460 0.582000 -0.550605
O2    O     O_2   0.805002 0.589194 0.678865 -0.495132
O3    O     O_2   0.787734 0.437653 0.292682 -0.399146
O4    O     O_2   0.211383 0.614050 0.656100 -0.403101
O5    O     O_3   0.444127 0.980411 0.271026 -0.751754
O6    O     O_3   0.572528 0.023582 0.712004 -0.752338
O7    O     O_3   0.433197 0.421346 0.787948 -0.712965
O8    O     O_3   0.566869 0.578446 0.211387 -0.715534
O9    O     O_3   0.587220 0.612253 0.807363 -0.707484
O10   O     O_3   0.415236 0.378747 0.193448 -0.700610
O11   O     O_3   0.253831 0.322142 0.554938 -0.691389
O12   O     O_R   0.497460 0.645540 0.418000 -0.545017
O13   O     O_3   0.743362 0.689063 0.446572 -0.708762
O14   O     O_3   0.751105 0.345609 0.524063 -0.673720
O15   O     O_3   0.256196 0.655767 0.428660 -0.692598
O16   O     O_3   0.859892 0.376096 0.191403 -0.640414
O17   O     O_3   0.140066 0.704930 0.728003 -0.641284
O18   O     O_3   0.962775 0.390857 0.189119 -0.757815
O19   O     O_3   0.039032 0.731151 0.688748 -0.750211
O20   O     O_R   0.496500 0.341410 0.386200 -0.540304
O21   O     O_R   0.503500 0.658590 0.613800 -0.537363
O22   O     O_R   0.433290 0.506540 0.597890 -0.476963
O23   O     O_R   0.566710 0.493460 0.402110 -0.484822
O24   O     O_R   0.427240 0.493490 0.402090 -0.485688
O25   O     O_R   0.572760 0.506510 0.597910 -0.500417
O26   O     O_2   0.194500 0.356478 0.336569 -0.507733

loop_
_geom_bond_atom_site_label_1
_geom_bond_atom_site_label_2
_ccdc_geom_bond_type
C66   C68   S    
H65   O14   S    
C34   C56   A    
C93   C94   S    
Cu2   O12   S    
C91   H87   S    
C27   C29   A    
C44   O15   S    
C73   C74   S    
C42   O4    S    
C93   H98   S    
C48   C75   S    
C47   C79   S    
C1    O1    A    
C49   C51   A    
C3    C49   A    
C35   N3    A    
C73   H45   S    
C85   C86   S    
C1    C21   S    
C87   H80   S    
C74   H42   S    
C5    C9    A    
C85   H86   S    
C81   H60   S    
C21   C25   A    
C2    C43   A    
C23   C45   A    
C59   H8    S    
C24   C26   A    
C5    C11   A    
C84   H74   S    
H32   O11   S    
C79   H63   S    
C38   C39   A    
C11   C14   A    
C15   C89   A    
C40   N1    A    
C72   H49   S    
C94   H97   S    
C72   H48   S    
C56   C78   A    
C61   H2    S    
C7    C9    A    
C36   O8    S    
C55   H90   S    
C3    C47   A    
C94   H95   S    
C92   C93   S    
C72   C78   S    
C71   H36   S    
C24   C29   A    
C17   O25   A    
C44   C53   A    
Cu1   Cu2   S    
C75   H55   S    
C46   O14   S    
C66   H21   S    
C83   H75   S    
C28   C88   S    
C50   C52   A    
C31   C33   A    
C70   C71   S    
C65   H25   S    
C15   O17   S    
C60   H7    S    
H70   O18   S    
C44   C47   A    
H69   O17   S    
C72   C73   S    
C2    C34   A    
C37   N3    A    
C21   C27   A    
C59   C60   S    
C91   H88   S    
H33   O13   S    
C37   O7    S    
H26   O5    S    
C12   C20   S    
C93   H99   S    
C60   H6    S    
H71   O19   S    
C52   C54   A    
C64   H12   S    
C57   C58   S    
H66   O15   S    
C69   H41   S    
C40   C45   A    
C46   C48   A    
Cu1   O22   S    
C32   H13   S    
C32   C35   A    
C82   H78   S    
C25   C65   S    
C76   C77   S    
C12   O12   A    
C62   H17   S    
C87   H82   S    
C84   H73   S    
C66   H22   S    
C79   H64   S    
C86   C87   S    
C41   N2    A    
C20   C28   A    
C33   N4    A    
Cu2   O24   S    
C18   C67   A    
C49   C55   S    
C74   H44   S    
C22   C25   A    
C8    C18   A    
C81   H58   S    
C63   C64   S    
C22   O5    S    
C4    C50   A    
C60   C61   S    
C67   C69   S    
C19   C78   A    
C61   H5    S    
C75   C76   S    
Cu1   O25   S    
C41   C56   A    
C45   C67   A    
C62   C63   S    
C17   O23   A    
C87   H81   S    
C33   O10   S    
C58   H46   S    
H31   O10   S    
C80   H62   S    
C83   C84   S    
C77   H52   S    
C82   H77   S    
C76   H54   S    
C58   H35   S    
Cu2   O23   S    
C83   H76   S    
C46   C54   A    
C86   H84   S    
C23   C89   A    
C65   H23   S    
C14   O16   S    
C27   C92   S    
Cu1   O21   S    
C59   H9    S    
C13   O19   S    
C52   O13   S    
C11   O18   S    
C55   H79   S    
C68   H20   S    
C4    C17   S    
Cu1   N3    S    
C90   H92   S    
C88   C90   S    
C82   C83   S    
C69   H40   S    
C32   C38   A    
C13   C15   A    
H28   O7    S    
C43   O3    S    
C70   H39   S    
C16   O24   A    
C61   H4    S    
C58   H24   S    
C50   C59   S    
C90   C91   S    
C36   C38   A    
C51   C53   A    
C64   H11   S    
C4    C48   A    
C73   H47   S    
Cu2   N4    S    
C57   H57   S    
C85   H85   S    
C22   C30   A    
C88   H94   S    
C42   N1    A    
C36   N4    A    
C80   C81   S    
C19   C85   S    
H30   O9    S    
C54   N2    S    
C16   O22   A    
C71   H37   S    
C5    C8    A    
C1    O20   A    
C64   H10   S    
C6    C7    A    
C10   C23   A    
Cu1   O1    S    
C75   H56   S    
C74   H43   S    
H29   O8    S    
C7    C19   A    
C81   H59   S    
C42   C89   A    
C53   N1    S    
C63   H14   S    
C55   C57   S    
C35   O9    S    
C28   C30   A    
C37   C39   A    
C40   O26   S    
Cu2   O20   S    
C6    C13   A    
H67   O16   S    
C80   H61   S    
C9    C34   A    
C57   H68   S    
C20   C26   A    
C76   H53   S    
C92   H100  S    
C26   C62   S    
C24   O6    S    
C86   H83   S    
C18   C82   S    
C31   C39   A    
C43   N2    A    
C31   H1    S    
C63   H15   S    
C69   C70   S    
C2    C14   A    
C94   H96   S    
C12   O21   A    
C6    C10   A    
C68   H19   S    
C29   C30   A    
C79   C80   S    
C51   O11   S    
C62   H16   S    
C84   H72   S    
H27   O6    S    
C8    C10   A    
C65   C66   S    
C90   H91   S    
C70   H38   S    
C77   H51   S    
C91   H89   S    
C41   O2    S    
C77   H50   S    
C3    C16   S    
C92   H3    S    
C68   H18   S    
C88   H93   S    
C71   H34   S    
