data_mof_unit_54714.cif
_audit_creation_date              2012-12-10T17:24:44-0500
_audit_creation_method            fapswitch 2.2
_symmetry_space_group_name_H-M    P1
_symmetry_Int_Tables_number       1
_space_group_crystal_system       triclinic
_cell_length_a                    23.469783
_cell_length_b                    10.857619
_cell_length_c                    9.613397
_cell_angle_alpha                 88.433966
_cell_angle_beta                  90.181566
_cell_angle_gamma                 93.824397
_cell_volume                      2443.37275904

loop_
_atom_site_label
_atom_site_type_symbol
_atom_type_description
_atom_site_fract_x
_atom_site_fract_y
_atom_site_fract_z
_atom_type_partial_charge
C1    C     C_R   0.503872 0.262769 0.503176 0.935568
C2    C     C_R   0.967505 0.391141 0.742052 -0.033533
C3    C     C_R   0.027336 0.393890 0.738626 -0.068788
C4    C     C_R   0.058017 0.432537 0.618758 -0.048025
C5    C     C_R   0.028618 0.469096 0.498589 -0.081500
C6    C     C_R   0.059529 0.507584 0.377258 -0.179682
C7    C     C_R   0.029631 0.541575 0.256399 0.687281
C8    C     C_R   0.970257 0.538495 0.256987 -0.157575
C9    C     C_R   0.117837 0.433276 0.615699 0.653260
C10   C     C_R   0.119567 0.510937 0.380920 0.619547
C11   C     C_R   0.238132 0.393157 0.418051 -0.214714
C12   C     C_R   0.391130 0.498142 0.499861 0.933120
C13   C     C_R   0.298307 0.403383 0.417100 0.588598
C14   C     C_R   0.328518 0.490774 0.499217 -0.408656
C15   C     C_R   0.298763 0.568813 0.582188 0.452837
C16   C     C_R   0.239332 0.562374 0.580334 0.679059
C17   C     C_R   0.208663 0.475326 0.498994 -0.056604
C18   C     C_R   0.753026 0.371045 0.501030 -0.209980
C19   C     C_R   0.693619 0.380613 0.502692 0.653374
C20   C     C_R   0.670682 0.496632 0.499983 -0.327347
C21   C     C_R   0.706723 0.606086 0.495439 -0.312823
C22   C     C_R   0.766165 0.596292 0.496841 0.748687
C23   C     C_R   0.496816 0.737093 0.498350 0.872327
C24   C     C_R   0.789216 0.480265 0.499326 0.038733
C25   C     C_R   0.494175 0.100533 0.771492 0.525740
C26   C     C_R   0.463958 0.034675 0.879023 -0.288415
C27   C     C_R   0.435367 0.920752 0.850348 0.653622
C28   C     C_R   0.442525 0.868213 0.721851 -0.154944
C29   C     C_R   0.475943 0.930762 0.616792 -0.149301
C30   C     C_R   0.493095 0.056028 0.633623 -0.078158
C31   C     C_R   0.509153 0.128495 0.511983 -0.233228
C32   C     C_R   0.523032 0.069211 0.390032 0.600059
C33   C     C_R   0.517165 0.941960 0.384017 0.575049
C34   C     C_R   0.608613 0.500307 0.500034 0.900701
C35   C     C_R   0.493794 0.871313 0.496793 -0.234340
C36   C     C_R   0.576733 0.662216 0.145310 -0.136313
C37   C     C_R   0.616073 0.742000 0.077374 0.596789
C38   C     C_R   0.617850 0.745012 0.935288 -0.273070
C39   C     C_R   0.580503 0.668600 0.858911 0.551190
C40   C     C_R   0.538918 0.581471 0.924273 0.073795
C41   C     C_R   0.538190 0.580220 0.074196 -0.033645
C42   C     C_R   0.463176 0.424686 0.075566 0.727201
C43   C     C_R   0.463313 0.424583 0.927942 -0.064553
C44   C     C_R   0.879694 0.502740 0.379310 0.668467
C45   C     C_R   0.877439 0.444380 0.620688 0.552309
C46   C     C_R   0.937250 0.432685 0.622606 -0.083101
C47   C     C_R   0.968322 0.467947 0.499827 0.001494
C48   C     C_R   0.939293 0.503118 0.377809 -0.131355
Cu1   Cu    Cu3+1 0.500000 0.499990 0.640660 1.075915
Cu2   Cu    Cu3+1 0.500000 0.500010 0.359340 1.106732
H1    H     H_    0.421461 0.778295 0.705365 0.239010
H2    H     H_    0.050073 0.362297 0.829778 0.228370
H3    H     H_    0.578155 0.670563 0.254368 0.223681
H4    H     H_    0.648539 0.808945 0.882435 0.234194
H5    H     H_    0.433324 0.362362 0.874349 0.155313
H6    H     H_    0.948630 0.565329 0.162282 0.231865
N1    N     N_R   0.850256 0.474745 0.499542 -0.436846
N2    N     N_R   0.147265 0.472470 0.498264 -0.446162
N3    N     N_R   0.500540 0.501210 0.147910 -0.219962
N4    N     N_R   0.500560 0.501290 0.852040 -0.192597
O1    O     O_R   0.500000 0.319640 0.618810 -0.547507
O2    O     O_2   0.846498 0.429483 0.738494 -0.522864
O3    O     O_2   0.146473 0.394794 0.729067 -0.462949
O4    O     O_2   0.150241 0.552337 0.268657 -0.400050
O5    O     O_R   0.500000 0.319660 0.381240 -0.496859
O6    O     O_R   0.417880 0.499950 0.618810 -0.578961
O7    O     O_R   0.417880 0.499980 0.381240 -0.502390
O8    O     O_R   0.500000 0.680340 0.618760 -0.539316
O9    O     O_R   0.500000 0.680360 0.381190 -0.571897
O10   O     O_R   0.582120 0.500020 0.618760 -0.489463
O11   O     O_R   0.582120 0.500050 0.381190 -0.617664
O12   O     O_2   0.851208 0.531313 0.261833 -0.479554
C49   C     C_2   0.938832 0.335554 0.868589 0.481802
H7    H     H_    0.898150 0.282795 0.861372 0.130622
O13   O     O_2   0.961495 0.344680 0.982728 -0.517657
F1    F     F_    0.657484 0.277271 0.504974 -0.584496
C50   C     C_2   0.682327 0.729366 0.487571 0.646935
H8    H     H_    0.636670 0.736636 0.476615 0.054778
O14   O     O_2   0.712749 0.824826 0.492768 -0.380714
F2    F     F_    0.802483 0.699163 0.494822 -0.569889
F3    F     F_    0.544802 0.134380 0.277535 -0.589164
F4    F     F_    0.531564 0.195253 0.807556 -0.628848
C51   C     C_2   0.463540 0.085813 0.020342 0.647757
H9    H     H_    0.488900 0.170152 0.042207 0.134866
O15   O     O_2   0.434864 0.035325 0.113935 -0.412948
F5    F     F_    0.403845 0.855742 0.949004 -0.554578
F6    F     F_    0.534383 0.888671 0.266801 -0.605996
F7    F     F_    0.425108 0.347221 0.145863 -0.587735
F8    F     F_    0.652309 0.818452 0.150576 -0.576029
F9    F     F_    0.588643 0.689192 0.722839 -0.667614
F10   F     F_    0.057291 0.577271 0.136639 -0.566182
C52   C     C_2   0.205912 0.295588 0.338445 0.631782
H10   H     H_    0.160134 0.279295 0.351639 0.033392
O16   O     O_2   0.229848 0.231752 0.257186 -0.401819
F11   F     F_    0.327805 0.325136 0.341293 -0.535808
F12   F     F_    0.327265 0.653541 0.662308 -0.593486
F13   F     F_    0.211186 0.641832 0.657346 -0.543046
C53   C     C_2   0.777633 0.248289 0.498507 0.587512
H11   H     H_    0.823301 0.241827 0.487575 0.035828
O17   O     O_2   0.747433 0.152450 0.508272 -0.388461

loop_
_geom_bond_atom_site_label_1
_geom_bond_atom_site_label_2
_ccdc_geom_bond_type
C26   C51   S    
C40   N4    A    
Cu1   O8    S    
C49   H7    S    
C23   O9    A    
C19   C20   A    
C8    H6    S    
C7    C8    A    
C50   H8    S    
C2    C46   A    
C32   F3    S    
C5    C47   A    
C45   N1    A    
C26   C27   A    
C37   C38   A    
Cu1   N4    S    
C13   F11   S    
C51   H9    S    
C18   C24   A    
Cu2   N3    S    
C19   F1    S    
C10   N2    A    
Cu2   O9    S    
C18   C19   A    
C38   C39   A    
C28   H1    S    
C16   F13   S    
C15   C16   A    
C45   O2    S    
C1    C31   S    
C9    N2    A    
C36   H3    S    
C11   C52   S    
C11   C17   A    
C31   C32   A    
C16   C17   A    
C1    O5    A    
Cu2   O7    S    
C34   O10   A    
C39   F9    S    
C17   N2    S    
C20   C34   S    
C21   C22   A    
C49   O13   D    
C36   C41   A    
C50   O14   D    
C12   O7    A    
Cu1   O1    S    
Cu1   O6    S    
C41   N3    A    
C39   C40   A    
C24   N1    S    
C25   C26   A    
C45   C46   A    
C12   O6    A    
C23   O8    A    
C27   F5    S    
Cu2   O11   S    
C8    C48   A    
C29   C30   A    
C47   C48   A    
C38   H4    S    
C44   N1    A    
C7    F10   S    
C52   O16   D    
C2    C49   S    
C43   N4    A    
C43   H5    S    
C40   C41   A    
C51   O15   D    
C12   C14   S    
Cu1   Cu2   S    
C23   C35   S    
Cu1   O10   S    
C25   F4    S    
C22   C24   A    
C42   F7    S    
C42   C43   A    
C3    C4    A    
C15   F12   S    
C25   C30   A    
C46   C47   A    
C28   C29   A    
C9    O3    S    
C10   O4    S    
C4    C5    A    
C1    O1    A    
C42   N3    A    
C6    C10   A    
C3    H2    S    
C6    C7    A    
C29   C35   A    
C53   O17   D    
C37   F8    S    
C32   C33   A    
C2    C3    A    
C33   F6    S    
C22   F2    S    
C11   C13   A    
C30   C31   A    
C52   H10   S    
C33   C35   A    
C44   O12   S    
Cu2   O5    S    
C20   C21   A    
C36   C37   A    
C53   H11   S    
C21   C50   S    
C27   C28   A    
C5    C6    A    
C14   C15   A    
C18   C53   S    
C4    C9    A    
C13   C14   A    
C34   O11   A    
C44   C48   A    
