data_mof_unit_54174.cif
_audit_creation_date              2012-12-10T20:43:25-0500
_audit_creation_method            fapswitch 2.2
_symmetry_space_group_name_H-M    P1
_symmetry_Int_Tables_number       1
_space_group_crystal_system       triclinic
_cell_length_a                    18.727009
_cell_length_b                    18.680023
_cell_length_c                    18.717836
_cell_angle_alpha                 109.365451
_cell_angle_beta                  109.411196
_cell_angle_gamma                 109.353617
_cell_volume                      5058.12066201

loop_
_atom_site_label
_atom_site_type_symbol
_atom_type_description
_atom_site_fract_x
_atom_site_fract_y
_atom_site_fract_z
_atom_type_partial_charge
C1    C     C_R   0.382041 0.502261 0.380065 0.863790
C2    C     C_R   0.776020 0.815372 0.829508 -0.137648
C3    C     C_R   0.918170 0.718256 0.947504 -0.126277
C4    C     C_R   0.920139 0.712931 0.020634 -0.206876
C5    C     C_R   0.995913 0.769542 0.102598 0.118538
C6    C     C_R   0.289296 0.524165 0.012777 -0.185293
C7    C     C_R   0.211995 0.465379 0.932821 -0.180800
C8    C     C_R   0.166783 0.377107 0.909079 0.090657
C9    C     C_R   0.203693 0.347306 0.963070 -0.262297
C10   C     C_R   0.280649 0.406145 0.043068 -0.183595
C11   C     C_R   0.322885 0.494780 0.068516 0.476315
C12   C     C_R   0.077444 0.248419 0.761776 -0.221779
C13   C     C_R   0.824608 0.820433 0.577593 -0.252886
C14   C     C_R   0.997476 0.184028 0.686532 -0.078129
C15   C     C_R   0.919150 0.183619 0.676199 0.021832
C16   C     C_R   0.923529 0.249833 0.742221 -0.191001
C17   C     C_R   0.003599 0.314705 0.816654 -0.047045
C18   C     C_R   0.081765 0.314724 0.827472 0.023417
C19   C     C_R   0.777574 0.137251 0.550937 -0.168819
C20   C     C_R   0.696357 0.072257 0.477542 -0.135181
C21   C     C_R   0.669257 0.984223 0.451738 -0.117610
C22   C     C_R   0.722889 0.961162 0.499901 -0.128400
C23   C     C_R   0.803342 0.025876 0.574309 -0.075227
C24   C     C_R   0.814001 0.810584 0.496942 -0.078008
C25   C     C_R   0.832213 0.114498 0.599378 0.134244
C26   C     C_R   0.739136 0.740066 0.418198 -0.016075
C27   C     C_R   0.679307 0.676419 0.422518 -0.268301
C28   C     C_R   0.689936 0.686112 0.503223 -0.089345
C29   C     C_R   0.761376 0.760386 0.582041 -0.005237
C30   C     C_R   0.641624 0.725617 0.278771 -0.103271
C31   C     C_R   0.621881 0.716249 0.196154 -0.087975
C32   C     C_R   0.679739 0.712727 0.165215 -0.144040
C33   C     C_R   0.622068 0.620176 0.501923 0.858518
C34   C     C_R   0.757671 0.719186 0.217122 -0.113846
C35   C     C_R   0.777672 0.728956 0.299887 -0.098263
C36   C     C_R   0.719695 0.731772 0.331265 0.108919
C37   C     C_R   0.445364 0.812737 0.506794 -0.137843
C38   C     C_R   0.377788 0.730068 0.437458 -0.169477
C39   C     C_R   0.396420 0.669460 0.390613 0.131666
C40   C     C_R   0.483512 0.693385 0.413473 -0.080284
C41   C     C_R   0.550853 0.775834 0.483454 -0.140804
C42   C     C_R   0.531925 0.835510 0.529961 -0.106309
C43   C     C_R   0.259021 0.577019 0.249965 -0.204263
C44   C     C_R   0.618530 0.498339 0.620034 0.859760
C45   C     C_R   0.185213 0.496460 0.184179 -0.077935
C46   C     C_R   0.174482 0.418393 0.185450 0.020005
C47   C     C_R   0.243501 0.422780 0.248369 -0.258827
C48   C     C_R   0.316987 0.503238 0.313915 -0.061097
C49   C     C_R   0.324078 0.581885 0.317438 0.026560
C50   C     C_R   0.053214 0.289867 0.164477 -0.161846
C51   C     C_R   0.979011 0.206981 0.111706 -0.207548
C52   C     C_R   0.943481 0.165389 0.021285 -0.172005
C53   C     C_R   0.981526 0.207082 0.983359 0.442748
C54   C     C_R   0.055124 0.290833 0.036066 -0.161633
C55   C     C_R   0.378046 0.379980 0.498253 0.868798
C56   C     C_R   0.092309 0.332599 0.127229 0.074836
C57   C     C_R   0.208701 0.518849 0.572360 -0.144566
C58   C     C_R   0.222346 0.449405 0.571415 -0.149621
C59   C     C_R   0.226533 0.396264 0.501184 0.140304
C60   C     C_R   0.215870 0.412944 0.431598 -0.130029
C61   C     C_R   0.201805 0.482222 0.432590 -0.124103
C62   C     C_R   0.198507 0.535284 0.503023 -0.105587
C63   C     C_R   0.176646 0.255328 0.498800 -0.253930
C64   C     C_R   0.186142 0.183939 0.497472 -0.075159
C65   C     C_R   0.259037 0.177450 0.497488 -0.004512
C66   C     C_R   0.782251 0.877388 0.802469 -0.114214
C67   C     C_R   0.320105 0.242504 0.495744 -0.261485
C68   C     C_R   0.310525 0.313743 0.496825 -0.078677
C69   C     C_R   0.239050 0.321555 0.499493 -0.005621
C70   C     C_R   0.350692 0.120506 0.563209 -0.152421
C71   C     C_R   0.365941 0.051763 0.561686 -0.132247
C72   C     C_R   0.304390 0.966124 0.494332 -0.134356
C73   C     C_R   0.227395 0.949101 0.428639 -0.131583
C74   C     C_R   0.211389 0.017539 0.430467 -0.100557
C75   C     C_R   0.273050 0.103835 0.497672 0.132483
C76   C     C_R   0.545978 0.561307 0.855032 -0.134368
C77   C     C_R   0.778520 0.859685 0.722268 -0.132753
C78   C     C_R   0.615820 0.563169 0.842149 -0.154804
C79   C     C_R   0.601943 0.493144 0.769982 0.139067
C80   C     C_R   0.517622 0.420877 0.711523 -0.130295
C81   C     C_R   0.448076 0.418996 0.725097 -0.124217
C82   C     C_R   0.462153 0.489296 0.796506 -0.103885
C83   C     C_R   0.741605 0.493736 0.819008 -0.260582
C84   C     C_R   0.813607 0.496638 0.810280 -0.080664
C85   C     C_R   0.821787 0.500674 0.739333 -0.003801
C86   C     C_R   0.755586 0.499993 0.676952 -0.262160
C87   C     C_R   0.683673 0.496961 0.685759 -0.083034
C88   C     C_R   0.769656 0.780010 0.668907 0.110720
C89   C     C_R   0.676413 0.494876 0.757560 -0.014202
C90   C     C_R   0.949250 0.574615 0.723416 -0.153076
C91   C     C_R   0.018834 0.576632 0.709925 -0.142971
C92   C     C_R   0.036081 0.507652 0.699538 -0.115405
C93   C     C_R   0.983626 0.436441 0.702384 -0.127920
C94   C     C_R   0.914104 0.434287 0.716111 -0.122050
C95   C     C_R   0.896751 0.503618 0.727188 0.142304
C96   C     C_R   0.998513 0.877962 0.380116 0.864895
C97   C     C_R   0.879938 0.878051 0.498149 0.860321
C98   C     C_R   0.998729 0.119060 0.620079 0.861098
C99   C     C_R   0.766588 0.719428 0.698069 -0.099646
C100  C     C_R   0.120110 0.118906 0.498740 0.866228
C101  C     C_R   0.002613 0.380112 0.882356 0.867820
C102  C     C_R   0.119804 0.497872 0.118483 0.861478
C103  C     C_R   0.999401 0.620095 0.119457 0.874240
C104  C     C_R   0.879991 0.498306 0.878015 0.874132
C105  C     C_R   0.097339 0.768692 0.550216 -0.209268
C106  C     C_R   0.090888 0.777906 0.477596 -0.093986
C107  C     C_R   0.010401 0.729642 0.400017 0.074754
C108  C     C_R   0.937655 0.668392 0.394522 -0.208045
C109  C     C_R   0.943532 0.659910 0.467735 0.273871
C110  C     C_R   0.767532 0.736319 0.777010 -0.108528
C111  C     C_R   0.023844 0.710577 0.545736 -0.103421
C112  C     C_R   0.001049 0.676833 0.256508 -0.253772
C113  C     C_R   0.998682 0.686068 0.184945 -0.082595
C114  C     C_R   0.997476 0.758316 0.177836 0.014340
C115  C     C_R   0.995328 0.819474 0.242302 -0.272726
C116  C     C_R   0.998744 0.811053 0.314659 -0.095890
C117  C     C_R   0.003443 0.740154 0.323309 -0.000633
C118  C     C_R   0.070422 0.832432 0.110586 0.251353
C119  C     C_R   0.066838 0.837362 0.036239 -0.137011
C120  C     C_R   0.991052 0.780373 0.955131 -0.145866
H1    H     H_    0.777154 0.828264 0.890792 0.127472
H2    H     H_    0.664322 0.705265 0.101184 0.121593
H3    H     H_    0.802665 0.716854 0.193323 0.141810
H4    H     H_    0.838554 0.735340 0.339951 0.102821
H5    H     H_    0.584350 0.899318 0.583942 0.135960
H6    H     H_    0.430634 0.858962 0.542813 0.121592
H7    H     H_    0.310982 0.712981 0.420735 0.117389
H8    H     H_    0.499084 0.648150 0.377385 0.134961
H9    H     H_    0.617811 0.793433 0.502097 0.134010
H10   H     H_    0.264656 0.636871 0.250285 0.156437
H11   H     H_    0.238131 0.363311 0.248911 0.151506
H12   H     H_    0.788596 0.938593 0.842974 0.143465
H13   H     H_    0.080360 0.320768 0.234553 0.138338
H14   H     H_    0.949514 0.174649 0.141032 0.153538
H15   H     H_    0.886590 0.100720 0.980810 0.148940
H16   H     H_    0.083084 0.323159 0.006250 0.140515
H17   H     H_    0.187685 0.588890 0.503691 0.124429
H18   H     H_    0.205782 0.559764 0.626729 0.119909
H19   H     H_    0.230005 0.437221 0.625460 0.117507
H20   H     H_    0.217726 0.371808 0.376522 0.096709
H21   H     H_    0.193050 0.494650 0.378666 0.134668
H22   H     H_    0.781049 0.907433 0.701077 0.144469
H23   H     H_    0.120672 0.259722 0.500061 0.154089
H24   H     H_    0.376270 0.238321 0.494835 0.155648
H25   H     H_    0.399282 0.186702 0.615423 0.123897
H26   H     H_    0.425725 0.064957 0.612433 0.129688
H27   H     H_    0.316433 0.912980 0.492856 0.116212
H28   H     H_    0.180417 0.882836 0.376145 0.142769
H29   H     H_    0.151552 0.003650 0.379246 0.095634
H30   H     H_    0.408180 0.487769 0.806705 0.121763
H31   H     H_    0.556894 0.615551 0.910552 0.121413
H32   H     H_    0.680574 0.619208 0.888044 0.114403
H33   H     H_    0.761104 0.658344 0.658589 0.095082
H34   H     H_    0.506072 0.365923 0.656164 0.102956
H35   H     H_    0.383292 0.362954 0.680579 0.141309
H36   H     H_    0.736986 0.492103 0.874790 0.158488
H37   H     H_    0.760353 0.502541 0.621520 0.153631
H38   H     H_    0.936407 0.628378 0.731210 0.117522
H39   H     H_    0.059248 0.631563 0.707303 0.119522
H40   H     H_    0.089828 0.509182 0.688885 0.116243
H41   H     H_    0.996664 0.382784 0.693514 0.130842
H42   H     H_    0.873282 0.378470 0.717313 0.093189
H43   H     H_    0.029792 0.704801 0.602865 0.117922
H44   H     H_    0.759881 0.687396 0.796633 0.127866
H45   H     H_    0.159363 0.806929 0.610201 0.131865
H46   H     H_    0.148335 0.823267 0.482050 0.134599
H47   H     H_    0.876280 0.627902 0.333606 0.142137
H48   H     H_    0.003678 0.621373 0.261434 0.156285
H49   H     H_    0.992749 0.874757 0.236945 0.157937
H50   H     H_    0.123016 0.884825 0.040763 0.130292
H51   H     H_    0.988997 0.783893 0.897959 0.136277
H52   H     H_    0.860502 0.673136 0.884544 0.139710
H53   H     H_    0.880897 0.877246 0.637495 0.162785
H54   H     H_    0.863044 0.663625 0.013182 0.119376
H55   H     H_    0.322615 0.592531 0.031596 0.149385
H56   H     H_    0.186852 0.488845 0.890078 0.153845
H57   H     H_    0.171079 0.278920 0.944575 0.181746
H58   H     H_    0.306829 0.382931 0.085582 0.175904
H59   H     H_    0.137041 0.247446 0.769121 0.159337
H60   H     H_    0.864066 0.250366 0.736219 0.145298
H61   H     H_    0.798336 0.205183 0.569394 0.123746
H62   H     H_    0.654769 0.090131 0.440225 0.133388
H63   H     H_    0.622183 0.620545 0.362572 0.183133
H64   H     H_    0.606845 0.933869 0.394336 0.134526
H65   H     H_    0.702563 0.893115 0.479015 0.128891
H66   H     H_    0.843702 0.006932 0.611542 0.110879
H67   H     H_    0.596466 0.728753 0.302211 0.159685
H68   H     H_    0.561678 0.711634 0.156095 0.152772
O1    O     O_R   0.408360 0.551710 0.460090 -0.612777
O2    O     O_R   0.948280 0.908380 0.356650 -0.624110
O3    O     O_R   0.960110 0.908350 0.551690 -0.614152
O4    O     O_R   0.856660 0.908370 0.448270 -0.614995
O5    O     O_R   0.051720 0.091580 0.643310 -0.619113
O6    O     O_R   0.948270 0.091600 0.539890 -0.616510
O7    O     O_R   0.143340 0.091590 0.551680 -0.614486
O8    O     O_R   0.039890 0.091610 0.448270 -0.624807
O9    O     O_R   0.051730 0.460050 0.908360 -0.632469
O10   O     O_R   0.948290 0.356630 0.908390 -0.595915
O11   O     O_R   0.143340 0.551690 0.091580 -0.616537
O12   O     O_R   0.408400 0.448280 0.356670 -0.614448
O13   O     O_R   0.039900 0.448270 0.091610 -0.620127
O14   O     O_R   0.051710 0.643320 0.091560 -0.614496
O15   O     O_R   0.948270 0.539900 0.091590 -0.625336
O16   O     O_R   0.960100 0.551680 0.908340 -0.602378
O17   O     O_R   0.856660 0.448270 0.908370 -0.626804
O18   O     O_R   0.591600 0.643340 0.551710 -0.608440
O19   O     O_R   0.591630 0.539900 0.448290 -0.619718
O20   O     O_R   0.591600 0.551720 0.643330 -0.613430
O21   O     O_R   0.591640 0.448290 0.539910 -0.624145
O22   O     O_R   0.408370 0.460100 0.551710 -0.604010
O23   O     O_R   0.408400 0.356660 0.448290 -0.627726
O24   O     O_R   0.051730 0.908360 0.460060 -0.613379
Zn1   Zn    Zn3+2 0.499980 0.569060 0.569060 0.991230
Zn2   Zn    Zn3+2 0.500020 0.430940 0.430940 0.959605
Zn3   Zn    Zn3+2 0.069070 0.999960 0.569030 0.968205
Zn4   Zn    Zn3+2 0.930930 0.999990 0.430930 0.964229
Zn5   Zn    Zn3+2 0.069070 0.569030 0.999960 0.966063
Zn6   Zn    Zn3+2 0.930930 0.430930 0.000000 0.973900
Cl1   Cl    Cl    0.937812 0.153032 0.869900 -0.686719
C121  C     C_3   0.864061 0.597289 0.461998 -0.931401
H69   H     H_    0.878618 0.598059 0.524928 0.236215
H70   H     H_    0.812608 0.615526 0.444772 0.259998
H71   H     H_    0.839177 0.529946 0.410846 0.244181
C122  C     C_3   0.153938 0.892528 0.196586 -0.938470
H72   H     H_    0.207193 0.933341 0.189909 0.238118
H73   H     H_    0.143391 0.936899 0.242963 0.238043
H74   H     H_    0.175264 0.853767 0.223309 0.252057
Cl2   Cl    Cl    0.417668 0.568752 0.170284 -0.727553

loop_
_geom_bond_atom_site_label_1
_geom_bond_atom_site_label_2
_ccdc_geom_bond_type
C58   H19   S    
C53   Cl1   S    
C21   H64   S    
O20   Zn1   S    
C96   O24   A    
C33   O18   A    
C5    C114  S    
C64   C100  S    
C85   C95   S    
C41   C42   A    
C35   C36   A    
O11   Zn5   S    
C115  H49   S    
C122  H72   S    
C19   H61   S    
C27   H63   S    
C121  H70   S    
C81   C82   A    
C57   C58   A    
C78   H32   S    
C7    C8    A    
C85   C86   A    
C116  C117  A    
C13   H53   S    
C26   C27   A    
C93   C94   A    
C83   C84   A    
C106  H46   S    
O14   Zn5   S    
C13   C29   A    
C28   C29   A    
C103  C113  S    
C102  O13   A    
C76   C78   A    
O13   Zn6   S    
C34   C35   A    
C109  C111  A    
O6    Zn4   S    
C112  C117  A    
O8    Zn4   S    
C51   H14   S    
C101  O9    A    
C3    H52   S    
C15   C25   S    
C106  C107  A    
C16   H60   S    
C15   C16   A    
C112  H48   S    
C44   O20   A    
C108  C109  A    
C98   O6    A    
C17   C18   A    
C44   O21   A    
C73   C74   A    
C96   O2    A    
C37   C42   A    
C17   C101  S    
C77   H22   S    
C121  H69   S    
C29   C88   S    
C42   H5    S    
O3    Zn3   S    
C118  C119  A    
C97   O4    A    
C2    C110  A    
C63   C69   A    
C77   C88   A    
C16   C17   A    
C65   C67   A    
C31   H68   S    
O12   Zn2   S    
C107  C108  A    
C74   H29   S    
O5    Zn3   S    
C70   C71   A    
C44   C87   S    
C9    C10   A    
C94   H42   S    
C91   H39   S    
C61   C62   A    
C72   C73   A    
C105  C111  A    
C59   C60   A    
C4    H54   S    
C21   C22   A    
O10   Zn6   S    
O9    Zn5   S    
C67   H24   S    
C112  C113  A    
C14   C98   S    
C66   H12   S    
C100  O8    A    
C38   C39   A    
C83   C89   A    
C54   C56   A    
O17   Zn6   S    
C74   C75   A    
C73   H28   S    
C118  C122  S    
C67   C68   A    
C10   H58   S    
C47   C48   A    
C32   H2    S    
C57   C62   A    
C111  H43   S    
C84   C85   A    
C113  C114  A    
C3    C120  A    
C114  C115  A    
C76   C82   A    
C91   C92   A    
C55   C68   S    
C86   C87   A    
C11   Cl2   S    
C83   H36   S    
C76   H31   S    
C33   O19   A    
C58   C59   A    
C53   C54   A    
C99   C110  A    
O19   Zn2   S    
C50   C56   A    
C24   C97   S    
C98   O5    A    
C47   H11   S    
C60   C61   A    
C32   C34   A    
C90   H38   S    
O4    Zn4   S    
C37   C38   A    
C2    H1    S    
C31   C32   A    
C14   C15   A    
O24   Zn3   S    
C93   H41   S    
C48   C49   A    
C54   H16   S    
C7    H56   S    
C12   H59   S    
C8    C18   S    
C50   C51   A    
C8    C9    A    
C120  H51   S    
C70   H25   S    
C104  O17   A    
C43   C45   A    
C82   H30   S    
O1    Zn1   S    
C59   C69   S    
C121  H71   S    
O18   Zn1   S    
C61   H21   S    
C40   C41   A    
C39   C49   S    
C108  H47   S    
C60   H20   S    
C28   C33   S    
C87   C89   A    
C84   C104  S    
C79   C80   A    
C1    O12   A    
C46   C56   S    
C3    C4    A    
O22   Zn1   S    
C122  H74   S    
C104  O16   A    
C6    C11   A    
C9    H57   S    
C52   C53   A    
C20   H62   S    
C37   H6    S    
C100  O7    A    
C26   C36   S    
C52   H15   S    
C66   C77   A    
C46   C47   A    
C35   H4    S    
C110  H44   S    
O15   Zn6   S    
C101  O10   A    
O7    Zn3   S    
C45   C102  S    
C68   C69   A    
C43   H10   S    
C43   C49   A    
C24   C26   A    
C80   C81   A    
C2    C66   A    
C50   H13   S    
C122  H73   S    
C23   H66   S    
C119  C120  A    
C1    C48   S    
C80   H34   S    
C6    C7    A    
C72   H27   S    
C105  C106  A    
C5    C118  A    
O21   Zn2   S    
C81   H35   S    
C30   C36   A    
O16   Zn5   S    
C92   H40   S    
C64   C65   A    
C19   C20   A    
C12   C14   A    
C103  O14   A    
C51   C52   A    
C109  C121  S    
C102  O11   A    
C30   H67   S    
C55   O22   A    
C41   H9    S    
C78   C79   A    
C90   C91   A    
C30   C31   A    
C22   H65   S    
C38   H7    S    
C4    C5    A    
C99   H33   S    
C92   C93   A    
C105  H45   S    
C57   H18   S    
C23   C25   A    
C62   H17   S    
C94   C95   A    
C19   C25   A    
C86   H37   S    
C103  O15   A    
C79   C89   S    
C88   C99   A    
C10   C11   A    
C119  H50   S    
C55   O23   A    
C63   C64   A    
C39   C40   A    
C45   C46   A    
C97   O3    A    
C71   H26   S    
C71   C72   A    
C20   C21   A    
C13   C24   A    
C6    H55   S    
C12   C18   A    
C27   C28   A    
C34   H3    S    
C63   H23   S    
C22   C23   A    
C96   C116  S    
C70   C75   A    
O23   Zn2   S    
O2    Zn4   S    
C107  C117  S    
C90   C95   A    
C65   C75   S    
C115  C116  A    
C1    O1    A    
C40   H8    S    
