data_mof_unit_57423.cif
_audit_creation_date              2012-12-11T17:09:32-0500
_audit_creation_method            fapswitch 2.2
_symmetry_space_group_name_H-M    P1
_symmetry_Int_Tables_number       1
_space_group_crystal_system       triclinic
_cell_length_a                    14.747056
_cell_length_b                    6.918744
_cell_length_c                    13.596583
_cell_angle_alpha                 90.000481
_cell_angle_beta                  99.927771
_cell_angle_gamma                 90.000231
_cell_volume                      1366.50117352

loop_
_atom_site_label
_atom_site_type_symbol
_atom_type_description
_atom_site_fract_x
_atom_site_fract_y
_atom_site_fract_z
_atom_type_partial_charge
O1    O     O_R   0.586930 0.505770 0.416350 -0.539387
O2    O     O_R   0.413070 0.005770 0.583650 -0.539385
O3    O     O_R   0.397900 0.173100 0.389630 -0.537380
O4    O     O_R   0.602100 0.673100 0.610370 -0.537380
C1    C     C_R   0.363865 0.345365 0.363302 0.728420
C2    C     C_R   0.636133 0.845367 0.636700 0.728423
O5    O     O_R   0.585280 0.175870 0.404330 -0.543799
O6    O     O_R   0.414720 0.675870 0.595670 -0.543804
O7    O     O_R   0.601790 0.008380 0.598460 -0.534556
O8    O     O_R   0.398210 0.508380 0.401540 -0.534559
C3    C     C_R   0.615071 0.344933 0.383378 0.720437
C4    C     C_R   0.384928 0.844933 0.616622 0.720432
O9    O     O_3   0.505200 0.340120 0.563670 -0.369883
O10   O     O_3   0.494800 0.840120 0.436330 -0.369880
V1    V     V_3+5 0.499040 0.064180 0.488190 1.405348
V2    V     V_3+5 0.500960 0.564180 0.511810 1.405340
C5    C     C_R   0.247280 0.995622 0.673408 0.100431
C6    C     C_R   0.752732 0.495596 0.326603 0.100458
C7    C     C_R   0.315351 0.852979 0.683151 -0.147651
C8    C     C_R   0.684648 0.352974 0.316848 -0.147618
C9    C     C_R   0.313034 0.710226 0.756154 -0.299394
C10   C     C_R   0.686955 0.210235 0.243832 -0.299467
H1    H     H_    0.362532 0.594054 0.761046 0.122626
H2    H     H_    0.637434 0.094097 0.238918 0.122564
C11   C     C_R   0.252080 0.724272 0.826886 0.418128
C12   C     C_R   0.747919 0.224275 0.173102 0.418125
C13   C     C_R   0.185368 0.875048 0.816875 -0.180400
C14   C     C_R   0.814636 0.375044 0.183127 -0.180356
C15   C     C_R   0.183262 0.004714 0.737321 0.019052
C16   C     C_R   0.816754 0.504677 0.262699 0.019086
C17   C     C_3   0.184707 0.220404 0.737714 -0.376291
C18   C     C_3   0.815393 0.720366 0.262389 -0.376434
C19   C     C_3   0.254943 0.209991 0.668100 -0.389330
C20   C     C_3   0.745139 0.709966 0.331986 -0.389340
H3    H     H_    0.213022 0.279480 0.812524 0.213107
H4    H     H_    0.787120 0.779583 0.187600 0.213058
H5    H     H_    0.117743 0.283137 0.701857 0.169647
H6    H     H_    0.882376 0.782943 0.298286 0.169631
H7    H     H_    0.324247 0.263316 0.702578 0.171227
H8    H     H_    0.675859 0.763414 0.297513 0.171234
H9    H     H_    0.228441 0.266533 0.592067 0.163205
H10   H     H_    0.771645 0.766397 0.408041 0.163199
C21   C     C_1   0.784754 0.876655 0.781281 -0.202437
C22   C     C_1   0.215241 0.376650 0.218726 -0.202454
C23   C     C_1   0.717226 0.859843 0.715513 -0.189122
C24   C     C_1   0.282770 0.359837 0.284492 -0.189121
O11   O     O_R   0.101720 0.231700 0.098560 -0.541991
O12   O     O_R   0.898280 0.731700 0.901440 -0.542001
O13   O     O_R   0.914700 0.558980 0.095690 -0.548837
O14   O     O_R   0.085300 0.058980 0.904310 -0.548832
C25   C     C_R   0.883379 0.389670 0.115110 0.735026
C26   C     C_R   0.116624 0.889670 0.884892 0.734982
O15   O     O_R   0.102080 0.561590 0.110390 -0.533448
O16   O     O_R   0.897920 0.061590 0.889610 -0.533416
O17   O     O_R   0.086950 0.728940 0.916330 -0.513767
O18   O     O_R   0.913050 0.228940 0.083670 -0.513773
C27   C     C_R   0.135359 0.391705 0.138396 0.749240
C28   C     C_R   0.864639 0.891706 0.861607 0.749224
O19   O     O_3   0.994770 0.394510 0.936380 -0.370677
O20   O     O_3   0.005230 0.894510 0.063620 -0.370691
V3    V     V_3+5 0.000970 0.670520 0.011800 1.468540
V4    V     V_3+5 0.999030 0.170520 0.988200 1.468579
O21   O     O_3   0.256109 0.596191 0.906794 -0.554636
C29   C     C_3   0.347455 0.539417 0.946188 0.062054
H11   H     H_    0.396446 0.663271 0.950834 0.115864
H12   H     H_    0.369684 0.421415 0.900182 0.117547
C30   C     C_3   0.351273 0.460795 0.050955 -0.710833
H13   H     H_    0.422797 0.416402 0.082468 0.164964
H14   H     H_    0.305534 0.332825 0.048763 0.215464
H15   H     H_    0.329087 0.574247 0.099478 0.223567
O22   O     O_3   0.743882 0.096243 0.093162 -0.554619
C31   C     C_3   0.652566 0.039154 0.053887 0.062188
H16   H     H_    0.603455 0.162785 0.049387 0.115822
H17   H     H_    0.630523 0.920924 0.099885 0.117537
C32   C     C_3   0.648694 0.960837 0.949053 -0.710729
H18   H     H_    0.577217 0.916090 0.917686 0.164944
H19   H     H_    0.694600 0.833190 0.951046 0.215496
H20   H     H_    0.670628 0.074553 0.900511 0.223463

loop_
_geom_bond_atom_site_label_1
_geom_bond_atom_site_label_2
_ccdc_geom_bond_type
C2    C23   S    
C13   C15   A    
C5    C15   A    
O1    C3    A    
O2    C4    A    
O11   V4    S    
O5    C3    A    
C19   H7    S    
C20   H8    S    
C18   H4    S    
C10   H2    S    
C7    C9    A    
C14   C25   S    
O20   V4    S    
C25   O18   A    
C11   O21   S    
C17   H3    S    
C21   C28   S    
O15   V3    S    
O13   C25   A    
C20   H10   S    
O14   C26   A    
C17   C19   S    
C6    C16   A    
O10   V2    S    
C18   H6    S    
C26   O17   A    
O5    V1    S    
O6    V2    S    
C12   O22   S    
C5    C19   S    
C2    O7    A    
C31   C32   S    
C22   C24   T    
C3    C8    S    
O19   V3    S    
O13   V3    S    
C30   H13   S    
C29   C30   S    
C31   H17   S    
O15   C27   A    
O16   V4    S    
C17   H5    S    
O20   V3    S    
C30   H14   S    
C18   C20   S    
O4    V2    S    
C32   H18   S    
O11   C27   A    
C6    C20   S    
O9    V1    S    
C22   C27   S    
O6    C4    A    
O1    V2    S    
O2    V1    S    
C32   H19   S    
O4    C2    A    
C8    C10   A    
C9    H1    S    
O14   V4    S    
O18   V4    S    
O3    V1    S    
C13   C26   S    
O16   C28   A    
C9    C11   A    
O19   V4    S    
C31   H16   S    
O3    C1    A    
O12   C28   A    
C11   C13   A    
C1    C24   S    
C12   C14   A    
C30   H15   S    
C19   H9    S    
C29   H11   S    
C14   C16   A    
O7    V1    S    
C1    O8    A    
C15   C17   S    
O8    V2    S    
C16   C18   S    
O12   V3    S    
O17   V3    S    
C4    C7    S    
C5    C7    A    
C6    C8    A    
C32   H20   S    
O21   C29   S    
O22   C31   S    
C10   C12   A    
O9    V2    S    
O10   V1    S    
C21   C23   T    
C29   H12   S    
