data_mof_unit_15248.cif
_audit_creation_date              2012-12-10T17:33:04-0500
_audit_creation_method            fapswitch 2.2
_symmetry_space_group_name_H-M    P1
_symmetry_Int_Tables_number       1
_space_group_crystal_system       triclinic
_cell_length_a                    12.353976
_cell_length_b                    13.262878
_cell_length_c                    14.266676
_cell_angle_alpha                 93.164819
_cell_angle_beta                  107.813207
_cell_angle_gamma                 116.988859
_cell_volume                      1930.58019843

loop_
_atom_site_label
_atom_site_type_symbol
_atom_type_description
_atom_site_fract_x
_atom_site_fract_y
_atom_site_fract_z
_atom_type_partial_charge
C1    C     C_R   0.651038 0.714121 0.508962 0.778337
C2    C     C_R   0.890503 0.555685 0.922512 0.086166
C3    C     C_R   0.860170 0.599016 0.998047 0.169303
C4    C     C_R   0.002424 0.541192 0.950326 0.065379
C5    C     C_R   0.071140 0.553572 0.053838 0.081880
C6    C     C_R   0.040000 0.599606 0.127343 -0.226728
C7    C     C_R   0.937347 0.623114 0.099516 -0.235829
C8    C     C_R   0.049437 0.517354 0.878236 -0.221366
C9    C     C_R   0.153258 0.495703 0.905630 -0.240691
C10   C     C_R   0.212443 0.492829 0.005713 0.095755
C11   C     C_R   0.169830 0.521022 0.080432 0.069151
C12   C     C_R   0.620731 0.519690 0.686933 0.796744
C13   C     C_R   0.312436 0.461730 0.032583 0.152139
C14   C     C_R   0.367134 0.459231 0.134070 -0.192275
C15   C     C_R   0.223192 0.511430 0.179090 -0.258148
C16   C     C_R   0.138724 0.967009 0.362681 -0.191517
C17   C     C_R   0.249203 0.162452 0.463619 -0.050333
C18   C     C_R   0.732508 0.920968 0.576661 -0.186450
C19   C     C_R   0.823742 0.037749 0.596665 -0.145573
C20   C     C_R   0.924380 0.072521 0.560246 -0.183547
C21   C     C_R   0.932948 0.990426 0.499189 0.080520
C22   C     C_R   0.830592 0.873263 0.469028 0.081498
C23   C     C_R   0.345339 0.285334 0.485102 0.803863
C24   C     C_R   0.038956 0.020919 0.466173 0.074159
C25   C     C_R   0.034741 0.937689 0.396014 0.167840
C26   C     C_R   0.925567 0.827051 0.358106 -0.241457
C27   C     C_R   0.824100 0.795682 0.392818 -0.198244
C28   C     C_R   0.149972 0.131590 0.501634 -0.253524
C29   C     C_R   0.245265 0.079371 0.395790 -0.193798
C30   C     C_R   0.736643 0.837463 0.515206 -0.102299
C31   C     C_R   0.254050 0.684319 0.662392 -0.303144
C32   C     C_R   0.654617 0.342562 0.363429 0.068081
C33   C     C_R   0.732284 0.308275 0.333185 -0.251891
C34   C     C_R   0.382166 0.484184 0.313249 0.805055
C35   C     C_R   0.867682 0.367414 0.384484 -0.191650
C36   C     C_R   0.927801 0.462448 0.467306 -0.007254
C37   C     C_R   0.843833 0.494606 0.495547 0.288805
C38   C     C_R   0.067442 0.526580 0.523097 -0.038551
C39   C     C_R   0.119126 0.620450 0.605843 0.175436
C40   C     C_R   0.036167 0.650522 0.631850 -0.293869
C41   C     C_R   0.902143 0.589496 0.577920 -0.194590
C42   C     C_R   0.159256 0.502340 0.501034 0.012923
C43   C     C_R   0.338457 0.656012 0.636955 0.061240
C44   C     C_R   0.698143 0.543083 0.794659 -0.056213
C45   C     C_R   0.322416 0.483357 0.206685 -0.107942
C46   C     C_R   0.752543 0.617487 0.971130 -0.203254
C47   C     C_R   0.672404 0.590425 0.869855 -0.193925
C48   C     C_R   0.805114 0.524379 0.821619 -0.262093
Cu1   Cu    Cu3+1 0.416420 0.526630 0.522910 0.930203
Cu2   Cu    Cu3+1 0.583580 0.473370 0.477090 0.919406
H1    H     H_    0.916650 0.658177 0.157955 0.133235
H2    H     H_    0.321514 0.102435 0.365335 0.147809
H3    H     H_    0.918532 0.764216 0.301467 0.134696
H4    H     H_    0.135787 0.903958 0.308850 0.135270
H5    H     H_    0.161657 0.196638 0.558394 0.146256
H6    H     H_    0.660223 0.895793 0.611426 0.151709
H7    H     H_    0.991833 0.164593 0.579369 0.127940
H8    H     H_    0.818844 0.101568 0.643361 0.143078
H9    H     H_    0.739319 0.710695 0.356897 0.173772
H10   H     H_    0.442555 0.705145 0.680530 0.118467
H11   H     H_    0.186374 0.522673 0.235854 0.159479
H12   H     H_    0.075373 0.722501 0.695011 0.158250
H13   H     H_    0.294079 0.755961 0.726006 0.139448
H14   H     H_    0.128458 0.432559 0.439416 0.123365
H15   H     H_    0.549749 0.296006 0.322959 0.121927
H16   H     H_    0.922823 0.336954 0.357874 0.136763
H17   H     H_    0.687267 0.235426 0.269634 0.145556
H18   H     H_    0.847903 0.620134 0.603923 0.209098
H19   H     H_    0.444484 0.437905 0.157791 0.168365
H20   H     H_    0.184330 0.479057 0.846241 0.144060
H21   H     H_    0.730327 0.652741 0.028471 0.135138
H22   H     H_    0.590798 0.606683 0.850512 0.151130
H23   H     H_    0.818311 0.482344 0.762645 0.158271
H24   H     H_    0.096125 0.622353 0.207330 0.145605
H25   H     H_    0.010600 0.518736 0.799862 0.153411
N1    N     N_R   0.290690 0.566960 0.557640 -0.176954
N2    N     N_R   0.709100 0.433710 0.442970 -0.204420
O1    O     O_R   0.545970 0.684450 0.528810 -0.578325
O2    O     O_R   0.687130 0.639470 0.490120 -0.602281
O3    O     O_R   0.519670 0.535100 0.660030 -0.584539
O4    O     O_R   0.660830 0.490120 0.621340 -0.599835
O5    O     O_R   0.312870 0.360530 0.509880 -0.585198
O6    O     O_R   0.454030 0.315550 0.471190 -0.584246
O7    O     O_R   0.339170 0.509880 0.378660 -0.583213
O8    O     O_R   0.480330 0.464900 0.339970 -0.598391
C49   C     C_3   0.358341 0.431368 0.952578 -0.415883
C50   C     C_3   0.461047 0.393111 0.988100 -0.841858
H26   H     H_    0.552622 0.463936 0.046789 0.248687
H27   H     H_    0.422765 0.313838 0.018065 0.247870
H28   H     H_    0.484650 0.372237 0.923047 0.255414
H29   H     H_    0.272178 0.359037 0.890829 0.204901
H30   H     H_    0.399504 0.508320 0.920356 0.198444

loop_
_geom_bond_atom_site_label_1
_geom_bond_atom_site_label_2
_ccdc_geom_bond_type
C50   H26   S    
Cu2   N2    S    
C23   O5    A    
C17   C29   A    
C35   C36   A    
C4    C8    A    
Cu2   O2    S    
C26   C27   A    
C17   C23   S    
C31   C43   A    
Cu1   O7    S    
C36   C37   A    
C5    C11   A    
C3    C7    A    
C49   H29   S    
C5    C6    A    
C16   C25   A    
C40   H12   S    
Cu1   O1    S    
C18   C19   A    
Cu2   O8    S    
C32   N2    A    
C11   C15   A    
C19   C20   A    
C8    C9    A    
C13   C49   S    
C18   C30   A    
C41   H18   S    
C9    C10   A    
C44   C47   A    
C18   H6    S    
C13   C14   A    
C1    O1    A    
C34   O7    A    
C28   H5    S    
Cu2   O6    S    
C6    H24   S    
C14   C45   A    
C19   H8    S    
C31   H13   S    
C24   C25   A    
C39   C40   A    
C49   C50   S    
C35   H16   S    
C2    C48   A    
C16   C29   A    
C37   N2    A    
C8    H25   S    
C34   O8    A    
Cu1   O5    S    
C2    C4    A    
C15   H11   S    
Cu1   N1    S    
C34   C45   S    
C9    H20   S    
C46   H21   S    
C23   O6    A    
C43   H10   S    
C40   C41   A    
C22   C27   A    
C50   H27   S    
C1    O2    A    
C14   H19   S    
C50   H28   S    
C15   C45   A    
C26   H3    S    
C42   H14   S    
C33   H17   S    
C43   N1    A    
C46   C47   A    
C22   C30   A    
C17   C28   A    
C48   H23   S    
C24   C28   A    
C4    C5    A    
C10   C13   A    
C38   C42   A    
C6    C7    A    
C3    C46   A    
C42   N1    A    
Cu1   O3    S    
C32   C33   A    
C36   C38   A    
C2    C3    A    
C25   C26   A    
C7    H1    S    
C12   C44   S    
C27   H9    S    
C38   C39   A    
C12   O3    A    
C1    C30   S    
C33   C35   A    
C31   C39   A    
C12   O4    A    
C37   C41   A    
C16   H4    S    
C47   H22   S    
C10   C11   A    
C20   C21   A    
Cu1   Cu2   S    
C21   C24   A    
C49   H30   S    
C20   H7    S    
C21   C22   A    
C44   C48   A    
Cu2   O4    S    
C32   H15   S    
C29   H2    S    
