data_mof_unit_48279.cif
_audit_creation_date              2013-03-05T15:51:03-0500
_audit_creation_method            fapswitch 2.2
_symmetry_space_group_name_H-M    P1
_symmetry_Int_Tables_number       1
_space_group_crystal_system       triclinic
_cell_length_a                    19.134941
_cell_length_b                    11.149841
_cell_length_c                    18.897405
_cell_angle_alpha                 90.395382
_cell_angle_beta                  90.41288
_cell_angle_gamma                 90.089565
_cell_volume                      4031.58472222

loop_
_atom_site_label
_atom_site_type_symbol
_atom_site_description
_atom_site_fract_x
_atom_site_fract_y
_atom_site_fract_z
_atom_type_partial_charge
O1    O     O_R   0.784290 0.290360 0.830540 -0.455153
O2    O     O_R   0.215710 0.290360 0.169460 -0.474952
O3    O     O_R   0.284290 0.790360 0.830540 -0.455397
O4    O     O_R   0.715710 0.790360 0.169460 -0.475015
O5    O     O_R   0.762610 0.041070 0.825230 -0.513364
O6    O     O_R   0.237390 0.041070 0.174770 -0.515145
O7    O     O_R   0.262610 0.541070 0.825230 -0.513667
O8    O     O_R   0.737390 0.541070 0.174770 -0.514304
C1    C     C_R   0.725769 0.957615 0.854246 0.547569
C2    C     C_R   0.273200 0.955949 0.146669 0.533276
C3    C     C_R   0.225770 0.457611 0.854244 0.549905
C4    C     C_R   0.773203 0.455954 0.146666 0.536416
O9    O     O_R   0.667390 0.924160 0.829970 -0.483490
O10   O     O_R   0.332610 0.924160 0.170030 -0.506445
O11   O     O_R   0.167390 0.424160 0.829970 -0.481362
O12   O     O_R   0.832610 0.424160 0.170030 -0.500639
O13   O     O_R   0.553980 0.081420 0.821780 -0.463433
O14   O     O_R   0.446020 0.081420 0.178220 -0.458279
O15   O     O_R   0.053980 0.581420 0.821780 -0.464295
O16   O     O_R   0.946020 0.581420 0.178220 -0.453587
C5    C     C_R   0.532510 0.180591 0.851278 0.586520
C6    C     C_R   0.434989 0.182336 0.143971 0.586845
C7    C     C_R   0.032495 0.680593 0.851271 0.583982
C8    C     C_R   0.934983 0.682335 0.143975 0.587165
O17   O     O_R   0.543210 0.283170 0.826740 -0.486906
O18   O     O_R   0.456790 0.283170 0.173260 -0.473081
O19   O     O_R   0.043210 0.783170 0.826740 -0.487056
O20   O     O_R   0.956790 0.783170 0.173260 -0.470483
O21   O     O_R   0.678350 0.375000 0.822720 -0.483596
O22   O     O_R   0.321650 0.375000 0.177280 -0.496622
O23   O     O_R   0.178350 0.875000 0.822720 -0.482090
O24   O     O_R   0.821650 0.875000 0.177280 -0.494633
C9    C     C_R   0.739173 0.359670 0.853598 0.599030
C10   C     C_R   0.260542 0.362293 0.147559 0.584979
C11   C     C_R   0.239170 0.859664 0.853601 0.601962
C12   C     C_R   0.760536 0.862300 0.147563 0.586378
O25   O     O_R   0.785060 0.289300 0.670580 -0.485468
O26   O     O_R   0.214940 0.289300 0.329420 -0.474135
O27   O     O_R   0.285060 0.789300 0.670580 -0.479233
O28   O     O_R   0.714940 0.789300 0.329420 -0.482845
O29   O     O_R   0.763330 0.040090 0.676940 -0.512274
O30   O     O_R   0.236670 0.040090 0.323060 -0.511254
O31   O     O_R   0.263330 0.540090 0.676940 -0.515772
O32   O     O_R   0.736670 0.540090 0.323060 -0.507891
C13   C     C_R   0.726773 0.957627 0.646557 0.541334
C14   C     C_R   0.272251 0.955005 0.352218 0.569096
C15   C     C_R   0.224976 0.462801 0.644713 0.544630
C16   C     C_R   0.773170 0.457835 0.353324 0.545050
O33   O     O_R   0.668160 0.923110 0.670000 -0.467460
O34   O     O_R   0.331840 0.923110 0.330000 -0.450868
O35   O     O_R   0.168160 0.423110 0.670000 -0.464202
O36   O     O_R   0.831840 0.423110 0.330000 -0.463702
O37   O     O_R   0.554690 0.080440 0.673480 -0.475691
O38   O     O_R   0.445310 0.080440 0.326520 -0.434628
O39   O     O_R   0.054690 0.580440 0.673480 -0.481340
O40   O     O_R   0.945310 0.580440 0.326520 -0.467088
C17   C     C_R   0.530921 0.175796 0.644689 0.546546
C18   C     C_R   0.469508 0.177409 0.355202 0.565397
C19   C     C_R   0.030194 0.675958 0.645012 0.544225
C20   C     C_R   0.968311 0.677068 0.355996 0.554771
O41   O     O_R   0.543980 0.282110 0.666770 -0.535707
O42   O     O_R   0.456020 0.282110 0.333230 -0.526809
O43   O     O_R   0.043980 0.782110 0.666770 -0.529548
O44   O     O_R   0.956020 0.782110 0.333230 -0.516484
O45   O     O_R   0.679070 0.374030 0.674430 -0.506503
O46   O     O_R   0.320930 0.374030 0.325570 -0.505900
O47   O     O_R   0.179070 0.874030 0.674430 -0.513632
O48   O     O_R   0.820930 0.874030 0.325570 -0.504216
C21   C     C_R   0.738938 0.360206 0.645886 0.554084
C22   C     C_R   0.259890 0.363094 0.353026 0.549555
C23   C     C_R   0.237910 0.856121 0.644347 0.576229
C24   C     C_R   0.760523 0.861264 0.353810 0.550666
Cr1   Cr    Cr6+3 0.769260 0.163750 0.750730 1.105414
Cr2   Cr    Cr6+3 0.230740 0.163750 0.249270 1.101713
Cr3   Cr    Cr6+3 0.269260 0.663750 0.750730 1.098445
Cr4   Cr    Cr6+3 0.730740 0.663750 0.249270 1.090254
Cr5   Cr    Cr6+3 0.612640 0.009910 0.748780 1.164990
Cr6   Cr    Cr6+3 0.387360 0.009910 0.251220 1.156912
Cr7   Cr    Cr6+3 0.112640 0.509910 0.748780 1.167527
Cr8   Cr    Cr6+3 0.887360 0.509910 0.251220 1.157653
Cr9   Cr    Cr6+3 0.614190 0.322400 0.747710 1.075681
Cr10  Cr    Cr6+3 0.385810 0.322400 0.252290 1.070618
Cr11  Cr    Cr6+3 0.114190 0.822400 0.747710 1.081006
Cr12  Cr    Cr6+3 0.885810 0.822400 0.252290 1.078309
O49   O     O_3   0.665360 0.165350 0.749070 -0.316435
O50   O     O_3   0.334640 0.165350 0.250930 -0.333396
O51   O     O_3   0.165360 0.665350 0.749070 -0.318613
O52   O     O_3   0.834640 0.665350 0.250930 -0.336013
C25   C     C_2   0.505562 0.184587 0.923086 0.383145
C26   C     C_2   0.436263 0.176948 0.065890 0.355286
C27   C     C_2   0.005484 0.684610 0.923057 0.383385
C28   C     C_2   0.936207 0.676949 0.065888 0.353943
C29   C     C_2   0.465492 0.086840 0.029061 0.203836
C30   C     C_2   0.472645 0.092342 0.951779 0.201923
C31   C     C_2   0.965418 0.586851 0.029031 0.203300
C32   C     C_2   0.972549 0.592372 0.951739 0.202175
C33   C     C_R   0.755963 0.408182 0.076868 -0.006144
C34   C     C_R   0.239673 0.414294 0.925685 -0.009669
C35   C     C_R   0.255949 0.908160 0.076877 -0.005220
C36   C     C_R   0.739664 0.914312 0.925690 -0.009686
C37   C     C_R   0.695059 0.432125 0.039761 -0.043448
C38   C     C_R   0.302376 0.430093 0.961239 -0.020194
C39   C     C_R   0.195052 0.932135 0.039765 -0.043434
C40   C     C_R   0.802356 0.930152 0.961253 -0.020628
C41   C     C_R   0.692849 0.419767 0.966983 0.018564
C42   C     C_R   0.305412 0.422648 0.034092 0.085155
C43   C     C_R   0.192842 0.919771 0.966987 0.017699
C44   C     C_R   0.805381 0.922715 0.034105 0.084572
C45   C     C_R   0.813488 0.345382 0.967152 0.150537
C46   C     C_R   0.183595 0.364576 0.038199 0.166739
C47   C     C_R   0.313472 0.845345 0.967163 0.150830
C48   C     C_R   0.683574 0.864546 0.038194 0.167285
C49   C     C_R   0.810913 0.355000 0.040369 -0.056153
C50   C     C_R   0.182295 0.372560 0.964592 -0.043744
C51   C     C_R   0.310888 0.854936 0.040382 -0.055911
C52   C     C_R   0.682285 0.872556 0.964588 -0.043565
C53   C     C_3   0.650828 0.540615 0.039267 -0.148203
C54   C     C_3   0.350888 0.532681 0.960394 -0.144420
C55   C     C_3   0.150829 0.040638 0.039267 -0.148014
C56   C     C_3   0.850845 0.032774 0.960418 -0.144431
C57   C     C_3   0.646996 0.526885 0.959351 0.285970
C58   C     C_3   0.356153 0.522406 0.040422 0.297106
C59   C     C_3   0.146997 0.026899 0.959352 0.286349
C60   C     C_3   0.856104 0.022499 0.040445 0.297859
C61   C     C_R   0.751955 0.386845 0.928040 0.036756
C62   C     C_R   0.246993 0.397891 0.074851 0.040119
C63   C     C_R   0.251948 0.886831 0.928046 0.036763
C64   C     C_R   0.746967 0.897900 0.074858 0.040029
H1    H     H_    0.856516 0.328311 0.069769 0.266683
H2    H     H_    0.133429 0.353044 0.938051 0.249244
H3    H     H_    0.356483 0.828221 0.069787 0.266546
H4    H     H_    0.633426 0.853027 0.938035 0.249226
H5    H     H_    0.181373 0.119608 0.057365 0.189532
H6    H     H_    0.820810 0.110436 0.941678 0.183004
H7    H     H_    0.681367 0.619586 0.057368 0.189586
H8    H     H_    0.320871 0.610362 0.941655 0.183010
H9    H     H_    0.600005 0.525525 0.065929 0.171064
H10   H     H_    0.400287 0.511763 0.932317 0.181369
H11   H     H_    0.100006 0.025560 0.065930 0.171641
H12   H     H_    0.900252 0.011891 0.932344 0.181734
H13   H     H_    0.594020 0.505061 0.938423 0.200227
H14   H     H_    0.408365 0.494469 0.060383 0.211265
H15   H     H_    0.094018 0.005082 0.938425 0.200472
H16   H     H_    0.908318 0.994582 0.060412 0.211595
C65   C     C_R   0.490316 0.174496 0.428194 0.016809
C66   C     C_R   0.501246 0.163077 0.575102 0.047459
C67   C     C_R   0.986666 0.671980 0.429683 -0.009579
C68   C     C_R   0.996691 0.664782 0.576778 0.007280
C69   C     C_R   0.462408 0.264234 0.471393 0.034841
C70   C     C_R   0.466719 0.258963 0.543543 0.025221
C71   C     C_R   0.966997 0.770079 0.470974 0.013039
C72   C     C_R   0.970746 0.767116 0.543282 0.002838
C73   C     C_R   0.523228 0.065823 0.532556 -0.035784
C74   C     C_R   0.518751 0.072296 0.459110 -0.061921
C75   C     C_R   0.007791 0.559855 0.536315 -0.075207
C76   C     C_R   0.003416 0.563914 0.462724 -0.095568
C77   C     C_3   0.475911 0.395983 0.469989 -0.255313
C78   C     C_3   0.477746 0.392022 0.549736 -0.258399
C79   C     C_3   0.993112 0.895790 0.466764 -0.227881
C80   C     C_3   0.994966 0.895441 0.546359 -0.228474
H17   H     H_    0.549423 0.989754 0.555484 0.230189
H18   H     H_    0.537308 0.998557 0.426776 0.219186
H19   H     H_    0.027188 0.478816 0.560504 0.263026
H20   H     H_    0.016410 0.485354 0.431675 0.249187
H21   H     H_    0.954907 0.959226 0.444291 0.171981
H22   H     H_    0.048488 0.907235 0.567016 0.175133
H23   H     H_    0.431497 0.447004 0.448307 0.156832
H24   H     H_    0.529278 0.419561 0.571182 0.172146
H25   H     H_    0.527311 0.418282 0.446313 0.149660
H26   H     H_    0.432561 0.437651 0.574714 0.149969
H27   H     H_    0.045669 0.900626 0.442500 0.151831
H28   H     H_    0.955886 0.955871 0.570819 0.162506
C81   C     C_R   0.760337 0.429633 0.427306 -0.038590
C82   C     C_R   0.235514 0.443701 0.569193 -0.031328
C83   C     C_R   0.251486 0.905153 0.420522 0.032254
C84   C     C_R   0.739855 0.928689 0.572562 -0.030293
C85   C     C_R   0.818699 0.402977 0.469222 0.018710
C86   C     C_R   0.181815 0.388764 0.530978 0.000429
C87   C     C_R   0.297456 0.829981 0.457881 -0.040912
C88   C     C_R   0.683549 0.885070 0.532737 -0.005933
C89   C     C_R   0.814402 0.395027 0.541908 0.013465
C90   C     C_R   0.185341 0.376447 0.458602 0.022006
C91   C     C_R   0.293355 0.819547 0.530244 -0.039910
C92   C     C_R   0.686318 0.877535 0.459998 0.002226
C93   C     C_R   0.692830 0.450312 0.535011 -0.183487
C94   C     C_R   0.290508 0.494504 0.457001 -0.171343
C95   C     C_R   0.191235 0.943662 0.531469 -0.173638
C96   C     C_R   0.800089 0.969843 0.462318 -0.176301
C97   C     C_R   0.697524 0.458081 0.461130 -0.196102
C98   C     C_R   0.287238 0.505461 0.531125 -0.172278
C99   C     C_R   0.193632 0.950807 0.457212 -0.181061
C100  C     C_R   0.797416 0.975725 0.536438 -0.179974
C101  C     C_3   0.865764 0.296691 0.463860 0.321013
C102  C     C_3   0.151512 0.267060 0.541170 0.303419
C103  C     C_3   0.375741 0.821841 0.460725 0.335379
C104  C     C_3   0.647147 0.767281 0.539522 0.294282
C105  C     C_3   0.863256 0.290520 0.543576 0.327398
C106  C     C_3   0.155638 0.252546 0.461860 0.314395
C107  C     C_3   0.370585 0.812204 0.540322 0.344606
C108  C     C_3   0.648501 0.759854 0.459728 0.304985
C109  C     C_R   0.750359 0.410947 0.575829 -0.027812
C110  C     C_R   0.243269 0.418789 0.421161 -0.016503
C111  C     C_R   0.243997 0.883098 0.569161 0.059996
C112  C     C_R   0.746731 0.911927 0.423759 -0.021999
H29   H     H_    0.642959 0.466998 0.559418 0.153092
H30   H     H_    0.331982 0.538350 0.428558 0.115409
H31   H     H_    0.150340 0.989965 0.559470 0.144631
H32   H     H_    0.845555 0.002952 0.435500 0.139687
H33   H     H_    0.652043 0.484089 0.430535 0.149759
H34   H     H_    0.325963 0.558485 0.558744 0.117594
H35   H     H_    0.153836 0.000916 0.429431 0.159064
H36   H     H_    0.840743 0.013652 0.565683 0.136223
H37   H     H_    0.841113 0.219257 0.436067 0.060420
H38   H     H_    0.186114 0.205867 0.571588 0.070883
H39   H     H_    0.396812 0.740398 0.434268 0.091518
H40   H     H_    0.679297 0.698450 0.566744 0.079891
H41   H     H_    0.839237 0.207750 0.563562 0.077830
H42   H     H_    0.193966 0.184620 0.444547 0.073611
H43   H     H_    0.389640 0.725918 0.561793 0.089748
H44   H     H_    0.680429 0.685388 0.438923 0.095818
N1    N     N_R   0.509016 0.004867 0.064694 0.083921
O53   O     O_R   0.480630 0.908836 0.090643 -0.227440
O54   O     O_R   0.566493 0.047950 0.092131 -0.290883
N2    N     N_R   0.459344 0.989379 0.909262 0.062440
O55   O     O_R   0.506928 0.906138 0.907574 -0.239216
O56   O     O_R   0.417371 0.001380 0.855173 -0.295699
N3    N     N_R   0.008989 0.504927 0.064630 0.083640
O57   O     O_R   0.980660 0.408909 0.090645 -0.225703
O58   O     O_R   0.066510 0.548040 0.091938 -0.290457
N4    N     N_R   0.959326 0.489374 0.909231 0.062674
O59   O     O_R   0.006934 0.406174 0.907628 -0.238169
O60   O     O_R   0.917434 0.501312 0.855077 -0.300748
F1    F     F_    0.931048 0.325818 0.438545 -0.537473
F2    F     F_    0.083550 0.271911 0.565536 -0.527897
F3    F     F_    0.407408 0.926970 0.440837 -0.567740
F4    F     F_    0.580318 0.778616 0.566207 -0.574439
F5    F     F_    0.926085 0.319910 0.576018 -0.530554
F6    F     F_    0.090792 0.245053 0.429095 -0.532948
F7    F     F_    0.396860 0.911816 0.575836 -0.555092
F8    F     F_    0.582836 0.768914 0.428971 -0.579511
F9    F     F_    0.406941 0.267860 0.029960 -0.677565
F10   F     F_    0.523432 0.282158 0.963302 -0.632910
F11   F     F_    0.906868 0.767868 0.029982 -0.677705
F12   F     F_    0.023311 0.782206 0.963268 -0.632611
N5    N     N_R   0.879424 0.293737 0.940263 0.091742
O61   O     O_R   0.894792 0.275534 0.874277 -0.217759
O62   O     O_R   0.926696 0.256857 0.985053 -0.256789
N6    N     N_R   0.120681 0.318641 0.071579 0.105982
O63   O     O_R   0.103098 0.347021 0.135988 -0.203100
O64   O     O_R   0.075132 0.259072 0.033683 -0.270489
N7    N     N_R   0.379415 0.793725 0.940274 0.091941
O65   O     O_R   0.394788 0.775542 0.874287 -0.220029
O66   O     O_R   0.426687 0.756849 0.985064 -0.257012
N8    N     N_R   0.620659 0.818526 0.071543 0.106019
O67   O     O_R   0.603059 0.846769 0.135976 -0.206031
O68   O     O_R   0.575118 0.759014 0.033600 -0.270921
F13   F     F_    0.680308 0.618771 0.924072 -0.624205
F14   F     F_    0.327397 0.617409 0.076946 -0.642925
F15   F     F_    0.180314 0.118774 0.924069 -0.622951
F16   F     F_    0.827325 0.117487 0.076967 -0.641362

loop_
_geom_bond_atom_site_label_1
_geom_bond_atom_site_label_2
_geom_bond_distance
_ccdc_geom_bond_type
C22   C110  1.462921 S    
C102  H38   1.111602 S    
Cr11  O51   2.007802 S    
O4    C12   1.248147 A    
C18   O42   1.268041 A    
C77   C78   1.508105 S    
C92   C112  1.402145 A    
O39   C19   1.284221 A    
O20   Cr12  2.070878 S    
C29   N1    1.408967 S    
O29   C13   1.284237 A    
O15   C7    1.303284 A    
C31   C32   1.469646 S    
C90   C106  1.494829 S    
C43   C59   1.490286 S    
C104  C108  1.510020 S    
C89   C105  1.495362 S    
N2    O55   1.301586 A    
C77   H23   1.101578 S    
N4    O60   1.303069 A    
O26   C22   1.266090 A    
C18   C65   1.433503 S    
O1    C9    1.239055 A    
N7    O65   1.297914 A    
C87   C103  1.501449 S    
O7    C3    1.293847 A    
C20   O44   1.272189 A    
C86   C102  1.489121 S    
C55   H5    1.106873 S    
C49   H1    1.074605 S    
C26   C29   1.343251 D    
C3    C34   1.459756 S    
O24   C12   1.300725 A    
C83   C87   1.405771 A    
O40   C20   1.285083 A    
C44   C60   1.478949 S    
C54   H10   1.111578 S    
O25   C21   1.273976 A    
O45   Cr9   1.955474 S    
C35   C51   1.392725 A    
C51   H3    1.074605 S    
C28   F11   1.344994 S    
C85   C89   1.380072 A    
C72   C80   1.503918 S    
C34   C50   1.406165 A    
C48   C52   1.394498 A    
C47   N7    1.479565 S    
C101  F1    1.379963 S    
O21   C9    1.310123 A    
O8    Cr4   1.961083 S    
O23   Cr11  1.954914 S    
C94   C110  1.403341 A    
C11   C63   1.455893 S    
C54   C58   1.520059 S    
C93   C109  1.411864 A    
C25   C30   1.326326 D    
O32   Cr4   1.970569 S    
N3    O57   1.300373 A    
C1    O9    1.259521 A    
C100  H36   1.077344 S    
N8    O68   1.302472 A    
C106  F6    1.384882 S    
C77   H25   1.111961 S    
C27   C32   1.326351 D    
C66   C70   1.393026 A    
C105  F5    1.383470 S    
C58   F14   1.377840 S    
C36   C40   1.381306 A    
O11   Cr7   2.089473 S    
C27   F12   1.364406 S    
C4    O12   1.268465 A    
C92   C108  1.497407 S    
C34   C38   1.381339 A    
C36   C52   1.406166 A    
O47   C23   1.280262 A    
C88   C92   1.377957 A    
C71   C72   1.368436 A    
C56   H12   1.111590 S    
C20   C67   1.435174 S    
C80   H22   1.100748 S    
O1    Cr1   2.076855 S    
O3    Cr3   2.076855 S    
C46   C50   1.394482 A    
C87   C91   1.376013 A    
O2    Cr2   2.091561 S    
C45   C49   1.388261 A    
C24   C112  1.459862 S    
C95   C111  1.407500 A    
C19   C68   1.440403 S    
O2    C10   1.248216 A    
C40   C44   1.380591 A    
O42   Cr10  2.080385 S    
Cr5   O49   2.003937 S    
O18   Cr10  2.070878 S    
C90   C110  1.402294 A    
N5    O61   1.297900 A    
C30   N2    1.418342 S    
C50   H2    1.079037 S    
C103  F3    1.374614 S    
C38   C54   1.472235 S    
C106  H42   1.104678 S    
C3    O11   1.259530 A    
C102  F2    1.383699 S    
C105  H41   1.100713 S    
O34   Cr6   2.078720 S    
Cr7   O51   2.003937 S    
N6    O64   1.302403 A    
C14   O34   1.268459 A    
O6    Cr2   1.961083 S    
C75   C76   1.393643 A    
C103  C107  1.512667 S    
C37   C41   1.381601 A    
C21   C109  1.461034 S    
O24   Cr12  1.961921 S    
O16   Cr8   1.957904 S    
C53   H9    1.111583 S    
O30   Cr2   1.970569 S    
O4    Cr4   2.091561 S    
O22   C10   1.300648 A    
C78   H24   1.105630 S    
O48   Cr12  1.950985 S    
C57   H13   1.111462 S    
C8    C28   1.476807 S    
C107  H43   1.107930 S    
C80   H28   1.108656 S    
C39   C55   1.477484 S    
C35   C39   1.383090 A    
C2    O10   1.268483 A    
C13   C84   1.456412 S    
C101  H37   1.110259 S    
O23   C11   1.310120 A    
C94   H30   1.079935 S    
C78   H26   1.110471 S    
C15   O35   1.270837 A    
C104  F4    1.383640 S    
O26   Cr2   2.079371 S    
C75   H19   1.080496 S    
Cr10  O50   2.004821 S    
C5    C25   1.455551 S    
C28   C31   1.343287 D    
C91   C107  1.491100 S    
Cr4   O52   1.988194 S    
O28   Cr4   2.079371 S    
O43   Cr11  2.074911 S    
O48   C24   1.284743 A    
O12   Cr8   2.078255 S    
C71   C79   1.490166 S    
O41   Cr9   2.074911 S    
C94   C98   1.407083 A    
C23   C111  1.459775 S    
C108  F8    1.384732 S    
O5    C1    1.293843 A    
N1    O53   1.300452 A    
C93   H29   1.078758 S    
O46   Cr10  1.950985 S    
N4    O59   1.301530 A    
O39   Cr7   1.966799 S    
O13   Cr5   1.951565 S    
C84   C88   1.394770 A    
C48   N8    1.457131 S    
C79   C80   1.504328 S    
C52   H4    1.079055 S    
O3    C11   1.239065 A    
O8    C4    1.285544 A    
C60   F16   1.377864 S    
C33   C37   1.383078 A    
C42   C58   1.478959 S    
C9    C61   1.455865 S    
C13   O33   1.269025 A    
C6    C26   1.476722 S    
C41   C57   1.490271 S    
C45   N5    1.479573 S    
C29   C30   1.469510 S    
O47   Cr11  1.955474 S    
C44   C64   1.390459 A    
O15   Cr7   1.951565 S    
C67   C76   1.397549 A    
O35   Cr7   2.070689 S    
Cr1   O49   1.988254 S    
C4    C33   1.454580 S    
C86   C90   1.375801 A    
C79   H27   1.109659 S    
C93   C97   1.402948 A    
C46   C62   1.439544 A    
C65   C74   1.393705 A    
C45   C61   1.462943 A    
O14   Cr6   1.957904 S    
C68   C75   1.410427 A    
N7    O66   1.303308 A    
C82   C98   1.409350 A    
O21   Cr9   1.954914 S    
C85   C101  1.492885 S    
C1    C36   1.459735 S    
C7    O19   1.254188 A    
C70   C78   1.501842 S    
N5    O62   1.303313 A    
O9    Cr5   2.089473 S    
O30   C14   1.292668 A    
O37   Cr5   1.966799 S    
C108  H44   1.103513 S    
C95   H31   1.078113 S    
C7    C27   1.455591 S    
C19   O43   1.276814 A    
C81   C85   1.398015 A    
C58   H14   1.111139 S    
C53   C57   1.518128 S    
C53   H7    1.106861 S    
C12   C64   1.454436 S    
C8    O20   1.315690 A    
C54   H8    1.099247 S    
N6    O63   1.302205 A    
O31   Cr3   1.956805 S    
C39   C43   1.381599 A    
C16   C81   1.457578 S    
O38   C18   1.289923 A    
C46   N6    1.457030 S    
O45   C21   1.278822 A    
C5    O17   1.254207 A    
C96   H32   1.076064 S    
O37   C17   1.280318 A    
O22   Cr10  1.961921 S    
O28   C24   1.266474 A    
N3    O58   1.302146 A    
O14   C6    1.318457 A    
C103  H39   1.111276 S    
C74   H18   1.082832 S    
C82   C86   1.390591 A    
C89   C109  1.398073 A    
C68   C72   1.398656 A    
O31   C15   1.279245 A    
O17   Cr9   2.074331 S    
N2    O56   1.303125 A    
O6    C2    1.285538 A    
O7    Cr3   1.974314 S    
C17   O41   1.277668 A    
C55   C59   1.518135 S    
Cr2   O50   1.988194 S    
C66   C73   1.411902 A    
C42   C62   1.390470 A    
O25   Cr1   2.092762 S    
O40   Cr8   1.957540 S    
C41   C61   1.401805 A    
C96   C100  1.403056 A    
C96   C112  1.403979 A    
C59   F15   1.383434 S    
C37   C53   1.477464 S    
N8    O67   1.302347 A    
O19   Cr11  2.074331 S    
C98   H34   1.076944 S    
C55   H11   1.111586 S    
C95   C99   1.407154 A    
Cr8   O52   2.006727 S    
O32   C16   1.288214 A    
C97   H33   1.082405 S    
C69   C70   1.367003 A    
C47   C63   1.462944 A    
C104  H40   1.111048 S    
Cr6   O50   2.006727 S    
C102  C106  1.508998 S    
Cr12  O52   2.004821 S    
C69   C77   1.491588 S    
C101  C105  1.509568 S    
C67   C71   1.393064 A    
C10   C62   1.454419 S    
C81   C97   1.401155 A    
O33   Cr5   2.070689 S    
C88   C104  1.492376 S    
C38   C42   1.380617 A    
C56   H6    1.099268 S    
C32   N4    1.418303 S    
O10   Cr6   2.078255 S    
C17   C66   1.434637 S    
O5    Cr1   1.974314 S    
C2    C35   1.454590 S    
C83   C99   1.404758 A    
C31   N3    1.408841 S    
C48   C64   1.439670 A    
C15   C82   1.456988 S    
C84   C100  1.402920 A    
O29   Cr1   1.956805 S    
C14   C83   1.466128 S    
C79   H21   1.102884 S    
C16   O36   1.269118 A    
C65   C69   1.396227 A    
O46   C22   1.287416 A    
C76   H20   1.081214 S    
O44   Cr12  2.080385 S    
N1    O54   1.302266 A    
O27   Cr3   2.092762 S    
C6    O18   1.315671 A    
C26   F9    1.345032 S    
C59   H15   1.111469 S    
C107  F7    1.385584 S    
O27   C23   1.271055 A    
C25   F10   1.364436 S    
C60   H16   1.111149 S    
C47   C51   1.388284 A    
C91   C111  1.392787 A    
C43   C63   1.401814 A    
O38   Cr6   1.957540 S    
C73   C74   1.392338 A    
O36   Cr8   2.078720 S    
C99   H35   1.080379 S    
C33   C49   1.392731 A    
O16   C8    1.318436 A    
C73   H17   1.077783 S    
Cr9   O49   2.007802 S    
Cr3   O51   1.988254 S    
C56   C60   1.520062 S    
C57   F13   1.383432 S    
C40   C56   1.472233 S    
O13   C5    1.303225 A    
