data_mof_unit_52648.cif
_audit_creation_date              2012-10-26T17:10:23-0400
_audit_creation_method            fapswitch 2.2
_symmetry_space_group_name_H-M    P1
_symmetry_Int_Tables_number       1
_space_group_crystal_system       triclinic
_cell_length_a                    16.872782
_cell_length_b                    16.872582
_cell_length_c                    16.872483
_cell_angle_alpha                 67.870231
_cell_angle_beta                  67.871006
_cell_angle_gamma                 67.86901
_cell_volume                      3964.43473702

loop_
_atom_site_label
_atom_site_type_symbol
_atom_type_description
_atom_site_fract_x
_atom_site_fract_y
_atom_site_fract_z
_atom_type_partial_charge
C1    C     C_R   0.603354 0.999778 0.603577 -0.018811
C2    C     C_R   0.169520 0.432258 0.980374 0.572226
C3    C     C_R   0.566277 0.024374 0.829390 0.562088
C4    C     C_R   0.432260 0.980370 0.169521 0.572231
C5    C     C_R   0.432297 0.169501 0.980034 0.572210
C6    C     C_R   0.566179 0.829347 0.024492 0.561981
C7    C     C_R   0.980064 0.432290 0.169495 0.572236
C8    C     C_R   0.024477 0.566184 0.829349 0.561971
C9    C     C_R   0.169496 0.980055 0.432292 0.572216
C10   C     C_R   0.829348 0.024482 0.566182 0.561976
C11   C     C_R   0.553973 0.984429 0.556198 0.038309
C12   C     C_R   0.408091 0.958157 0.409036 -0.015316
C13   C     C_R   0.458538 0.962863 0.462301 0.039560
C14   C     C_R   0.984440 0.556196 0.553968 0.038238
C15   C     C_R   0.962900 0.462283 0.458537 0.039483
C16   C     C_R   0.556252 0.554007 0.984287 0.038362
C17   C     C_R   0.462353 0.458572 0.962707 0.039625
C18   C     C_R   0.596372 0.927817 0.499879 -0.106236
C19   C     C_R   0.416352 0.018599 0.519322 -0.103501
C20   C     C_R   0.927695 0.500039 0.596299 -0.106274
C21   C     C_R   0.018768 0.519139 0.416424 -0.103532
C22   C     C_R   0.499648 0.596506 0.927948 -0.106206
C23   C     C_R   0.999777 0.603582 0.603349 -0.018857
C24   C     C_R   0.519675 0.416286 0.018151 -0.103465
C25   C     C_R   0.549154 0.917263 0.453273 -0.103525
C26   C     C_R   0.463308 0.029204 0.565515 -0.104799
C27   C     C_R   0.453045 0.549290 0.917388 -0.103510
C28   C     C_R   0.565863 0.463238 0.028762 -0.104789
C29   C     C_R   0.917152 0.453423 0.549080 -0.103545
C30   C     C_R   0.029361 0.565343 0.463380 -0.104812
C31   C     C_R   0.562975 0.007090 0.690807 -0.158788
C32   C     C_R   0.446294 0.961139 0.318576 -0.146823
C33   C     C_R   0.007111 0.690802 0.562959 -0.158802
C34   C     C_R   0.958182 0.409029 0.408090 -0.015361
C35   C     C_R   0.961137 0.318576 0.446298 -0.146834
C36   C     C_R   0.690857 0.563031 0.006951 -0.158785
C37   C     C_R   0.318577 0.446305 0.961104 -0.146806
C38   C     C_R   0.318118 0.959360 0.446545 -0.151274
C39   C     C_R   0.690323 0.007774 0.562421 -0.153267
C40   C     C_R   0.446569 0.318150 0.959210 -0.151270
C41   C     C_R   0.562422 0.690328 0.007767 -0.153250
C42   C     C_R   0.959408 0.446537 0.318111 -0.151281
C43   C     C_R   0.007747 0.562433 0.690327 -0.153282
C44   C     C_R   0.605077 0.029731 0.733819 0.003994
C45   C     C_R   0.603610 0.603386 0.999682 -0.018753
C46   C     C_R   0.392778 0.976403 0.264363 -0.002676
C47   C     C_R   0.029740 0.733815 0.605070 0.003991
C48   C     C_R   0.976400 0.264363 0.392781 -0.002684
C49   C     C_R   0.733834 0.605098 0.029680 0.004006
C50   C     C_R   0.264364 0.392782 0.976393 -0.002674
C51   C     C_R   0.264223 0.975771 0.392694 -0.003375
C52   C     C_R   0.733714 0.029901 0.604807 0.004077
C53   C     C_R   0.392704 0.264236 0.975715 -0.003379
C54   C     C_R   0.604803 0.733713 0.029907 0.004083
C55   C     C_R   0.975792 0.392691 0.264221 -0.003369
C56   C     C_R   0.409060 0.408119 0.958045 -0.015243
C57   C     C_R   0.029889 0.604810 0.733715 0.004076
C58   C     C_R   0.687061 0.049684 0.686959 0.218057
C59   C     C_R   0.300316 0.993098 0.300278 0.210680
C60   C     C_R   0.049685 0.686955 0.687059 0.218056
C61   C     C_R   0.993102 0.300277 0.300317 0.210676
C62   C     C_R   0.686956 0.687060 0.049681 0.218048
C63   C     C_R   0.300284 0.300321 0.993094 0.210655
C64   C     C_R   0.024378 0.829389 0.566276 0.562100
C65   C     C_R   0.980365 0.169523 0.432262 0.572216
C66   C     C_R   0.829395 0.566286 0.024356 0.562117
Cl1   Cl    Cl    0.726538 0.107563 0.726425 -0.555740
Cl2   Cl    Cl    0.229059 0.050246 0.228989 -0.423758
Cl3   Cl    Cl    0.107574 0.726410 0.726535 -0.555727
Cl4   Cl    Cl    0.050236 0.228986 0.229064 -0.423776
Cl5   Cl    Cl    0.726416 0.726529 0.107569 -0.555715
Cl6   Cl    Cl    0.229001 0.229064 0.050306 -0.423778
Cu1   Cu    Cu3+1 0.995180 0.995180 0.424630 1.064480
Cu2   Cu    Cu3+1 0.004820 0.004820 0.575370 1.074683
Cu3   Cu    Cu3+1 0.995180 0.424630 0.995180 1.064450
Cu4   Cu    Cu3+1 0.004820 0.575370 0.004820 1.074670
Cu5   Cu    Cu3+1 0.424630 0.995180 0.995180 1.064433
Cu6   Cu    Cu3+1 0.575370 0.004820 0.004820 1.074673
H1    H     H_    0.429000 0.074715 0.606758 0.116112
H2    H     H_    0.491616 0.666108 0.891777 0.110206
H3    H     H_    0.056873 0.525815 0.347452 0.115755
H4    H     H_    0.891198 0.492382 0.665761 0.110333
H5    H     H_    0.498849 0.993628 0.725711 0.138482
H6    H     H_    0.516502 0.956607 0.289323 0.143547
H7    H     H_    0.993671 0.725697 0.498821 0.138527
H8    H     H_    0.956585 0.289330 0.516513 0.143589
H9    H     H_    0.725805 0.498947 0.993393 0.138398
H10   H     H_    0.289305 0.516507 0.956601 0.143474
H11   H     H_    0.289310 0.951005 0.517451 0.146622
H12   H     H_    0.583458 0.873421 0.410326 0.120796
H13   H     H_    0.723998 0.997500 0.496892 0.138516
H14   H     H_    0.517490 0.289350 0.950759 0.146563
H15   H     H_    0.496877 0.724000 0.997539 0.138458
H16   H     H_    0.951084 0.517437 0.289298 0.146662
H17   H     H_    0.997447 0.496916 0.724006 0.138545
H18   H     H_    0.074967 0.606464 0.429135 0.116182
H19   H     H_    0.873207 0.410605 0.583322 0.120853
H20   H     H_    0.607324 0.428830 0.074070 0.116036
H21   H     H_    0.409873 0.583689 0.873766 0.120721
H22   H     H_    0.347321 0.056603 0.526130 0.115697
H23   H     H_    0.665892 0.891430 0.492084 0.110282
H24   H     H_    0.526717 0.347170 0.055953 0.115626
O1    O     O_R   0.124540 0.978640 0.385460 -0.439953
O2    O     O_R   0.124540 0.385460 0.978640 -0.439518
O3    O     O_R   0.021360 0.875460 0.614540 -0.444662
O4    O     O_R   0.978640 0.124540 0.385460 -0.439494
O5    O     O_R   0.013780 0.867370 0.487190 -0.541163
O6    O     O_R   0.986220 0.132630 0.512810 -0.526627
O7    O     O_R   0.867370 0.487190 0.013780 -0.541170
O8    O     O_R   0.132630 0.512810 0.986220 -0.526637
O9    O     O_R   0.487190 0.013780 0.867370 -0.541168
O10   O     O_R   0.512810 0.986220 0.132630 -0.526615
O11   O     O_R   0.512810 0.132630 0.986220 -0.527445
O12   O     O_R   0.875460 0.021360 0.614540 -0.444811
O13   O     O_R   0.487190 0.867370 0.013780 -0.540258
O14   O     O_R   0.986220 0.512810 0.132630 -0.527449
O15   O     O_R   0.013780 0.487190 0.867370 -0.540254
O16   O     O_R   0.132630 0.986220 0.512810 -0.527453
O17   O     O_R   0.867370 0.013780 0.487190 -0.540244
O18   O     O_R   0.978640 0.385460 0.124540 -0.439937
O19   O     O_R   0.021360 0.614540 0.875460 -0.444817
O20   O     O_R   0.385460 0.124540 0.978640 -0.439964
O21   O     O_R   0.614540 0.875460 0.021360 -0.444810
O22   O     O_R   0.614540 0.021360 0.875460 -0.444663
O23   O     O_R   0.385460 0.978640 0.124540 -0.439497
O24   O     O_R   0.875460 0.614540 0.021360 -0.444661

loop_
_geom_bond_atom_site_label_1
_geom_bond_atom_site_label_2
_ccdc_geom_bond_type
C61   Cl4   S    
C16   C28   A    
C11   C18   A    
Cu1   O17   S    
C20   H4    S    
C46   C59   A    
Cu4   O24   S    
Cu1   Cu2   S    
C37   H10   S    
Cu3   O15   S    
C7    C55   S    
C10   C52   S    
C48   C61   A    
C23   C43   A    
C64   O3    A    
C4    C46   S    
Cu5   Cu6   S    
C38   H11   S    
C27   H21   S    
C25   H12   S    
C4    O23   A    
Cu4   O19   S    
C5    C53   S    
C14   C30   A    
C8    C57   S    
C35   H8    S    
C8    O19   A    
Cu1   O5    S    
Cu2   O12   S    
C1    C31   A    
C31   H5    S    
C34   C35   A    
Cu5   O9    S    
C19   C26   A    
C33   H7    S    
C30   H18   S    
C10   O17   A    
C2    C50   S    
C47   C60   A    
C37   C56   A    
C41   H15   S    
C44   C58   A    
C23   C33   A    
C34   C42   A    
Cu1   O1    S    
C43   H17   S    
Cu5   O20   S    
C48   C65   S    
Cu6   O22   S    
C15   C34   S    
C10   O12   A    
C39   C52   A    
C4    O10   A    
C12   C32   A    
C9    O16   A    
C13   C25   A    
C18   C25   A    
C6    O21   A    
C6    C54   S    
Cu2   O16   S    
C35   C48   A    
C39   H13   S    
C14   C23   S    
C8    O15   A    
C15   C29   A    
C50   C63   A    
C20   C29   A    
C36   H9    S    
C32   H6    S    
C3    C44   S    
Cu3   O7    S    
C17   C24   A    
C49   C66   S    
C13   C19   A    
C17   C27   A    
C14   C20   A    
C31   C44   A    
C3    O9    A    
C47   C64   S    
C1    C39   A    
C57   C60   A    
C38   C51   A    
C54   C62   A    
C11   C26   A    
C40   C56   A    
C5    O20   A    
C66   O24   A    
C18   H23   S    
C7    O14   A    
Cu3   Cu4   S    
C59   Cl2   S    
C2    O2    A    
C9    O1    A    
C36   C45   A    
C40   H14   S    
Cu6   O21   S    
C17   C56   S    
C52   C58   A    
C21   H3    S    
C22   C27   A    
Cu3   O2    S    
C33   C47   A    
Cu6   O11   S    
C51   C59   A    
C65   O4    A    
Cu5   O23   S    
C3    O22   A    
C64   O5    A    
C28   H20   S    
C2    O8    A    
C16   C22   A    
C49   C62   A    
C65   O6    A    
C5    O11   A    
C42   H16   S    
C32   C46   A    
C7    O18   A    
Cu3   O18   S    
C24   C28   A    
C16   C45   S    
C19   H22   S    
C21   C30   A    
C41   C54   A    
C26   H1    S    
C29   H19   S    
C9    C51   S    
C22   H2    S    
Cu2   O3    S    
C37   C50   A    
C53   C63   A    
Cu1   O4    S    
C60   Cl3   S    
C42   C55   A    
C55   C61   A    
C63   Cl6   S    
Cu4   O14   S    
C62   Cl5   S    
C24   H24   S    
C66   O7    A    
C12   C38   A    
C6    O13   A    
C43   C57   A    
Cu2   O6    S    
C58   Cl1   S    
C15   C21   A    
C12   C13   S    
Cu4   O8    S    
C40   C53   A    
C41   C45   A    
Cu6   O10   S    
C1    C11   S    
Cu5   O13   S    
C36   C49   A    
