data_mof_unit_14502.cif
_audit_creation_date              2013-03-05T16:44:37-0500
_audit_creation_method            fapswitch 2.2
_symmetry_space_group_name_H-M    P1
_symmetry_Int_Tables_number       1
_space_group_crystal_system       triclinic
_cell_length_a                    27.216308
_cell_length_b                    10.668458
_cell_length_c                    9.876049
_cell_angle_alpha                 89.0064
_cell_angle_beta                  89.535728
_cell_angle_gamma                 90.192718
_cell_volume                      2867.02755877

loop_
_atom_site_label
_atom_site_type_symbol
_atom_site_description
_atom_site_fract_x
_atom_site_fract_y
_atom_site_fract_z
_atom_type_partial_charge
O1    O     O_R   0.500010 0.316790 0.614690 -0.607889
O2    O     O_R   0.500000 0.316760 0.385350 -0.646171
C1    C     C_R   0.501594 0.259794 0.500557 0.861750
O3    O     O_R   0.428760 0.500040 0.614660 -0.609568
O4    O     O_R   0.428750 0.500000 0.385310 -0.611476
C2    C     C_R   0.405597 0.501459 0.500172 0.851674
Zn1   Zn    Zn3+2 0.500000 0.500020 0.653130 0.953251
Zn2   Zn    Zn3+2 0.500000 0.499980 0.346870 0.974968
O5    O     O_R   0.500000 0.683240 0.614650 -0.621890
O6    O     O_R   0.499990 0.683210 0.385310 -0.584406
O7    O     O_R   0.571250 0.500000 0.614690 -0.616304
O8    O     O_R   0.571240 0.499960 0.385340 -0.593428
C3    C     C_R   0.502002 0.739926 0.498920 0.889811
C4    C     C_R   0.594121 0.502450 0.499558 0.890996
C5    C     C_R   0.171277 0.501189 0.399270 0.498931
O9    O     O_2   0.192371 0.406760 0.330772 -0.566789
N1    N     N_R   0.198653 0.571063 0.485880 -0.352975
C6    C     C_R   0.178176 0.665828 0.558707 0.538458
C7    C     C_R   0.278904 0.570021 0.374122 -0.106013
C8    C     C_R   0.329208 0.550953 0.377104 -0.208728
C9    C     C_R   0.323735 0.494987 0.616183 -0.222715
C10   C     C_R   0.272993 0.512776 0.612524 -0.092380
C11   C     C_R   0.250550 0.550849 0.491388 0.298937
C12   C     C_R   0.099344 0.622702 0.456956 -0.055193
C13   C     C_R   0.121445 0.527363 0.381041 0.002336
C14   C     C_R   0.093541 0.460559 0.288462 -0.157754
C15   C     C_R   0.128002 0.692786 0.546366 -0.100554
C16   C     C_R   0.352102 0.513984 0.498205 -0.065646
H1    H     H_    0.340702 0.466703 0.710640 0.161198
H2    H     H_    0.251164 0.497441 0.703489 0.152648
H3    H     H_    0.109676 0.386382 0.229378 0.190493
C17   C     C_R   0.645278 0.539628 0.497474 -0.058530
C18   C     C_R   0.970223 0.606961 0.334254 0.043296
C19   C     C_R   0.973553 0.738403 0.536032 0.028498
C20   C     C_R   0.946080 0.676376 0.436102 0.079691
C21   C     C_R   0.942461 0.560952 0.225849 -0.209104
C22   C     C_R   0.891672 0.568006 0.227522 -0.104517
C23   C     C_R   0.867177 0.619475 0.338205 -0.033539
C24   C     C_R   0.894075 0.677786 0.441368 -0.059257
C25   C     C_R   0.869043 0.732052 0.552087 -0.099889
C26   C     C_R   0.817830 0.710495 0.564239 0.547697
N2    N     N_R   0.793304 0.649100 0.465017 -0.337628
C27   C     C_R   0.816311 0.608748 0.350932 0.553977
C28   C     C_R   0.730620 0.498987 0.541038 -0.169383
C29   C     C_R   0.681693 0.460857 0.548937 -0.211727
C30   C     C_R   0.657242 0.659099 0.446177 -0.333255
C31   C     C_R   0.706124 0.699634 0.441711 0.536084
C32   C     C_R   0.742834 0.616849 0.484891 0.236817
O10   O     O_2   0.790032 0.553897 0.252658 -0.535155
C33   C     C_R   0.020844 0.581442 0.347170 0.078488
C34   C     C_R   0.048544 0.647072 0.444173 0.016498
C35   C     C_R   0.025755 0.735954 0.529251 -0.082188
C36   C     C_R   0.044203 0.487800 0.270679 -0.217475
H4    H     H_    0.672383 0.369530 0.591499 0.152349
H5    H     H_    0.759242 0.436200 0.575697 0.161602
H6    H     H_    0.871642 0.527491 0.144514 0.197457
H7    H     H_    0.959248 0.518786 0.138428 0.149902
H8    H     H_    0.024580 0.429506 0.201028 0.145659
O11   O     O_2   0.206428 0.734933 0.640952 -0.563858
C37   C     C_R   0.106559 0.791530 0.616538 -0.210143
H9    H     H_    0.350241 0.567588 0.284916 0.190333
H10   H     H_    0.261834 0.600487 0.280543 0.152751
H11   H     H_    0.128709 0.851948 0.678809 0.209804
C38   C     C_R   0.948006 0.794123 0.643927 -0.231613
C39   C     C_R   0.896721 0.795720 0.650939 -0.040976
O12   O     O_2   0.792862 0.744407 0.676120 -0.526882
C40   C     C_R   0.056500 0.816940 0.604866 0.440615
H12   H     H_    0.967345 0.832874 0.728369 0.229696
H13   H     H_    0.628560 0.720629 0.409864 0.182953
C41   C     C_R   0.517083 0.061177 0.619363 0.137476
C42   C     C_R   0.509922 0.128281 0.499153 -0.106051
C43   C     C_R   0.513272 0.066767 0.374683 -0.249649
H14   H     H_    0.511728 0.117058 0.278627 0.171758
C44   C     C_R   0.513679 0.937469 0.373533 -0.197058
H15   H     H_    0.511876 0.890987 0.277111 0.207492
C45   C     C_R   0.510975 0.870977 0.496827 -0.112148
C46   C     C_R   0.517731 0.933179 0.618073 0.126278
C47   C     C_3   0.490161 0.921130 0.749062 -0.457260
C48   C     C_3   0.489121 0.062820 0.750007 -0.508021
H16   H     H_    0.453139 0.878221 0.737835 0.212015
H17   H     H_    0.513010 0.879405 0.830950 0.208849
H18   H     H_    0.451432 0.101184 0.737979 0.204403
H19   H     H_    0.511300 0.102450 0.833135 0.205345
C49   C     C_R   0.459325 0.461793 0.073207 0.160700
N3    N     N_R   0.499670 0.499140 0.142800 -0.177979
C50   C     C_R   0.538102 0.551037 0.068149 -0.018596
C51   C     C_R   0.538219 0.548516 0.924777 -0.167044
H20   H     H_    0.568972 0.587145 0.867505 0.177056
N4    N     N_R   0.499670 0.499180 0.857150 -0.110089
C52   C     C_R   0.459114 0.463329 0.930644 0.147697
C53   C     C_3   0.435010 0.338090 0.927375 -0.547187
C54   C     C_3   0.436106 0.335111 0.081184 0.306311
H21   H     H_    0.397478 0.342900 0.884007 0.219395
H22   H     H_    0.459288 0.267591 0.881876 0.172824
H23   H     H_    0.461520 0.262500 0.123172 0.064488
C55   C     C_2   0.874420 0.868676 0.761889 0.997231
O13   O     O_2   0.843170 0.947631 0.736663 -0.586303
O14   O     O_R   0.891138 0.851615 0.894416 -0.804980
H24   H     H_    0.873727 0.907900 0.960986 0.352714
O15   O     O_3   0.719165 0.814125 0.383255 -0.634943
C56   C     C_3   0.697914 0.914716 0.454908 0.096739
H25   H     H_    0.728348 0.976063 0.488817 0.196486
H26   H     H_    0.676876 0.886144 0.548178 0.129449
C57   C     C_3   0.664660 0.990884 0.360346 -0.334081
H27   H     H_    0.685936 0.021244 0.268923 0.251443
H28   H     H_    0.633450 0.931771 0.327316 0.238442
C58   C     C_3   0.644445 0.106549 0.430218 -0.930525
H29   H     H_    0.622717 0.078542 0.521545 0.263684
H30   H     H_    0.620224 0.159279 0.359648 0.276315
H31   H     H_    0.675040 0.168989 0.460343 0.264543
O16   O     O_3   0.039239 0.925191 0.663369 -0.657628
C59   C     C_3   0.037568 0.021015 0.563000 0.069283
H32   H     H_    0.011934 0.995310 0.480372 0.151270
H33   H     H_    0.074931 0.038614 0.519272 0.152491
C60   C     C_3   0.019195 0.141607 0.627322 -0.311711
H34   H     H_    0.981483 0.126111 0.668615 0.232587
H35   H     H_    0.043683 0.166742 0.712330 0.234704
C61   C     C_3   0.018366 0.250184 0.524615 -0.931580
H36   H     H_    0.055942 0.268412 0.483977 0.273024
H37   H     H_    0.005026 0.336340 0.574451 0.271954
H38   H     H_    0.993413 0.228342 0.439631 0.266603
C62   C     C_2   0.579842 0.613369 0.131946 0.954705
O17   O     O_2   0.572936 0.704516 0.202420 -0.658616
O18   O     O_R   0.627631 0.573454 0.103550 -0.790737
H39   H     H_    0.653462 0.625932 0.149797 0.363285
O19   O     O_3   0.388048 0.340506 0.136994 -0.619904
C63   C     C_3   0.381695 0.249989 0.242133 0.124453
H40   H     H_    0.348964 0.277303 0.302570 0.175842
H41   H     H_    0.413134 0.248922 0.313385 0.141033
C64   C     C_3   0.372507 0.119022 0.185373 -0.386478
H42   H     H_    0.339015 0.121098 0.121746 0.245621
H43   H     H_    0.404033 0.090285 0.120991 0.214073
C65   C     C_3   0.365707 0.021854 0.299319 -0.926465
H44   H     H_    0.399200 0.016928 0.362767 0.265084
H45   H     H_    0.359120 0.928164 0.255543 0.270907
H46   H     H_    0.333676 0.046421 0.363914 0.274364

loop_
_geom_bond_atom_site_label_1
_geom_bond_atom_site_label_2
_geom_bond_distance
_ccdc_geom_bond_type
C51   H20   1.082700 S    
C56   H25   1.111320 S    
C17   C29   1.394910 A    
C64   H43   1.110931 S    
C7    C8    1.385278 A    
C47   H17   1.111958 S    
C12   C15   1.406150 A    
C57   H28   1.110697 S    
C46   C47   1.493634 S    
Zn1   O7    1.972954 S    
N1    C11   1.430840 S    
C44   C45   1.399835 A    
C37   H11   1.083627 S    
C38   H12   1.077506 S    
C21   C22   1.384580 A    
Zn2   N3    2.015673 S    
C15   C37   1.397679 A    
C23   C24   1.411369 A    
O7    C4    1.291669 A    
C47   H16   1.112468 S    
C5    C13   1.398044 A    
C7    H10   1.083119 S    
C5    O9    1.350309 S    
Zn1   N4    2.014723 S    
C18   C21   1.409554 A    
C5    N1    1.367910 A    
C19   C20   1.414994 A    
C26   N2    1.365543 A    
C8    H9    1.083214 S    
O5    C3    1.284459 A    
C61   H36   1.110884 S    
C57   H27   1.111567 S    
C30   H13   1.081073 S    
C22   H6    1.083507 S    
C49   N3    1.362201 A    
C39   C55   1.482166 S    
C2    C16   1.462763 S    
O16   C59   1.412668 S    
C37   C40   1.395340 A    
C60   H35   1.112034 S    
C55   O14   1.398279 S    
C50   C62   1.466536 S    
C65   H46   1.110822 S    
C58   H29   1.110540 S    
C41   C42   1.391096 A    
C12   C34   1.413933 A    
C14   H3    1.083409 S    
C56   H26   1.117944 S    
C9    C10   1.395299 A    
C41   C46   1.365991 A    
C58   H30   1.110448 S    
C49   C52   1.407824 A    
O3    Zn1   1.978782 S    
C59   H33   1.115607 S    
C59   H32   1.115143 S    
N1    C6    1.368409 A    
C33   C36   1.412631 A    
C44   H15   1.082638 S    
C34   C35   1.418786 A    
C12   C13   1.407738 A    
C43   C44   1.379736 A    
C21   H7    1.079339 S    
C53   C54   1.519340 S    
C50   C51   1.416647 A    
C27   O10   1.350587 S    
C8    C16   1.404119 A    
C18   C33   1.411634 A    
N3    C50   1.383339 A    
C9    H1    1.082904 S    
C54   H23   1.116956 S    
C31   O15   1.385818 S    
O1    C1    1.290467 A    
C61   H38   1.111261 S    
C1    C42   1.422266 S    
C63   H41   1.112202 S    
C22   C23   1.397257 A    
C53   H21   1.111842 S    
C31   C32   1.399959 A    
C3    C45   1.418248 S    
Zn2   O8    1.978782 S    
C60   C61   1.526749 S    
C55   O13   1.223080 D    
C19   C38   1.408895 A    
C33   C34   1.416958 A    
N2    C32   1.426140 S    
C45   C46   1.392230 A    
C35   C40   1.425470 A    
O3    C2    1.298901 A    
C25   C26   1.415727 A    
C9    C16   1.403876 A    
O8    C4    1.293540 A    
C29   H4    1.082869 S    
C56   C57   1.530993 S    
C25   C39   1.418933 A    
C51   N4    1.357819 A    
C65   H44   1.111216 S    
C58   H31   1.110295 S    
C64   C65   1.526471 S    
N2    C27   1.361641 A    
C62   O18   1.397722 S    
C63   H40   1.110812 S    
C14   C36   1.386770 A    
C24   C25   1.416856 A    
C28   C29   1.392222 A    
C7    C11   1.398159 A    
C40   O16   1.382255 S    
Zn1   O5    1.984795 S    
C30   C31   1.397634 A    
C10   H2    1.082774 S    
C41   C48   1.493041 S    
O1    Zn1   1.997758 S    
C17   C30   1.399769 A    
O2    Zn2   1.984796 S    
C6    C15   1.402288 A    
C4    C17   1.446304 S    
C43   H14   1.082924 S    
O6    C3    1.285439 A    
C54   O19   1.416972 S    
C48   H18   1.112149 S    
C36   H8    1.078758 S    
C62   O17   1.219791 D    
C26   O12   1.347925 S    
C19   C35   1.422133 A    
C38   C39   1.397118 A    
O2    C1    1.281712 A    
C13   C14   1.396745 A    
C63   C64   1.534943 S    
C42   C43   1.405938 A    
C53   H22   1.102014 S    
C48   H19   1.111521 S    
C47   C48   1.512162 S    
C28   H5    1.082846 S    
C52   C53   1.487458 S    
O4    C2    1.293535 A    
O19   C63   1.414850 S    
C20   C24   1.416077 A    
O15   C56   1.418022 S    
C18   C20   1.417851 A    
C64   H42   1.111393 S    
C57   C58   1.526274 S    
C61   H37   1.110838 S    
C28   C32   1.403234 A    
C6    O11   1.349669 S    
C23   C27   1.393202 A    
Zn2   O6    1.997757 S    
O14   H24   1.013853 S    
C65   H45   1.110477 S    
O4    Zn2   1.972957 S    
C10   C11   1.402140 A    
C49   C54   1.490595 S    
N4    C52   1.366016 A    
C59   C60   1.528491 S    
C60   H34   1.112107 S    
O18   H39   1.013763 S    
