data_mof_unit_9799.cif
_audit_creation_date              2012-10-26T21:21:05-0400
_audit_creation_method            fapswitch 2.2
_symmetry_space_group_name_H-M    P1
_symmetry_Int_Tables_number       1
_space_group_crystal_system       triclinic
_cell_length_a                    10.777483
_cell_length_b                    10.922824
_cell_length_c                    9.760011
_cell_angle_alpha                 89.542204
_cell_angle_beta                  89.459357
_cell_angle_gamma                 90.913633
_cell_volume                      1148.71857328

loop_
_atom_site_label
_atom_site_type_symbol
_atom_type_description
_atom_site_fract_x
_atom_site_fract_y
_atom_site_fract_z
_atom_type_partial_charge
C1    C     C_R   0.503535 0.265694 0.500373 0.514038
C2    C     C_2   0.515637 0.134172 0.502557 -0.102413
C3    C     C_2   0.505809 0.401625 0.923213 0.023785
C4    C     C_R   0.262753 0.496075 0.500620 0.521177
C5    C     C_2   0.480709 0.403635 0.075676 0.034845
C6    C     C_R   0.494743 0.734294 0.499751 0.558512
C7    C     C_R   0.737147 0.496103 0.499553 0.534345
C8    C     C_R   0.124612 0.301754 0.647661 -0.105059
C9    C     C_R   0.057321 0.210999 0.718495 -0.123138
C10   C     C_R   0.928318 0.210169 0.716646 -0.113915
C11   C     C_R   0.865720 0.300411 0.644439 -0.091688
C12   C     C_R   0.063143 0.395683 0.575812 0.028804
C13   C     C_R   0.931867 0.395093 0.574328 0.030086
C14   C     C_3   0.269910 0.927248 0.577981 -0.302213
C15   C     C_R   0.128788 0.488195 0.501495 0.006024
C16   C     C_R   0.066099 0.574696 0.423540 -0.152960
C17   C     C_R   0.938131 0.574272 0.422370 -0.134360
C18   C     C_R   0.870833 0.487221 0.498946 0.007519
C19   C     C_2   0.511766 0.934239 0.392796 -0.116638
C20   C     C_2   0.472359 0.865146 0.499993 0.124752
C21   C     C_2   0.501681 0.067613 0.389059 -0.149235
Cu1   Cu    Cu3+1 0.500020 0.500020 0.638630 0.984589
Cu2   Cu    Cu3+1 0.499980 0.499980 0.361370 1.073441
H1    H     H_    0.116695 0.644687 0.365584 0.128172
H2    H     H_    0.891348 0.644322 0.364172 0.156229
H3    H     H_    0.554613 0.892006 0.304175 0.158598
H4    H     H_    0.487682 0.111220 0.290121 0.139949
H5    H     H_    0.730216 0.749291 0.174242 0.334512
H6    H     H_    0.413235 0.873145 0.702978 0.279358
H7    H     H_    0.221480 0.969538 0.666095 0.139762
H8    H     H_    0.226906 0.835858 0.558721 0.143457
H9    H     H_    0.257996 0.987162 0.486696 0.166083
H10   H     H_    0.539119 0.091980 0.599747 0.145251
H11   H     H_    0.529775 0.315204 0.876951 0.120585
H12   H     H_    0.445356 0.566959 0.886835 0.267773
H13   H     H_    0.448077 0.318882 0.123085 0.078645
H14   H     H_    0.224611 0.295992 0.648365 0.138447
H15   H     H_    0.105495 0.140224 0.773878 0.110370
H16   H     H_    0.876477 0.138476 0.770132 0.118732
H17   H     H_    0.765623 0.293590 0.642494 0.130370
N1    N     N_2   0.498640 0.498660 0.846910 -0.283956
N2    N     N_2   0.498610 0.498630 0.153040 -0.055571
N3    N     N_2   0.400081 0.914784 0.609150 -0.533763
O1    O     O_R   0.500020 0.321960 0.617040 -0.535067
O2    O     O_2   0.524478 0.717595 0.030417 -0.331053
O3    O     O_3   0.682913 0.681239 0.218957 -0.493272
O4    O     O_R   0.499980 0.321920 0.382900 -0.524169
O5    O     O_R   0.319670 0.500020 0.617100 -0.518185
O6    O     O_R   0.319630 0.499980 0.382950 -0.509809
O7    O     O_R   0.500020 0.678080 0.617100 -0.492814
O8    O     O_R   0.499980 0.678040 0.382960 -0.443959
O9    O     O_R   0.680370 0.500020 0.617050 -0.479582
O10   O     O_R   0.680330 0.499980 0.382900 -0.435889
O11   O     O_2   0.691950 0.570849 0.990769 -0.270859
S1    S     S_3+6 0.599245 0.617067 0.093555 0.101357

loop_
_geom_bond_atom_site_label_1
_geom_bond_atom_site_label_2
_ccdc_geom_bond_type
O3    S1    S    
C8    C9    A    
Cu1   O5    S    
C5    N2    D    
C3    N1    D    
N2    S1    S    
C6    C20   S    
C9    C10   A    
C14   H8    S    
C1    O1    A    
Cu2   O8    S    
C19   C20   D    
C12   C15   A    
C8    C12   A    
C4    O6    A    
Cu1   O7    S    
C7    C18   S    
C17   H2    S    
C4    C15   S    
C17   C18   A    
C21   H4    S    
C16   H1    S    
H6    N3    S    
C11   C13   A    
H5    O3    S    
Cu2   N2    S    
C13   C18   A    
C2    C21   D    
C2    H10   S    
C9    H15   S    
C19   C21   S    
C14   H7    S    
C7    O9    A    
Cu2   O10   S    
C4    O5    A    
C11   H17   S    
H12   N1    S    
Cu1   O1    S    
Cu2   O6    S    
Cu1   N1    S    
Cu2   O4    S    
C10   C11   A    
C7    O10   A    
C15   C16   A    
C5    H13   S    
C20   N3    S    
C12   C13   A    
O2    S1    D    
Cu1   O9    S    
C1    C2    S    
C8    H14   S    
C6    O8    A    
C19   H3    S    
O11   S1    D    
C16   C17   A    
C6    O7    A    
C3    H11   S    
Cu1   Cu2   S    
C10   H16   S    
C1    O4    A    
C14   H9    S    
C14   N3    S    
C3    C5    S    
