data_mof_unit_31979.cif
_audit_creation_date              2012-12-10T17:10:22-0500
_audit_creation_method            fapswitch 2.2
_symmetry_space_group_name_H-M    P1
_symmetry_Int_Tables_number       1
_space_group_crystal_system       triclinic
_cell_length_a                    10.959328
_cell_length_b                    13.022791
_cell_length_c                    11.683218
_cell_angle_alpha                 99.517141
_cell_angle_beta                  93.493442
_cell_angle_gamma                 90.196936
_cell_volume                      1641.28017793

loop_
_atom_site_label
_atom_site_type_symbol
_atom_type_description
_atom_site_fract_x
_atom_site_fract_y
_atom_site_fract_z
_atom_type_partial_charge
C1    C     C_R   0.499091 0.299343 0.478948 0.811316
C2    C     C_R   0.503527 0.700766 0.521041 0.938339
C3    C     C_R   0.503301 0.814036 0.533229 -0.146429
C4    C     C_R   0.502430 0.186366 0.466919 -0.128010
C5    C     C_R   0.533644 0.018874 0.348073 0.387732
C6    C     C_R   0.473670 0.981842 0.652222 0.421611
C7    C     C_R   0.526337 0.126694 0.360284 -0.266947
C8    C     C_R   0.483675 0.874352 0.640699 -0.183903
C9    C     C_R   0.484982 0.138742 0.563088 -0.152116
C10   C     C_R   0.519143 0.861479 0.436554 -0.130738
C11   C     C_R   0.490730 0.030694 0.554505 -0.013201
C12   C     C_R   0.514992 0.969742 0.445397 -0.000473
C13   C     C_R   0.419717 0.379078 0.020980 0.353721
C14   C     C_R   0.571303 0.624258 0.978312 0.412834
C15   C     C_R   0.424662 0.393555 0.144022 -0.049286
C16   C     C_R   0.573701 0.606949 0.855849 0.044836
C17   C     C_R   0.521898 0.557690 0.156841 0.122213
C18   C     C_R   0.471571 0.444689 0.842483 0.100014
C19   C     C_R   0.521721 0.546780 0.033968 -0.058584
C20   C     C_R   0.470997 0.455776 0.965362 -0.052760
C21   C     C_R   0.262527 0.498867 0.500643 0.857773
C22   C     C_R   0.738147 0.498026 0.499709 0.822206
C23   C     C_R   0.124938 0.594447 0.708332 0.407143
C24   C     C_R   0.876799 0.487258 0.286191 0.209563
C25   C     C_R   0.080460 0.583734 0.816228 0.267370
C26   C     C_R   0.911673 0.414419 0.191097 0.374030
C27   C     C_R   0.975866 0.520258 0.818083 0.284320
C28   C     C_R   0.024486 0.364859 0.199543 0.418243
C29   C     C_R   0.905519 0.488108 0.714649 -0.171576
C30   C     C_R   0.100801 0.391308 0.301981 -0.362882
C31   C     C_R   0.946280 0.506282 0.607188 -0.057802
C32   C     C_R   0.057152 0.456639 0.399755 0.029986
C33   C     C_R   0.069054 0.535897 0.604980 -0.116227
C34   C     C_R   0.933351 0.481002 0.395752 -0.040616
C35   C     C_R   0.872885 0.495265 0.500788 -0.080465
C36   C     C_R   0.129156 0.498658 0.501775 -0.052176
Cu1   Cu    Cu3+1 0.509250 0.507730 0.615930 1.016303
Cu2   Cu    Cu3+1 0.490750 0.492270 0.384070 1.004253
H1    H     H_    0.824493 0.442126 0.719697 0.219324
H2    H     H_    0.189364 0.355505 0.306332 0.165393
H3    H     H_    0.534745 0.812710 0.354801 0.230175
H4    H     H_    0.467324 0.187273 0.644457 0.222574
H5    H     H_    0.473054 0.837116 0.715532 0.239058
H6    H     H_    0.541622 0.164940 0.286860 0.184903
H7    H     H_    0.429328 0.376948 0.788366 0.188131
H8    H     H_    0.559375 0.627457 0.210131 0.228274
H9    H     H_    0.612856 0.665511 0.812877 0.132421
H10   H     H_    0.386728 0.334471 0.187005 0.117048
N1    N     N_R   0.523180 0.519350 0.790130 -0.221051
N2    N     N_R   0.476820 0.480650 0.209870 -0.226975
O1    O     O_R   0.506570 0.354460 0.582000 -0.601954
O2    O     O_R   0.493430 0.645540 0.418000 -0.578101
O3    O     O_R   0.490940 0.341410 0.386200 -0.608076
O4    O     O_R   0.509060 0.658590 0.613800 -0.562662
O5    O     O_R   0.327470 0.506520 0.597900 -0.568522
O6    O     O_R   0.672530 0.493480 0.402100 -0.563724
O7    O     O_R   0.311840 0.493460 0.402100 -0.573137
O8    O     O_R   0.688160 0.506540 0.597900 -0.604362
O9    O     O_3   0.060209 0.295789 0.105216 -0.633758
H11   H     H_    0.141800 0.268545 0.125031 0.311396
O10   O     O_3   0.936829 0.492160 0.918488 -0.637365
H12   H     H_    0.007986 0.494155 0.975359 0.363693
O11   O     O_3   0.366059 0.291159 0.954608 -0.658585
H13   H     H_    0.336721 0.244965 0.006938 0.334376
O12   O     O_3   0.615200 0.716204 0.043962 -0.622220
H14   H     H_    0.645879 0.761770 0.991569 0.359872
S1    S     S_3+6 0.213805 0.707312 0.704211 0.069868
O13   O     O_2   0.332946 0.700496 0.772769 -0.258449
O14   O     O_2   0.235488 0.720249 0.581616 -0.319633
O15   O     O_3   0.138298 0.811586 0.767616 -0.460188
H15   H     H_    0.191315 0.872108 0.762074 0.397282
S2    S     S_3+6 0.852301 0.615867 0.259748 0.040759
O16   O     O_2   0.753453 0.667808 0.330987 -0.268862
O17   O     O_2   0.969214 0.676948 0.294717 -0.243352
O18   O     O_3   0.817273 0.616129 0.117833 -0.509055
H16   H     H_    0.858986 0.678545 0.099662 0.397347
O19   O     O_3   0.137717 0.638892 0.916457 -0.643222
H17   H     H_    0.079178 0.648850 0.978533 0.346952
O20   O     O_3   0.839714 0.392906 0.088837 -0.603166
H18   H     H_    0.758252 0.423951 0.102399 0.345867
S3    S     S_3+6 0.569337 0.949625 0.210722 0.041181
O21   O     O_2   0.682508 0.887192 0.225921 -0.190502
O22   O     O_2   0.465027 0.877047 0.161905 -0.258286
O23   O     O_3   0.595331 0.030889 0.116580 -0.456200
H19   H     H_    0.514086 0.058572 0.096845 0.355598
S4    S     S_3+6 0.434801 0.050520 0.788914 0.006629
O24   O     O_2   0.536342 0.125551 0.838919 -0.240867
O25   O     O_2   0.319476 0.109838 0.771751 -0.285332
O26   O     O_3   0.411895 0.967654 0.882135 -0.500485
H20   H     H_    0.352551 0.002469 0.935923 0.380358

loop_
_geom_bond_atom_site_label_1
_geom_bond_atom_site_label_2
_ccdc_geom_bond_type
C27   C29   A    
C19   C20   A    
C8    H5    S    
S3    O21   D    
C21   C36   S    
O19   H17   S    
C22   C35   S    
C9    H4    S    
C25   O19   S    
C32   C36   A    
C24   C26   A    
C4    C7    A    
Cu1   O1    S    
S4    O25   D    
Cu2   O2    S    
C33   C36   A    
Cu1   N1    S    
C34   C35   A    
C15   N2    A    
C23   S1    S    
C1    O3    A    
C27   O10   S    
O23   H19   S    
C23   C33   A    
C31   C33   A    
O15   H15   S    
C18   C20   A    
Cu1   O8    S    
O9    H11   S    
C10   H3    S    
C15   H10   S    
S2    O18   S    
C10   C12   A    
C16   H9    S    
S3    O22   D    
S1    O13   D    
C17   H8    S    
C5    C12   A    
S2    O17   D    
C3    C8    A    
C2    O4    A    
C6    C11   A    
C5    C7    A    
S4    O24   D    
C6    C8    A    
C24   C34   A    
O20   H18   S    
S1    O14   D    
C32   C34   A    
O18   H16   S    
C21   O7    A    
Cu1   Cu2   S    
Cu2   O7    S    
C5    S3    S    
C13   O11   S    
C29   H1    S    
C30   H2    S    
C7    H6    S    
C16   N1    A    
C9    C11   A    
C2    O2    A    
Cu1   O4    S    
C13   C15   A    
C14   C16   A    
C18   H7    S    
S3    O23   S    
C24   S2    S    
C21   O5    A    
C28   O9    S    
C1    O1    A    
C13   C20   A    
C14   C19   A    
S2    O16   D    
S4    O26   S    
C17   N2    A    
C22   O8    A    
C22   O6    A    
C11   C12   A    
Cu2   N2    S    
C25   C27   A    
C26   C28   A    
C26   O20   S    
C6    S4    S    
S1    O15   S    
C1    C4    S    
C28   C30   A    
C2    C3    S    
C4    C9    A    
C29   C31   A    
C3    C10   A    
C30   C32   A    
Cu2   O3    S    
C17   C19   A    
C14   O12   S    
C31   C35   A    
C23   C25   A    
O10   H12   S    
O11   H13   S    
Cu1   O5    S    
Cu2   O6    S    
O12   H14   S    
O26   H20   S    
C18   N1    A    
