data_mof_unit_44450.cif
_audit_creation_date              2012-12-11T16:37:25-0500
_audit_creation_method            fapswitch 2.2
_symmetry_space_group_name_H-M    P1
_symmetry_Int_Tables_number       1
_space_group_crystal_system       triclinic
_cell_length_a                    19.475517
_cell_length_b                    6.951992
_cell_length_c                    17.669799
_cell_angle_alpha                 89.76348
_cell_angle_beta                  108.916727
_cell_angle_gamma                 90.286261
_cell_volume                      2263.13162071

loop_
_atom_site_label
_atom_site_type_symbol
_atom_type_description
_atom_site_fract_x
_atom_site_fract_y
_atom_site_fract_z
_atom_type_partial_charge
O1    O     O_R   0.561710 0.369960 0.440200 -0.534782
O2    O     O_R   0.061710 0.630040 0.940200 -0.536263
O3    O     O_R   0.412630 0.033330 0.406330 -0.544029
O4    O     O_R   0.912630 0.966670 0.906330 -0.540773
O5    O     O_R   0.438290 0.869790 0.559800 -0.538998
O6    O     O_R   0.938290 0.130210 0.059800 -0.544096
C1    C     C_R   0.384959 0.203037 0.383099 0.693452
C2    C     C_R   0.885015 0.796809 0.883017 0.693305
O7    O     O_R   0.559570 0.039810 0.430640 -0.541014
O8    O     O_R   0.059570 0.960190 0.930640 -0.542509
O9    O     O_R   0.586280 0.876320 0.584290 -0.538045
O10   O     O_R   0.086280 0.123680 0.084290 -0.539030
C3    C     C_R   0.580759 0.209695 0.415464 0.706941
C4    C     C_R   0.081080 0.791457 0.915454 0.706746
O11   O     O_R   0.413720 0.363440 0.415710 -0.537956
O12   O     O_R   0.913720 0.636560 0.915710 -0.538876
O13   O     O_3   0.508590 0.205630 0.550380 -0.369367
O14   O     O_3   0.008590 0.794370 0.050380 -0.371036
V1    V     V_3+5 0.498410 0.928130 0.490650 1.395495
V2    V     V_3+5 0.998410 0.071870 0.990650 1.384464
O15   O     O_R   0.587370 0.546990 0.593670 -0.540425
O16   O     O_R   0.087370 0.453010 0.093670 -0.537401
C5    C     C_R   0.614889 0.716900 0.617298 0.697273
C6    C     C_R   0.114828 0.283215 0.117384 0.699800
O17   O     O_R   0.440430 0.540520 0.569360 -0.539785
O18   O     O_R   0.940430 0.459480 0.069360 -0.538765
C7    C     C_R   0.418008 0.708763 0.583216 0.701860
C8    C     C_R   0.919723 0.289597 0.085542 0.700639
V3    V     V_3+5 0.501590 0.428960 0.509350 1.404729
V4    V     V_3+5 0.001590 0.571040 0.009350 1.397806
O19   O     O_3   0.491410 0.701330 0.449620 -0.368279
O20   O     O_3   0.991410 0.298670 0.949620 -0.369252
C9    C     C_R   0.258743 0.837190 0.653762 -0.153270
C10   C     C_R   0.817947 0.109957 0.225371 -0.202376
H1    H     H_    0.208795 0.918711 0.632706 0.141439
H2    H     H_    0.817200 0.986525 0.262751 0.141149
C11   C     C_R   0.303696 0.828515 0.605946 0.198588
C12   C     C_R   0.867367 0.114598 0.182622 0.195936
C13   C     C_R   0.368309 0.719090 0.631472 -0.141675
C14   C     C_R   0.869965 0.277221 0.134368 -0.126944
C15   C     C_R   0.386005 0.620876 0.704816 -0.192813
C16   C     C_R   0.822572 0.430875 0.131653 -0.240156
H3    H     H_    0.435653 0.537966 0.725306 0.136775
H4    H     H_    0.823065 0.556275 0.095188 0.131753
C17   C     C_R   0.342082 0.633745 0.753998 0.233140
C18   C     C_R   0.772633 0.423761 0.173892 0.240650
C19   C     C_R   0.277220 0.743116 0.728092 -0.019194
C20   C     C_R   0.769688 0.261810 0.220729 0.019849
C21   C     C_R   0.186656 0.597840 0.784832 -0.169058
C22   C     C_R   0.727615 0.375594 0.331806 -0.138662
H5    H     H_    0.191791 0.463258 0.756612 0.146573
H6    H     H_    0.770779 0.481855 0.346080 0.129533
C23   C     C_R   0.139406 0.608292 0.829861 -0.160042
C24   C     C_R   0.682741 0.363598 0.379557 -0.180531
H7    H     H_    0.109454 0.480433 0.835597 0.135442
H8    H     H_    0.691841 0.461720 0.429353 0.122978
C25   C     C_R   0.130416 0.781697 0.866342 -0.117671
C26   C     C_R   0.627957 0.223144 0.364593 -0.097261
C27   C     C_R   0.170384 0.944063 0.857050 -0.139848
C28   C     C_R   0.617070 0.099820 0.299172 -0.158633
H9    H     H_    0.165267 0.078731 0.885385 0.136836
H10   H     H_    0.573401 0.994967 0.285403 0.133398
C29   C     C_R   0.218848 0.933800 0.813131 0.228097
C30   C     C_R   0.660216 0.113997 0.249156 0.221328
C31   C     C_R   0.227108 0.759135 0.776157 0.032640
C32   C     C_R   0.717813 0.250506 0.266849 0.098750
C33   C     C_R   0.804444 0.621989 0.761758 0.106754
C34   C     C_R   0.304355 0.379179 0.262194 0.112950
C35   C     C_R   0.818214 0.782683 0.812475 -0.110443
C36   C     C_R   0.318089 0.217263 0.312636 -0.109360
C37   C     C_R   0.765410 0.928170 0.794251 -0.181885
C38   C     C_R   0.265117 0.071133 0.294337 -0.172346
H11   H     H_    0.773202 0.053982 0.831795 0.132830
H12   H     H_    0.272815 0.944565 0.331765 0.132942
C39   C     C_R   0.699406 0.905543 0.731116 -0.172670
C40   C     C_R   0.199104 0.093907 0.231239 -0.171430
H13   H     H_    0.658951 0.017373 0.720826 0.131582
H14   H     H_    0.158560 0.981346 0.220823 0.131098
C41   C     C_R   0.683892 0.735878 0.684744 -0.108603
C42   C     C_R   0.183729 0.264404 0.185001 -0.110563
C43   C     C_R   0.739190 0.599471 0.699381 0.095942
C44   C     C_R   0.239106 0.401838 0.199851 0.105110
C45   C     C_3   0.736708 0.389071 0.714302 -0.426598
C46   C     C_3   0.236707 0.611670 0.215197 -0.426832
C47   C     C_3   0.808072 0.413162 0.781926 -0.385817
C48   C     C_3   0.308046 0.587469 0.282783 -0.387050
H15   H     H_    0.741740 0.302230 0.663693 0.174859
H16   H     H_    0.241793 0.700327 0.164773 0.179574
H17   H     H_    0.690616 0.349245 0.735400 0.172732
H18   H     H_    0.190626 0.649512 0.236360 0.173453
H19   H     H_    0.854395 0.340968 0.770181 0.173618
H20   H     H_    0.354396 0.661454 0.271195 0.177742
H21   H     H_    0.803461 0.385843 0.842140 0.168807
H22   H     H_    0.303415 0.612773 0.343037 0.166147
N1    N     N_3   0.281170 0.927663 0.530649 -0.671732
H23   H     H_    0.280396 0.830108 0.485486 0.210660
H24   H     H_    0.318825 0.036226 0.531974 0.238578
N2    N     N_3   0.915158 0.953935 0.191424 -0.665116
H25   H     H_    0.901969 0.881092 0.136954 0.245345
H26   H     H_    0.968639 0.004212 0.207429 0.229795
N3    N     N_3   0.366697 0.539977 0.830685 -0.660432
H27   H     H_    0.362761 0.391793 0.820664 0.237117
H28   H     H_    0.334359 0.573224 0.865701 0.247677
N4    N     N_3   0.724159 0.580730 0.168137 -0.682893
H29   H     H_    0.755673 0.704510 0.186713 0.223376
H30   H     H_    0.693553 0.598980 0.107881 0.235459
N5    N     N_3   0.260923 0.100773 0.809363 -0.696603
H31   H     H_    0.248642 0.142136 0.749565 0.221130
H32   H     H_    0.315806 0.063570 0.831297 0.239453
N6    N     N_3   0.641286 0.994499 0.179227 -0.665269
H33   H     H_    0.646612 0.851636 0.198560 0.249691
H34   H     H_    0.675833 0.016141 0.145536 0.232667

loop_
_geom_bond_atom_site_label_1
_geom_bond_atom_site_label_2
_ccdc_geom_bond_type
C45   H15   S    
C29   C31   A    
N3    H27   S    
C34   C48   S    
N1    H23   S    
O4    C2    A    
V1    O19   S    
C1    C36   S    
N4    H30   S    
C47   H19   S    
C13   C15   A    
O18   C8    A    
O9    V1    S    
C2    C35   S    
C22   C24   A    
C39   C41   A    
C16   H4    S    
C12   C14   A    
C46   C48   S    
O3    C1    A    
C24   C26   A    
C25   C27   A    
C8    C14   S    
C26   C28   A    
O13   V3    S    
C11   N1    S    
C28   H10   S    
C16   C18   A    
C35   C37   A    
O7    C3    A    
N6    H33   S    
C48   H22   S    
C1    O11   A    
O5    C7    A    
C47   H21   S    
O7    V1    S    
O6    C8    A    
O8    V2    S    
C21   H5    S    
C22   H6    S    
N5    H31   S    
O3    V1    S    
O14   V4    S    
V4    O20   S    
C10   H2    S    
C38   C40   A    
C17   C19   A    
N3    H28   S    
C15   H3    S    
C46   H18   S    
N4    H29   S    
C43   C45   S    
C6    C42   S    
O11   V3    S    
C18   C20   A    
C12   N2    S    
C23   H7    S    
O17   V3    S    
C45   H17   S    
C24   H8    S    
C33   C47   S    
C27   H9    S    
C40   C42   A    
C38   H12   S    
O8    C4    A    
C7    C13   S    
C37   H11   S    
C23   C25   A    
C17   N3    S    
C3    C26   S    
C18   N4    S    
C9    C11   A    
C33   C35   A    
C30   C32   A    
C39   H13   S    
C30   N6    S    
O10   V2    S    
O1    V3    S    
C22   C32   A    
C21   C31   A    
C42   C44   A    
C45   C47   S    
C33   C43   A    
C44   C46   S    
O15   C5    A    
C9    C19   A    
O16   C6    A    
O1    C3    A    
C29   N5    S    
C41   C43   A    
V2    O20   S    
C4    C25   S    
O16   V4    S    
C10   C12   A    
C27   C29   A    
C46   H16   S    
C40   H14   S    
C14   C16   A    
N1    H24   S    
O18   V4    S    
O5    V1    S    
O17   C7    A    
O6    V2    S    
O10   C6    A    
N2    H26   S    
O2    V4    S    
C28   C30   A    
C34   C44   A    
V3    O19   S    
C48   H20   S    
C37   C39   A    
N5    H32   S    
O15   V3    S    
C21   C23   A    
O9    C5    A    
C9    H1    S    
O14   V2    S    
O2    C4    A    
N6    H34   S    
O4    V2    S    
O13   V1    S    
C11   C13   A    
C10   C20   A    
C2    O12   A    
N2    H25   S    
C34   C36   A    
C15   C17   A    
C36   C38   A    
C20   C32   S    
C5    C41   S    
O12   V4    S    
C19   C31   S    
