data_mof_unit_51437.cif
_audit_creation_date              2013-03-05T15:52:47-0500
_audit_creation_method            fapswitch 2.2
_symmetry_space_group_name_H-M    P1
_symmetry_Int_Tables_number       1
_space_group_crystal_system       triclinic
_cell_length_a                    6.952438
_cell_length_b                    14.954871
_cell_length_c                    21.344078
_cell_angle_alpha                 73.554214
_cell_angle_beta                  90.408531
_cell_angle_gamma                 90.119764
_cell_volume                      2128.35776118

loop_
_atom_site_label
_atom_site_type_symbol
_atom_site_description
_atom_site_fract_x
_atom_site_fract_y
_atom_site_fract_z
_atom_type_partial_charge
O1    O     O_R   0.648150 0.130050 0.214300 -0.581475
O2    O     O_R   0.351850 0.869950 0.785700 -0.575237
O3    O     O_R   0.320490 0.006660 0.340150 -0.602043
O4    O     O_R   0.679510 0.993340 0.659850 -0.603095
O5    O     O_R   0.146100 0.869940 0.285700 -0.605447
O6    O     O_R   0.853900 0.130060 0.714300 -0.605209
C1    C     C_R   0.488922 0.999459 0.367492 0.970465
C2    C     C_R   0.510354 0.997365 0.633004 0.975118
O7    O     O_R   0.318690 0.137980 0.218120 -0.589977
O8    O     O_R   0.681310 0.862020 0.781880 -0.594858
O9    O     O_R   0.144280 0.002190 0.162800 -0.600437
O10   O     O_R   0.855720 0.997810 0.837200 -0.601537
C3    C     C_R   0.487919 0.175363 0.206117 1.107761
C4    C     C_R   0.512860 0.825084 0.795609 1.093425
O11   O     O_R   0.649960 0.997790 0.337200 -0.595959
O12   O     O_R   0.350040 0.002210 0.662800 -0.593245
O13   O     O_3   0.479300 0.955290 0.231990 -0.281644
O14   O     O_3   0.520700 0.044710 0.768010 -0.281627
V1    V     V_3+5 0.206040 0.008290 0.253340 1.213174
V2    V     V_3+5 0.793960 0.991710 0.746660 1.216727
O15   O     O_R   0.814320 0.993320 0.159850 -0.588931
O16   O     O_R   0.185680 0.006680 0.840150 -0.591541
C5    C     C_R   0.982851 0.998124 0.133046 1.029833
C6    C     C_R   0.017207 0.001434 0.867043 1.029766
O17   O     O_R   0.816120 0.862000 0.281880 -0.597873
O18   O     O_R   0.183880 0.138000 0.718120 -0.593371
C7    C     C_R   0.985521 0.824638 0.293496 0.947183
C8    C     C_R   0.013909 0.175716 0.707021 0.936475
V3    V     V_3+5 0.705540 0.991700 0.246660 1.226213
V4    V     V_3+5 0.294460 0.008300 0.753340 1.233383
O19   O     O_3   0.982150 0.044700 0.268010 -0.269759
O20   O     O_3   0.017850 0.955300 0.731990 -0.264803
C9    C     C_R   0.996789 0.723623 0.320292 -0.191814
C10   C     C_R   0.993501 0.277136 0.680963 -0.158188
C11   C     C_R   0.070300 0.572259 0.307802 -0.063775
C12   C     C_R   0.799731 0.411096 0.679663 -0.124777
C13   C     C_R   0.045284 0.667757 0.280418 -0.121931
C14   C     C_R   0.866228 0.322588 0.711863 -0.099746
C15   C     C_R   0.968386 0.683651 0.387066 -0.210321
C16   C     C_R   0.059604 0.322702 0.618194 -0.211863
C17   C     C_R   0.982091 0.586307 0.415287 0.135298
C18   C     C_R   0.974529 0.407621 0.580846 0.146333
C19   C     C_R   0.049221 0.532264 0.375356 0.048298
C20   C     C_R   0.848336 0.452682 0.614263 0.061016
C21   C     C_R   0.936082 0.541483 0.481933 -0.176303
C22   C     C_R   0.004368 0.448461 0.511907 -0.167405
C23   C     C_R   0.083725 0.398215 0.470287 0.558147
C24   C     C_R   0.810794 0.583485 0.517868 0.575315
C25   C     C_R   0.097698 0.439408 0.403085 -0.328241
C26   C     C_R   0.768755 0.538656 0.582518 -0.369589
H1    H     H_    0.153359 0.398455 0.372667 0.178291
H2    H     H_    0.671450 0.572088 0.608088 0.211999
H3    H     H_    0.173305 0.288551 0.600167 0.197938
H4    H     H_    0.949516 0.730874 0.416517 0.177697
H5    H     H_    0.813633 0.287905 0.760304 0.177580
H6    H     H_    0.067391 0.698324 0.228567 0.167537
H7    H     H_    0.109371 0.529803 0.276401 0.151180
H8    H     H_    0.702332 0.445238 0.704901 0.211774
C27   C     C_3   0.819538 0.993942 0.977261 -0.172142
C28   C     C_3   0.180665 0.005000 0.022954 -0.176187
C29   C     C_3   0.915888 0.919327 0.035219 -0.230271
C30   C     C_3   0.084285 0.079662 0.965010 -0.227894
H9    H     H_    0.850469 0.852779 0.063936 0.217299
H10   H     H_    0.150328 0.146046 0.936314 0.218815
H11   H     H_    0.670933 0.991054 0.958523 0.192159
H12   H     H_    0.329268 0.007822 0.041705 0.193737
C31   C     C_3   0.992675 0.997931 0.062834 -0.318855
C32   C     C_3   0.007486 0.001094 0.937367 -0.317463
C33   C     C_3   0.899133 0.070709 0.005537 0.436506
C34   C     C_3   0.101002 0.928254 0.994663 0.432388
C35   C     C_3   0.676806 0.010669 0.476126 -0.133512
C36   C     C_3   0.319833 0.981523 0.524999 -0.126581
C37   C     C_3   0.563184 0.078612 0.505085 -0.133568
C38   C     C_3   0.432984 0.913821 0.495907 -0.127356
H13   H     H_    0.611644 0.147424 0.509105 0.134424
H14   H     H_    0.376372 0.845791 0.492863 0.134036
H15   H     H_    0.822827 0.021552 0.454597 0.126598
H16   H     H_    0.173342 0.967368 0.545722 0.138882
C39   C     C_3   0.501396 0.995872 0.562700 -0.115802
C40   C     C_3   0.495542 0.996787 0.438445 -0.113503
C41   C     C_3   0.614750 0.927824 0.534502 -0.041389
C42   C     C_3   0.381787 0.064351 0.466690 -0.052328
H17   H     H_    0.710738 0.871304 0.562827 0.163355
H18   H     H_    0.286694 0.120590 0.437751 0.153904
C43   C     C_R   0.502313 0.276883 0.181097 -0.340626
C44   C     C_R   0.502749 0.724027 0.821983 -0.345340
C45   C     C_R   0.612952 0.425851 0.191729 0.457059
C46   C     C_R   0.464083 0.570327 0.807022 0.440757
C47   C     C_R   0.580782 0.329908 0.219690 0.206917
C48   C     C_R   0.492692 0.666857 0.780551 0.224247
C49   C     C_R   0.462157 0.318052 0.115216 -0.175910
C50   C     C_R   0.505307 0.685354 0.889365 -0.189668
C51   C     C_R   0.511853 0.411720 0.084051 0.094620
C52   C     C_R   0.502056 0.587925 0.917690 0.080117
C53   C     C_R   0.587246 0.466783 0.123298 -0.239358
C54   C     C_R   0.471249 0.529596 0.876032 -0.230034
C55   C     C_R   0.492506 0.451180 0.014800 0.047809
C56   C     C_R   0.527227 0.547678 0.986429 0.052159
C57   C     C_R   0.599577 0.600325 0.026671 -0.226608
C58   C     C_R   0.450188 0.396059 0.972604 -0.237452
C59   C     C_R   0.634895 0.561068 0.093044 0.401535
C60   C     C_R   0.446239 0.432859 0.904845 0.404032
H19   H     H_    0.507126 0.733499 0.918672 0.179555
H20   H     H_    0.396386 0.273570 0.089316 0.151654
H21   H     H_    0.646505 0.671457 0.006746 0.182439
H22   H     H_    0.432041 0.321743 0.990242 0.200072
N1    N     N_R   0.731276 0.617647 0.127607 0.253035
O21   O     O_R   0.909250 0.599535 0.145999 -0.385163
O22   O     O_R   0.656548 0.696883 0.128650 -0.406822
N2    N     N_R   0.419811 0.369177 0.866512 0.261593
O23   O     O_R   0.567297 0.344734 0.838026 -0.369959
O24   O     O_R   0.262011 0.320755 0.872126 -0.419179
N3    N     N_R   0.512071 0.706154 0.711377 0.225830
O25   O     O_R   0.656666 0.682114 0.681395 -0.423574
O26   O     O_R   0.394125 0.770461 0.679067 -0.451120
N4    N     N_R   0.625278 0.287482 0.287654 0.235308
O27   O     O_R   0.779760 0.311325 0.313776 -0.392245
O28   O     O_R   0.506559 0.228535 0.324590 -0.470135
O29   O     O_3   0.673306 0.478501 0.232006 -0.566831
C61   C     C_3   0.509815 0.506226 0.260628 0.315914
H23   H     H_    0.419705 0.445295 0.286205 0.083906
H24   H     H_    0.421526 0.556033 0.222713 0.107538
C62   C     C_3   0.574467 0.554467 0.310901 -0.815732
H25   H     H_    0.448483 0.575591 0.334718 0.196138
H26   H     H_    0.663154 0.506093 0.349142 0.261166
H27   H     H_    0.658285 0.617792 0.286716 0.274945
O30   O     O_3   0.435365 0.516216 0.764793 -0.611619
C63   C     C_3   0.248194 0.531299 0.736978 0.339280
H28   H     H_    0.172245 0.593575 0.743892 0.089120
H29   H     H_    0.157661 0.469463 0.759617 0.148705
C64   C     C_3   0.260341 0.542762 0.663994 -0.859797
H30   H     H_    0.308501 0.476724 0.655031 0.245977
H31   H     H_    0.117777 0.562795 0.641163 0.229624
H32   H     H_    0.361625 0.599313 0.640604 0.279545
O31   O     O_3   0.146246 0.307503 0.493732 -0.662718
C65   C     C_3   0.002640 0.245652 0.484125 0.274967
H33   H     H_    0.030421 0.229130 0.437425 0.150482
H34   H     H_    0.853327 0.273906 0.482186 0.103284
C66   C     C_3   0.013621 0.156421 0.540370 -0.953764
H35   H     H_    0.923029 0.162927 0.581350 0.241815
H36   H     H_    0.960832 0.096761 0.524492 0.216048
H37   H     H_    0.164076 0.141781 0.557962 0.272519
O32   O     O_3   0.719294 0.667255 0.489745 -0.644522
C67   C     C_3   0.535969 0.651197 0.465946 0.234889
H38   H     H_    0.426318 0.652630 0.503309 0.122189
H39   H     H_    0.523327 0.583355 0.453938 0.089614
C68   C     C_3   0.492786 0.728983 0.403983 -0.856815
H40   H     H_    0.576597 0.718846 0.362576 0.259340
H41   H     H_    0.338336 0.729019 0.391701 0.215920
H42   H     H_    0.531435 0.797671 0.410552 0.239656
N5    N     N_R   0.787785 0.149895 0.012069 0.233792
O33   O     O_R   0.608188 0.158983 0.993995 -0.425053
O34   O     O_R   0.867695 0.211798 0.036087 -0.409919
N6    N     N_R   0.211414 0.848768 0.988152 0.230412
O35   O     O_R   0.390398 0.838543 0.006897 -0.421286
O36   O     O_R   0.130299 0.786987 0.964298 -0.415432

loop_
_geom_bond_atom_site_label_1
_geom_bond_atom_site_label_2
_geom_bond_distance
_ccdc_geom_bond_type
C29   C34   1.540527 S    
C59   N1    1.432905 S    
C46   C54   1.426248 A    
C54   C60   1.413520 A    
O13   V3    1.718878 S    
C68   H40   1.107785 S    
C49   H20   1.077292 S    
O4    C2    1.298541 A    
C64   H32   1.106250 S    
V1    O19   1.710118 S    
C63   H28   1.117568 S    
C55   C56   1.418943 A    
C43   C49   1.392554 A    
C62   H25   1.106286 S    
C23   C25   1.395612 A    
C21   C22   1.436812 A    
C7    C9    1.458074 S    
O9    V1    2.003757 S    
C9    C15   1.395966 A    
C38   H14   1.108855 S    
C10   C16   1.400380 A    
C68   H41   1.103494 S    
C36   C39   1.539200 S    
O3    C1    1.295629 A    
C65   C66   1.523098 S    
C66   H37   1.109913 S    
C62   H26   1.109099 S    
C15   H4    1.078899 S    
C52   C56   1.429083 A    
O12   V4    2.000648 S    
O32   C67   1.413771 S    
N4    O27   1.301522 A    
C28   C30   1.560351 S    
C18   C22   1.440888 A    
C48   N3    1.433421 S    
C5    C31   1.501460 S    
C29   H9    1.108925 S    
O7    C3    1.297270 A    
N2    O23   1.300379 A    
C36   H16   1.109167 S    
C50   H19   1.079211 S    
O5    C7    1.291786 A    
C13   H6    1.083083 S    
O7    V1    2.028955 S    
O6    C8    1.291166 A    
C14   H5    1.082904 S    
C28   C31   1.551870 S    
O8    V2    2.028954 S    
C25   H1    1.084481 S    
C45   C53   1.424954 A    
C2    C39   1.507885 S    
C26   H2    1.080122 S    
N5    O33   1.300209 A    
O3    V1    2.005089 S    
O14   V4    1.718877 S    
C11   C19   1.404479 A    
N6    O36   1.300372 A    
C61   C62   1.517885 S    
C24   C26   1.385690 A    
C47   N4    1.440798 S    
C28   H12   1.110344 S    
C2    O12   1.299430 A    
C38   C40   1.541615 S    
C17   C19   1.412340 A    
C18   C20   1.419902 A    
C67   C68   1.522223 S    
C58   C60   1.394312 A    
C35   C40   1.535295 S    
C41   H17   1.110205 S    
C61   H24   1.113554 S    
O11   V3    2.000648 S    
O17   V3    2.022569 S    
C57   H21   1.078551 S    
C27   C29   1.560091 S    
C33   N5    1.455999 S    
O31   C65   1.412461 S    
C68   H42   1.107654 S    
C4    C44   1.457483 S    
C36   C38   1.547848 S    
C44   C48   1.394577 A    
C39   C41   1.541374 S    
C43   C47   1.402365 A    
C19   C25   1.387802 A    
C62   H27   1.108189 S    
C1    O11   1.300673 A    
O15   V3    2.000054 S    
C9    C13   1.394245 A    
C30   C33   1.540385 S    
C31   C33   1.530068 S    
C34   N6    1.456179 S    
C45   O29   1.382692 S    
C27   C32   1.551663 S    
C49   C51   1.413413 A    
C29   C31   1.549017 S    
C16   C18   1.421721 A    
C28   C34   1.540668 S    
N1    O21   1.301069 A    
O10   V2    2.003757 S    
O1    V3    2.026675 S    
C37   C39   1.539998 S    
C67   H38   1.111761 S    
O29   C61   1.411524 S    
C52   C54   1.425841 A    
N6    O35   1.300377 A    
C27   C33   1.540575 S    
C67   H39   1.117724 S    
C57   C59   1.391626 A    
C46   C48   1.407587 A    
O18   V4    2.022569 S    
C42   H18   1.108301 S    
O15   C5    1.300492 A    
O8    C4    1.293475 A    
O17   C7    1.296502 A    
O16   C6    1.300498 A    
C60   N2    1.431261 S    
O1    C3    1.289991 A    
C37   H13   1.108152 S    
C38   C41   1.549576 S    
O30   C63   1.418128 S    
C63   C64   1.521115 S    
C51   C55   1.433439 A    
C37   C42   1.546186 S    
C35   H15   1.109908 S    
C55   C58   1.411663 A    
C61   H23   1.114299 S    
C11   C13   1.392284 A    
C65   H34   1.117673 S    
C35   C37   1.550609 S    
N3    O25   1.300119 A    
V2    O20   1.710119 S    
C21   C24   1.423448 A    
C20   C26   1.386606 A    
C22   C23   1.429987 A    
O16   V4    2.000050 S    
C23   O31   1.376478 S    
C10   C14   1.394510 A    
O18   C8    1.301474 A    
C24   O32   1.380774 S    
C65   H33   1.110984 S    
C64   H31   1.105144 S    
C63   H29   1.110737 S    
C11   H7    1.081842 S    
C66   H35   1.107928 S    
C16   H3    1.072872 S    
O5    V1    2.030482 S    
C58   H22   1.075176 S    
C46   O30   1.384508 S    
O6    V2    2.030482 S    
O10   C6    1.295488 A    
C12   H8    1.082507 S    
C30   C32   1.548934 S    
O2    V4    2.026677 S    
C45   C47   1.407330 A    
C30   H10   1.108766 S    
V3    O19   2.172532 S    
C44   C50   1.389960 A    
C27   H11   1.110384 S    
C12   C14   1.386008 A    
V4    O20   2.172531 S    
C66   H36   1.101663 S    
C50   C52   1.410771 A    
N1    O22   1.300853 A    
O9    C5    1.295397 A    
O13   V1    2.160640 S    
C40   C42   1.537818 S    
N4    O28   1.301017 A    
O14   V2    2.160639 S    
N5    O34   1.300372 A    
O2    C4    1.291286 A    
N2    O24   1.300684 A    
C12   C20   1.401346 A    
C6    C32   1.501570 S    
C8    C10   1.466985 S    
O4    V2    2.005092 S    
C53   C59   1.414363 A    
C15   C17   1.412239 A    
C51   C53   1.427253 A    
C56   C57   1.409166 A    
C3    C43   1.463299 S    
C32   C34   1.530432 S    
C17   C21   1.428568 A    
C35   C41   1.550800 S    
C36   C42   1.549613 S    
C64   H30   1.110538 S    
C1    C40   1.503967 S    
N3    O26   1.300994 A    
