data_mof_unit_50912.cif
_audit_creation_date              2012-12-10T17:49:35-0500
_audit_creation_method            fapswitch 2.2
_symmetry_space_group_name_H-M    P1
_symmetry_Int_Tables_number       1
_space_group_crystal_system       triclinic
_cell_length_a                    10.498846
_cell_length_b                    10.627641
_cell_length_c                    9.960981
_cell_angle_alpha                 89.524243
_cell_angle_beta                  90.182422
_cell_angle_gamma                 92.036834
_cell_volume                      1110.68085359

loop_
_atom_site_label
_atom_site_type_symbol
_atom_type_description
_atom_site_fract_x
_atom_site_fract_y
_atom_site_fract_z
_atom_type_partial_charge
C1    C     C_R   0.504406 0.260896 0.500561 0.865411
C2    C     C_3   0.960243 0.610198 0.446602 -0.256135
C3    C     C_3   0.039821 0.512623 0.371571 -0.255238
C4    C     C_3   0.123137 0.500855 0.498001 -0.071280
C5    C     C_R   0.705932 0.136517 0.647359 -0.255786
C6    C     C_R   0.797518 0.073570 0.720974 -0.164153
C7    C     C_R   0.798174 0.941875 0.721900 0.290779
C8    C     C_R   0.707310 0.874625 0.644902 -0.276871
C9    C     C_R   0.610665 0.937161 0.573994 0.072651
C10   C     C_R   0.609808 0.068935 0.575417 0.099265
C11   C     C_R   0.514029 0.128745 0.501094 -0.079570
C12   C     C_R   0.257872 0.500279 0.499545 0.919373
C13   C     C_R   0.424898 0.062073 0.423344 -0.193122
C14   C     C_R   0.425717 0.933735 0.422006 -0.208237
C15   C     C_R   0.515572 0.872042 0.498540 -0.079573
C16   C     C_R   0.328115 0.339028 0.140386 -0.132619
C17   C     C_R   0.243305 0.259784 0.070769 -0.225343
C18   C     C_R   0.244022 0.259076 0.931745 -0.157912
C19   C     C_R   0.329492 0.337720 0.861409 -0.084575
C20   C     C_R   0.415333 0.420824 0.928363 0.131013
C21   C     C_R   0.414774 0.421394 0.072641 0.122171
C22   C     C_R   0.585647 0.572232 0.069287 0.254460
C23   C     C_R   0.505066 0.739325 0.499559 0.857188
C24   C     C_R   0.582471 0.573573 0.926657 -0.114308
C25   C     C_R   0.742252 0.500131 0.500450 0.873466
C26   C     C_3   0.037711 0.394060 0.551770 0.408755
C27   C     C_3   0.953369 0.402530 0.426100 -0.234918
C28   C     C_3   0.877091 0.500038 0.501812 -0.086916
C29   C     C_3   0.959378 0.488373 0.629481 -0.206599
C30   C     C_3   0.044629 0.595618 0.571407 0.421344
H1    H     H_    0.911427 0.322257 0.368315 0.148378
H2    H     H_    0.713872 0.773463 0.640858 0.142434
H3    H     H_    0.353752 0.882069 0.364186 0.154178
H4    H     H_    0.324252 0.331761 0.246943 0.204287
H5    H     H_    0.177553 0.197525 0.125237 0.150500
H6    H     H_    0.178756 0.196311 0.877935 0.178524
H7    H     H_    0.326674 0.329810 0.754932 0.224697
H8    H     H_    0.648464 0.634573 0.871062 0.153374
H9    H     H_    0.924084 0.478459 0.734143 0.150412
H10   H     H_    0.924075 0.700022 0.406665 0.146626
H11   H     H_    0.076167 0.522414 0.267302 0.182171
H12   H     H_    0.352569 0.109591 0.366068 0.150621
H13   H     H_    0.712806 0.238179 0.646458 0.169759
H14   H     H_    0.869451 0.128298 0.775017 0.144862
N1    N     N_R   0.498800 0.498800 0.142780 -0.155732
N2    N     N_R   0.498760 0.498720 0.857170 -0.142662
O1    O     O_R   0.500000 0.316780 0.614690 -0.640603
O2    O     O_R   0.499990 0.316750 0.385360 -0.634262
O3    O     O_R   0.313960 0.499980 0.614650 -0.597870
O4    O     O_R   0.313940 0.499960 0.385310 -0.655412
O5    O     O_R   0.500010 0.683250 0.614640 -0.604462
O6    O     O_R   0.500000 0.683220 0.385310 -0.643716
O7    O     O_R   0.686060 0.500040 0.614690 -0.647200
O8    O     O_R   0.686040 0.500020 0.385350 -0.617585
Zn1   Zn    Zn3+2 0.500010 0.500020 0.653130 0.945395
Zn2   Zn    Zn3+2 0.499990 0.499980 0.346870 0.923043
N3    N     N_2   0.893224 0.876454 0.794374 -0.282062
H15   H     H_    0.892829 0.780818 0.777309 0.254117
C31   C     C_3   0.905746 0.906218 0.935491 -0.774994
H16   H     H_    0.979423 0.847098 0.981818 0.247462
H17   H     H_    0.813729 0.886722 0.987857 0.251019
H18   H     H_    0.936659 0.006169 0.949346 0.235166
N4    N     N_2   0.680985 0.648922 0.133483 -0.308132
H19   H     H_    0.663497 0.673176 0.230603 0.283890
C32   C     C_3   0.810834 0.612394 0.111603 -0.809201
H20   H     H_    0.877656 0.680218 0.161964 0.236355
H21   H     H_    0.834119 0.613424 0.002958 0.239321
H22   H     H_    0.825054 0.516719 0.153581 0.266727
O9    O     O_3   0.085187 0.283033 0.605222 -0.801303
H23   H     H_    0.012087 0.221575 0.605527 0.329740
O10   O     O_3   0.097073 0.695195 0.646759 -0.757146
H24   H     H_    0.144371 0.750116 0.581656 0.326562

loop_
_geom_bond_atom_site_label_1
_geom_bond_atom_site_label_2
_ccdc_geom_bond_type
N4    C32   S    
C16   C21   A    
C19   C20   A    
C1    C11   S    
C14   H3    S    
C30   O10   S    
N3    H15   S    
C7    C8    A    
C25   C28   S    
C26   C27   S    
C28   C29   S    
C25   O7    A    
C5    C6    A    
N3    C31   S    
C18   C19   A    
C12   O4    A    
C19   H7    S    
C16   H4    S    
C22   N4    S    
N1    Zn2   S    
C8    C9    A    
C32   H21   S    
N2    Zn1   S    
C24   H8    S    
C4    C12   S    
C9    C10   A    
C15   C23   S    
C5    H13   S    
C31   H16   S    
C6    H14   S    
C13   C14   A    
C13   H12   S    
C12   O3    A    
C21   N1    A    
O7    Zn1   S    
O8    Zn2   S    
C31   H17   S    
C27   H1    S    
C8    H2    S    
C25   O8    A    
C1    O1    A    
O3    Zn1   S    
O4    Zn2   S    
C29   C30   S    
C23   O5    A    
C32   H22   S    
C29   H9    S    
C17   C18   A    
C22   C24   A    
C3    C4    S    
O1    Zn1   S    
O2    Zn2   S    
C3    H11   S    
C31   H18   S    
C4    C26   S    
C1    O2    A    
C6    C7    A    
C2    C30   S    
C24   N2    A    
C3    C27   S    
C2    C3    S    
C9    C15   A    
O10   H24   S    
C11   C13   A    
C23   O6    A    
C16   C17   A    
O5    Zn1   S    
O9    H23   S    
C20   N2    A    
C10   C11   A    
N4    H19   S    
C2    H10   S    
C5    C10   A    
C22   N1    A    
C20   C21   A    
C26   C29   S    
C32   H20   S    
C27   C28   S    
C26   O9    S    
C14   C15   A    
C2    C28   S    
C17   H5    S    
C18   H6    S    
C7    N3    S    
C4    C30   S    
O6    Zn2   S    
