data_mof_unit_55864.cif
_audit_creation_date              2012-12-10T20:34:52-0500
_audit_creation_method            fapswitch 2.2
_symmetry_space_group_name_H-M    P1
_symmetry_Int_Tables_number       1
_space_group_crystal_system       triclinic
_cell_length_a                    10.907098
_cell_length_b                    10.69899
_cell_length_c                    9.938155
_cell_angle_alpha                 91.015723
_cell_angle_beta                  88.202585
_cell_angle_gamma                 90.334137
_cell_volume                      1158.96341926

loop_
_atom_site_label
_atom_site_type_symbol
_atom_type_description
_atom_site_fract_x
_atom_site_fract_y
_atom_site_fract_z
_atom_type_partial_charge
C1    C     C_R   0.506537 0.260050 0.498894 1.034933
C2    C     C_3   0.878869 0.479790 0.494032 -0.341058
C3    C     C_3   0.930943 0.610259 0.451819 -0.562664
C4    C     C_3   0.936366 0.377986 0.385945 0.555434
C5    C     C_R   0.559254 0.065227 0.610516 0.044717
C6    C     C_R   0.529811 0.128442 0.495189 -0.009511
C7    C     C_R   0.535049 0.061626 0.372321 -0.061868
C8    C     C_R   0.536381 0.932115 0.372861 -0.192727
C9    C     C_R   0.539963 0.869959 0.496463 -0.131071
C10   C     C_R   0.574258 0.939121 0.609597 0.112606
C11   C     C_3   0.558091 0.934899 0.759597 0.696034
C12   C     C_R   0.257778 0.493410 0.502492 1.066424
C13   C     C_3   0.528583 0.074375 0.757257 -0.446064
C14   C     C_R   0.451492 0.401023 0.070587 0.084832
C15   C     C_R   0.556619 0.592002 0.071582 -0.045925
C16   C     C_R   0.556651 0.591412 0.928366 -0.008121
C17   C     C_R   0.448852 0.403893 0.928166 0.071910
C18   C     C_3   0.316697 0.373850 0.927939 0.135536
C19   C     C_3   0.320580 0.359017 0.078506 0.258483
C20   C     C_R   0.510425 0.739406 0.500233 0.933176
C21   C     C_R   0.741994 0.490407 0.497473 0.996846
C22   C     C_3   0.065126 0.478176 0.656184 0.707836
C23   C     C_3   0.922390 0.464708 0.646730 0.115580
C24   C     C_3   0.072936 0.607952 0.445384 0.136389
C25   C     C_3   0.076512 0.364532 0.421778 0.003956
C26   C     C_3   0.120690 0.484467 0.508059 -0.212943
H1    H     H_    0.107544 0.611833 0.340754 0.227302
H2    H     H_    0.896404 0.640631 0.353918 0.268023
H3    H     H_    0.529921 0.107572 0.276953 0.222343
H4    H     H_    0.525558 0.882282 0.278095 0.185836
H5    H     H_    0.429663 0.092444 0.775873 0.256928
H6    H     H_    0.591081 0.135743 0.814703 0.273089
H7    H     H_    0.601226 0.667615 0.124960 0.193334
H8    H     H_    0.600589 0.665444 0.874513 0.238729
H9    H     H_    0.262278 0.455533 0.897921 0.135763
H10   H     H_    0.260183 0.424618 0.136473 0.095361
H11   H     H_    0.885513 0.550665 0.696795 0.156283
H12   H     H_    0.898501 0.683956 0.524876 0.234298
H13   H     H_    0.130619 0.366272 0.325682 0.180762
N1    N     N_R   0.499150 0.499140 0.142800 -0.146310
N2    N     N_R   0.499150 0.499180 0.857150 -0.144622
O1    O     O_R   0.500020 0.316790 0.614690 -0.635535
O2    O     O_R   0.500000 0.316760 0.385350 -0.566399
O3    O     O_R   0.314800 0.500000 0.614670 -0.558635
O4    O     O_R   0.314790 0.499960 0.385330 -0.666780
O5    O     O_R   0.500000 0.683240 0.614650 -0.566806
O6    O     O_R   0.499980 0.683210 0.385310 -0.653119
O7    O     O_R   0.685210 0.500040 0.614670 -0.583878
O8    O     O_R   0.685200 0.500000 0.385330 -0.551141
Zn1   Zn    Zn3+2 0.500010 0.500020 0.653130 1.070477
Zn2   Zn    Zn3+2 0.499990 0.499980 0.346870 1.041171
O9    O     O_3   0.100223 0.585585 0.732680 -0.727931
H14   H     H_    0.042077 0.655316 0.723166 0.378846
S1    S     S_3+6 0.933087 0.426358 0.205692 0.032168
O10   O     O_2   0.942721 0.312241 0.115557 -0.190188
O11   O     O_2   0.815741 0.490961 0.175827 -0.265774
O12   O     O_3   0.048052 0.520058 0.153199 -0.651748
H15   H     H_    0.037500 0.528762 0.055143 0.411586
O13   O     O_3   0.458887 0.860414 0.803077 -0.748461
H16   H     H_    0.447263 0.877325 0.900992 0.347861
S2    S     S_3+6 0.701252 0.901747 0.837148 0.024258
O14   O     O_2   0.679156 0.878505 0.984652 -0.341816
O15   O     O_2   0.759920 0.789130 0.769948 -0.344834
O16   O     O_3   0.797794 0.023561 0.819152 -0.451020
H17   H     H_    0.874161 0.997248 0.861741 0.426534
O17   O     O_3   0.112782 0.375341 0.720096 -0.647954
H18   H     H_    0.093412 0.386824 0.817661 0.391203
O18   O     O_3   0.292679 0.262974 0.856745 -0.617346
H19   H     H_    0.316991 0.279692 0.762350 0.400379
S3    S     S_3+6 0.305712 0.199940 0.127958 0.099907
O19   O     O_2   0.323018 0.194712 0.275684 -0.305891
O20   O     O_2   0.179993 0.152167 0.095568 -0.131802
O21   O     O_3   0.412522 0.110945 0.047954 -0.564651
H20   H     H_    0.399812 0.026293 0.084798 0.363803
S4    S     S_3+6 0.846788 0.353754 0.764707 0.120835
O22   O     O_2   0.733642 0.294098 0.710715 -0.262627
O23   O     O_2   0.926602 0.251103 0.812800 -0.141447
O24   O     O_3   0.802405 0.439189 0.900666 -0.508584
H21   H     H_    0.741489 0.386107 0.949200 0.395685
O25   O     O_3   0.121169 0.715180 0.509175 -0.716384
H22   H     H_    0.099556 0.788028 0.454195 0.365615
S5    S     S_3+6 0.122227 0.212777 0.488993 0.145959
O26   O     O_2   0.248785 0.223984 0.541827 -0.343117
O27   O     O_2   0.038540 0.169226 0.600739 -0.125557
O28   O     O_3   0.125776 0.098215 0.371281 -0.408296
H23   H     H_    0.160404 0.025006 0.416172 0.376171
S6    S     S_3+6 0.848293 0.231356 0.378247 0.124619
O29   O     O_2   0.914016 0.133539 0.293821 -0.181324
O30   O     O_2   0.817532 0.175614 0.511836 -0.208322
O31   O     O_3   0.717819 0.260462 0.299945 -0.565173
H24   H     H_    0.726572 0.221563 0.208985 0.395604

loop_
_geom_bond_atom_site_label_1
_geom_bond_atom_site_label_2
_ccdc_geom_bond_type
C8    C9    A    
S6    O29   D    
C7    H3    S    
O21   H20   S    
C13   H6    S    
C24   H1    S    
C21   O8    A    
C4    C25   S    
O31   H24   S    
C7    C8    A    
C4    S6    S    
O28   H23   S    
C3    H2    S    
C24   C26   S    
C19   H10   S    
C5    C6    A    
O4    Zn2   S    
C18   O18   S    
C15   C16   A    
C18   C19   S    
S2    O15   D    
C22   O17   S    
C16   H8    S    
C24   O25   S    
C3    H12   S    
O18   H19   S    
O8    Zn2   S    
S3    O19   D    
C9    C10   A    
C5    C13   S    
C21   O7    A    
O7    Zn1   S    
O17   H18   S    
O13   H16   S    
C14   C17   A    
C3    C24   S    
C2    C21   S    
C11   O13   S    
C1    O2    A    
S1    O11   D    
C1    C6    S    
O24   H21   S    
C12   O4    A    
O6    Zn2   S    
C25   C26   S    
C23   H11   S    
C12   C26   S    
S2    O16   S    
C2    C4    S    
S4    O22   D    
C9    C20   S    
S3    O21   S    
C17   C18   S    
S4    O23   D    
O1    Zn1   S    
S5    O27   D    
S6    O30   D    
C25   S5    S    
S5    O28   S    
N2    Zn1   S    
O9    H14   S    
C22   O9    S    
C18   H9    S    
O3    Zn1   S    
S1    O10   D    
C4    S1    S    
C14   C19   S    
C13   H5    S    
C23   S4    S    
O25   H22   S    
C11   S2    S    
C6    C7    A    
N1    Zn2   S    
O5    Zn1   S    
C8    H4    S    
O16   H17   S    
C2    C3    S    
C5    C10   A    
C12   O3    A    
C25   H13   S    
C11   C13   S    
O2    Zn2   S    
O12   H15   S    
S2    O14   D    
S4    O24   S    
C17   N2    A    
C15   N1    A    
C20   O6    A    
C10   C11   S    
C14   N1    A    
C1    O1    A    
S5    O26   D    
C22   C26   S    
S6    O31   S    
C2    C23   S    
C22   C23   S    
C19   S3    S    
S3    O20   D    
C16   N2    A    
C15   H7    S    
C20   O5    A    
S1    O12   S    
