data_mof_unit_34912.cif
_audit_creation_date              2013-03-05T16:48:11-0500
_audit_creation_method            fapswitch 2.2
_symmetry_space_group_name_H-M    P1
_symmetry_Int_Tables_number       1
_space_group_crystal_system       triclinic
_cell_length_a                    10.843642
_cell_length_b                    12.34589
_cell_length_c                    13.159048
_cell_angle_alpha                 116.714883
_cell_angle_beta                  76.49987
_cell_angle_gamma                 101.391645
_cell_volume                      1521.4164504

loop_
_atom_site_label
_atom_site_type_symbol
_atom_site_description
_atom_site_fract_x
_atom_site_fract_y
_atom_site_fract_z
_atom_type_partial_charge
O1    O     O_R   0.536940 0.972510 0.318130 -0.556171
O2    O     O_R   0.487330 0.806530 0.359650 -0.604905
C1    C     C_R   0.513524 0.854954 0.286235 0.777015
O3    O     O_R   0.705160 0.082990 0.479250 -0.527764
O4    O     O_R   0.655550 0.917010 0.520760 -0.615543
C2    C     C_R   0.737359 0.000905 0.502383 0.843368
Cu1   Cu    Cu3+1 0.529370 0.098270 0.475420 1.013084
Cu2   Cu    Cu3+1 0.470630 0.901730 0.524580 0.974686
O5    O     O_R   0.512670 0.193470 0.640350 -0.556977
O6    O     O_R   0.463060 0.027490 0.681870 -0.552455
O7    O     O_R   0.344450 0.082990 0.479240 -0.590974
O8    O     O_R   0.294840 0.917010 0.520750 -0.587773
C3    C     C_R   0.480035 0.145470 0.714213 0.910373
C4    C     C_R   0.263170 0.999045 0.498004 0.789174
H1    H     H_    0.562121 0.706861 0.777285 0.173666
C5    C     C_R   0.645563 0.882225 0.783373 -0.107861
H2    H     H_    0.580965 0.931711 0.860425 0.198063
C6    C     C_R   0.739493 0.945133 0.731107 0.287981
C7    C     C_R   0.820335 0.880317 0.628350 -0.018759
C8    C     C_R   0.816289 0.752613 0.587917 0.260098
C9    C     C_R   0.724602 0.691385 0.643540 -0.130441
H3    H     H_    0.720252 0.593529 0.612317 0.185053
C10   C     C_R   0.636088 0.755406 0.737696 -0.268834
C11   C     C_R   0.039189 0.948738 0.562124 -0.092899
H4    H     H_    0.068673 0.910341 0.611268 0.200258
C12   C     C_R   0.130075 0.998602 0.496146 -0.095629
C13   C     C_R   0.092408 0.048699 0.432031 -0.001726
C14   C     C_R   0.963379 0.053554 0.441036 -0.167619
H5    H     H_    0.935082 0.093369 0.392979 0.206485
C15   C     C_R   0.871368 0.000817 0.504766 -0.066486
C16   C     C_R   0.910108 0.945039 0.564384 0.063386
C17   C     C_R   0.202865 0.211782 0.367949 -0.145919
H6    H     H_    0.146414 0.277850 0.440276 0.165943
C18   C     C_R   0.297287 0.250527 0.294954 -0.133882
H7    H     H_    0.312229 0.345722 0.310651 0.161595
C19   C     C_R   0.373548 0.166844 0.203133 0.327991
C20   C     C_R   0.353685 0.043932 0.182847 -0.075560
H8    H     H_    0.412291 0.978878 0.111785 0.158731
C21   C     C_R   0.259458 0.004903 0.255462 -0.133863
H9    H     H_    0.246646 0.909771 0.239986 0.125989
C22   C     C_R   0.184723 0.088932 0.349701 0.122765
C23   C     C_R   0.273129 0.294667 0.002902 0.271815
H10   H     H_    0.202227 0.487806 0.202247 0.203676
C24   C     C_R   0.443358 0.229282 0.836189 -0.281977
C25   C     C_R   0.621551 0.807109 0.086315 -0.162228
C26   C     C_R   0.652801 0.725095 0.972529 -0.125083
C27   C     C_R   0.593492 0.606419 0.933791 -0.118123
C28   C     C_R   0.503034 0.566524 0.009771 0.146369
C29   C     C_R   0.460323 0.654550 0.121574 0.083318
C30   C     C_R   0.450189 0.442646 0.976004 -0.058005
C31   C     C_R   0.335194 0.414592 0.041782 -0.048238
C32   C     C_R   0.286976 0.506274 0.147573 -0.094074
C33   C     C_R   0.349880 0.623284 0.187914 -0.195118
C34   C     C_R   0.510987 0.346171 0.880807 0.236557
C35   C     C_R   0.326732 0.202854 0.899694 0.232971
C36   C     C_R   0.527670 0.772683 0.162644 -0.128736
H11   H     H_    0.673147 0.896811 0.114862 0.215585
H12   H     H_    0.616950 0.547832 0.843196 0.170928
H13   H     H_    0.725669 0.753047 0.914718 0.193792
H14   H     H_    0.307306 0.690210 0.269478 0.172490
C37   C     C_R   0.699006 0.346593 0.323607 -0.192172
H15   H     H_    0.734750 0.540503 0.282962 0.204981
H16   H     H_    0.777400 0.346422 0.255083 0.224268
N1    N     N_R   0.573890 0.246290 0.438210 -0.205601
C38   C     C_R   0.323743 0.758571 0.643936 0.080338
C39   C     C_R   0.283132 0.661605 0.675006 0.234774
C40   C     C_R   0.347871 0.557715 0.619854 -0.265343
C41   C     C_R   0.453279 0.549334 0.531698 -0.043870
C42   C     C_R   0.490585 0.651315 0.502602 0.264108
C43   C     C_R   0.524049 0.444891 0.472071 -0.044019
C44   C     C_R   0.625841 0.444035 0.382194 0.092812
C45   C     C_R   0.656701 0.541513 0.352002 -0.162170
C46   C     C_R   0.593191 0.644343 0.413219 -0.151149
C47   C     C_R   0.500262 0.341362 0.497698 -0.016298
C48   C     C_R   0.672249 0.248544 0.352265 0.446491
N2    N     N_R   0.426890 0.754320 0.561170 -0.241856
H17   H     H_    0.423958 0.334540 0.564305 0.140799
H18   H     H_    0.271209 0.837233 0.684535 0.206162
H19   H     H_    0.312980 0.484829 0.646462 0.171727
H20   H     H_    0.629765 0.717476 0.388887 0.207627
Br1   Br    Br    0.506138 0.220037 0.106343 -0.480904
N3    N     N_R   0.261543 0.082376 0.859695 0.151000
O9    O     O_R   0.294631 0.002098 0.883982 -0.322588
O10   O     O_R   0.154535 0.061116 0.822059 -0.332975
N4    N     N_R   0.152542 0.266417 0.064601 0.146512
O11   O     O_R   0.054989 0.322285 0.080528 -0.303149
O12   O     O_R   0.135779 0.175241 0.092405 -0.265785
N5    N     N_R   0.647469 0.360471 0.846415 0.145432
O13   O     O_R   0.720767 0.408101 0.924846 -0.260016
O14   O     O_R   0.699085 0.334625 0.739517 -0.333415
Br2   Br    Br    0.778684 0.120203 0.264243 -0.452098
Br3   Br    Br    0.137866 0.670820 0.792175 -0.394107
Br4   Br    Br    0.761354 0.118906 0.807098 -0.329310
Br5   Br    Br    0.933956 0.657929 0.457755 -0.549791

loop_
_geom_bond_atom_site_label_1
_geom_bond_atom_site_label_2
_geom_bond_distance
_ccdc_geom_bond_type
C26   H13   1.081585 S    
C7    C8    1.414250 A    
C7    C16   1.486439 S    
Cu1   Cu2   2.705602 S    
C21   C22   1.406067 A    
N4    O11   1.301312 A    
C37   C48   1.382873 A    
Cu1   O7    1.967486 S    
C25   H11   1.076998 S    
C12   C13   1.411042 A    
C30   C34   1.416201 A    
C38   N2    1.357572 A    
C19   C20   1.397804 A    
C11   C12   1.394778 A    
C18   H7    1.082733 S    
C15   C16   1.421281 A    
O7    C4    1.295955 A    
H10   C32   1.081740 S    
Cu2   N2    2.027093 S    
C42   N2    1.380374 A    
C6    C7    1.409973 A    
C37   H16   1.084819 S    
O5    C3    1.302137 A    
N1    C48   1.367771 A    
C25   C36   1.400474 A    
C5    H2    1.082808 S    
C47   H17   1.077113 S    
C43   C47   1.424998 A    
C17   C22   1.404794 A    
C42   C46   1.401631 A    
C43   C44   1.414609 A    
C48   Br2   1.905879 S    
C23   C31   1.411701 A    
N5    O13   1.302076 A    
C37   C44   1.388739 A    
H1    C10   1.081498 S    
C39   C40   1.394810 A    
C9    H3    1.082058 S    
O3    Cu1   1.966519 S    
C33   H14   1.081580 S    
N4    O12   1.300914 A    
C31   C32   1.403476 A    
C40   H19   1.078150 S    
C11   H4    1.084981 S    
O3    C2    1.307032 A    
C21   H9    1.083477 S    
C41   C42   1.433652 A    
C39   Br3   1.910650 S    
C25   C26   1.384747 A    
C40   C41   1.408053 A    
O1    C1    1.305181 A    
C17   C18   1.400080 A    
C20   H8    1.082709 S    
C23   C35   1.405266 A    
C1    C36   1.469699 S    
C13   C22   1.484446 S    
C27   C28   1.413657 A    
C19   Br1   1.909116 S    
Cu2   O8    1.966518 S    
C30   C31   1.420948 A    
H15   C45   1.084804 S    
C23   N4    1.438549 S    
C4    C12   1.448035 S    
C35   N3    1.429542 S    
Cu2   O6    1.945006 S    
C28   C29   1.415333 A    
C2    C15   1.461009 S    
O8    C4    1.300463 A    
C38   C39   1.393546 A    
C5    C10   1.393691 A    
N3    O10   1.300666 A    
C9    C10   1.394660 A    
C32   C33   1.387171 A    
Cu1   O5    1.931733 S    
C8    Br5   1.922716 S    
C26   C27   1.389059 A    
C14   H5    1.079527 S    
C38   H18   1.078432 S    
O1    Cu1   1.945008 S    
C5    C6    1.397981 A    
O2    Cu2   1.931735 S    
N5    O14   1.301232 A    
C45   C46   1.379045 A    
O6    C3    1.307640 A    
O4    Cu2   1.967487 S    
C29   C36   1.416812 A    
C17   H6    1.083096 S    
C14   C15   1.402249 A    
O2    C1    1.302108 A    
C11   C16   1.385170 A    
C44   C45   1.388114 A    
C20   C21   1.397443 A    
C27   H12   1.079306 S    
C34   N5    1.442983 S    
C24   C35   1.411685 A    
O4    C2    1.296268 A    
C29   C33   1.406259 A    
C28   C30   1.423558 A    
C46   H20   1.064989 S    
C18   C19   1.399915 A    
Cu1   N1    2.039116 S    
C24   C34   1.409337 A    
C8    C9    1.398724 A    
C41   C43   1.437821 A    
N3    O9    1.300751 A    
C13   C14   1.387289 A    
C6    Br4   1.907806 S    
N1    C47   1.371200 A    
C3    C24   1.475265 S    
