data_mof_unit_43630.cif
_audit_creation_date              2012-12-10T16:57:49-0500
_audit_creation_method            fapswitch 2.2
_symmetry_space_group_name_H-M    P1
_symmetry_Int_Tables_number       1
_space_group_crystal_system       triclinic
_cell_length_a                    7.733526
_cell_length_b                    8.58088
_cell_length_c                    19.023196
_cell_angle_alpha                 90.725201
_cell_angle_beta                  86.313029
_cell_angle_gamma                 93.554638
_cell_volume                      1257.30392238

loop_
_atom_site_label
_atom_site_type_symbol
_atom_type_description
_atom_site_fract_x
_atom_site_fract_y
_atom_site_fract_z
_atom_type_partial_charge
C1    C     C_R   0.545844 0.794857 0.498158 0.974715
C2    C     C_R   0.595909 0.346629 0.183326 -0.164508
C3    C     C_R   0.468875 0.385582 0.854019 0.042513
C4    C     C_R   0.456006 0.393564 0.147500 0.039388
C5    C     C_R   0.628147 0.374314 0.815439 -0.156784
C6    C     C_R   0.330686 0.482804 0.182471 -0.157365
C7    C     C_R   0.647334 0.414154 0.744208 0.183771
C8    C     C_R   0.343314 0.525512 0.253072 0.177101
C9    C     C_R   0.501516 0.466097 0.711141 -0.054937
C10   C     C_R   0.484049 0.474821 0.289317 -0.050738
C11   C     C_R   0.449378 0.363447 0.072024 0.299835
C12   C     C_R   0.454151 0.205142 0.501801 0.971965
C13   C     C_R   0.455841 0.359471 0.930009 0.300995
C14   C     C_3   0.823145 0.398600 0.706216 -0.871680
C15   C     C_3   0.208295 0.627228 0.287037 -0.869558
C16   C     C_2   0.570116 0.958189 0.497110 -0.387134
C17   C     C_2   0.429874 0.041816 0.502792 -0.383001
C18   C     C_R   0.502306 0.494912 0.635048 0.867904
C19   C     C_R   0.496472 0.498987 0.365100 0.867201
C20   C     C_R   0.343089 0.477559 0.750852 -0.238507
C21   C     C_R   0.609799 0.386958 0.253509 -0.239446
C22   C     C_R   0.326619 0.436959 0.821128 -0.168563
H1    H     H_    0.229496 0.516786 0.727491 0.172213
H2    H     H_    0.986152 0.617387 0.552494 0.189544
H3    H     H_    0.873750 0.513176 0.684479 0.241775
H4    H     H_    0.920098 0.360071 0.741904 0.220875
H5    H     H_    0.813573 0.309883 0.663433 0.258435
H6    H     H_    0.121281 0.558469 0.325385 0.255497
H7    H     H_    0.272415 0.728742 0.313898 0.241816
H8    H     H_    0.125454 0.673886 0.247612 0.229633
H9    H     H_    0.717726 0.345933 0.280216 0.167946
H10   H     H_    0.202371 0.448146 0.849823 0.159330
H11   H     H_    0.695018 0.278772 0.157148 0.160629
H12   H     H_    0.738968 0.336118 0.841146 0.151653
H13   H     H_    0.224324 0.522310 0.154322 0.154633
H14   H     H_    0.702605 0.009118 0.491711 0.179789
H15   H     H_    0.297384 0.990890 0.508186 0.180080
H16   H     H_    0.013853 0.382647 0.447487 0.188752
N1    N     N_R   0.596902 0.322082 0.963542 -0.176560
N2    N     N_R   0.305905 0.393916 0.038570 -0.176999
N3    N     N_R   0.593712 0.323939 0.033369 -0.170303
N4    N     N_R   0.309062 0.391867 0.968795 -0.173269
N5    N     N_2   0.950330 0.457950 0.481240 -0.177131
N6    N     N_2   0.049670 0.542050 0.518760 -0.174679
O1    O     O_R   0.389250 0.738570 0.504600 -0.610158
O2    O     O_R   0.610750 0.261430 0.495400 -0.613669
O3    O     O_R   0.678400 0.711620 0.492580 -0.626752
O4    O     O_R   0.321600 0.288380 0.507420 -0.627864
O5    O     O_R   0.355380 0.513500 0.607880 -0.619704
O6    O     O_R   0.644620 0.486500 0.392120 -0.620621
O7    O     O_R   0.644530 0.486550 0.595850 -0.620262
O8    O     O_R   0.355470 0.513450 0.404150 -0.618680
Zn1   Zn    Zn3+2 0.306930 0.517990 0.508030 0.937089
Zn2   Zn    Zn3+2 0.693070 0.482010 0.491970 0.933796

loop_
_geom_bond_atom_site_label_1
_geom_bond_atom_site_label_2
_ccdc_geom_bond_type
C12   C17   S    
C2    C4    A    
N5    N6    D    
C15   H7    S    
C14   H5    S    
N5    Zn2   S    
C3    C13   S    
C20   H1    S    
C10   C19   S    
C12   O4    A    
O7    Zn2   S    
C5    H12   S    
O2    Zn2   S    
C2    C21   A    
N2    N4    A    
O1    Zn1   S    
H16   N5    S    
N1    N3    A    
C1    C16   S    
C17   H15   S    
O8    Zn1   S    
C14   H4    S    
C4    C11   S    
C21   H9    S    
C19   O6    A    
C1    O1    A    
C15   H6    S    
O6    Zn2   S    
C22   H10   S    
O3    Zn2   S    
O5    Zn1   S    
C19   O8    A    
C2    H11   S    
C4    C6    A    
C13   N4    A    
C20   C22   A    
C18   O7    A    
C11   N3    A    
C8    C15   S    
C5    C7    A    
C14   H3    S    
O4    Zn1   S    
H2    N6    S    
C13   N1    A    
C11   N2    A    
C9    C18   S    
C6    H13   S    
C15   H8    S    
C8    C10   A    
C7    C9    A    
C1    O3    A    
C3    C22   A    
C6    C8    A    
C9    C20   A    
C10   C21   A    
N6    Zn1   S    
C7    C14   S    
C16   H14   S    
C18   O5    A    
C16   C17   D    
C3    C5    A    
C12   O2    A    
