data_mof_unit_43079.cif
_audit_creation_date              2012-10-26T19:48:07-0400
_audit_creation_method            fapswitch 2.2
_symmetry_space_group_name_H-M    P1
_symmetry_Int_Tables_number       1
_space_group_crystal_system       triclinic
_cell_length_a                    11.507053
_cell_length_b                    10.383124
_cell_length_c                    11.107516
_cell_angle_alpha                 91.299425
_cell_angle_beta                  86.186037
_cell_angle_gamma                 89.74269
_cell_volume                      1323.8130079

loop_
_atom_site_label
_atom_site_type_symbol
_atom_type_description
_atom_site_fract_x
_atom_site_fract_y
_atom_site_fract_z
_atom_type_partial_charge
C1    C     C_R   0.262229 0.500519 0.496340 0.507697
C2    C     C_3   0.938787 0.470896 0.363926 0.038582
C3    C     C_3   0.624947 0.082648 0.493104 0.010298
C4    C     C_3   0.622841 0.921031 0.515959 0.002867
C5    C     C_3   0.429901 0.085316 0.616180 0.191584
C6    C     C_3   0.414126 0.922419 0.604142 0.193249
C7    C     C_3   0.441184 0.076522 0.389434 0.193047
C8    C     C_3   0.459343 0.914091 0.382685 0.185274
C9    C     C_R   0.490878 0.499716 0.263549 0.564917
C10   C     C_R   0.737589 0.500262 0.504252 0.618093
C11   C     C_R   0.499255 0.501220 0.738847 0.590620
C12   C     C_3   0.476648 0.502103 0.127332 0.022592
C13   C     C_3   0.417340 0.599712 0.047183 0.093419
C14   C     C_3   0.437617 0.393932 0.043053 0.071729
C15   C     C_3   0.378926 0.490386 0.961774 0.017356
C16   C     C_3   0.494783 0.503753 0.878927 0.034332
C17   C     C_3   0.530749 0.613016 0.967453 0.098177
C18   C     C_3   0.551163 0.405213 0.961649 0.130868
C19   C     C_3   0.590055 0.514273 0.045615 -0.057766
C20   C     C_2   0.253752 0.477466 0.929376 0.591339
C21   C     C_2   0.875768 0.545894 0.267766 0.561099
C22   C     C_2   0.922237 0.333685 0.316091 0.582242
C23   C     C_3   0.066949 0.631630 0.557994 0.161167
C24   C     C_2   0.712184 0.142816 0.576049 0.649190
C25   C     C_2   0.664300 0.881576 0.638486 0.641235
C26   C     C_2   0.691639 0.126408 0.373077 0.669874
C27   C     C_2   0.725186 0.859410 0.436031 0.628190
C28   C     C_2   0.478689 0.124403 0.738225 0.677969
C29   C     C_2   0.414153 0.852667 0.726895 0.650596
C30   C     C_2   0.463647 0.111090 0.251679 0.625013
C31   C     C_2   0.537524 0.873501 0.264020 0.666856
C32   C     C_2   0.881466 0.717804 0.654771 0.662306
C33   C     C_2   0.876727 0.431361 0.726504 0.599372
C34   C     C_3   0.062373 0.385698 0.573185 0.142181
C35   C     C_3   0.930489 0.634381 0.547568 -0.025555
C36   C     C_3   0.925061 0.405444 0.595809 -0.021638
C37   C     C_3   0.079875 0.497402 0.359103 0.176059
C38   C     C_3   0.121979 0.502752 0.494749 0.127119
C39   C     C_3   0.877921 0.501399 0.502943 -0.146273
Cu1   Cu    Cu3+1 0.499860 0.642410 0.500060 1.113923
Cu2   Cu    Cu3+1 0.499860 0.357590 0.500060 1.105844
H1    H     H_    0.679770 0.524448 0.074888 0.179835
H2    H     H_    0.896449 0.873611 0.382106 0.348434
H3    H     H_    0.421259 0.159897 0.906526 0.346363
H4    H     H_    0.332345 0.729818 0.841750 0.356826
H5    H     H_    0.311511 0.210017 0.369974 0.264050
H6    H     H_    0.260172 0.064546 0.349760 0.248062
H7    H     H_    0.315198 0.883797 0.275263 0.256128
H8    H     H_    0.352156 0.758039 0.351495 0.297652
H9    H     H_    0.572533 0.145024 0.109704 0.342787
H10   H     H_    0.671979 0.904676 0.140585 0.360888
H11   H     H_    0.270933 0.120983 0.717639 0.226237
H12   H     H_    0.912735 0.692098 0.469884 0.135219
H13   H     H_    0.246864 0.123692 0.586348 0.212039
H14   H     H_    0.234124 0.918742 0.655030 0.212053
H15   H     H_    0.254616 0.947066 0.515708 0.254020
H16   H     H_    0.355426 0.788165 0.052576 0.292771
H17   H     H_    0.309890 0.694613 0.172736 0.253289
H18   H     H_    0.311892 0.250433 0.042376 0.296124
H19   H     H_    0.333116 0.315748 0.175052 0.246993
H20   H     H_    0.549414 0.809184 0.977715 0.311296
H21   H     H_    0.628243 0.731297 0.863057 0.319818
H22   H     H_    0.706811 0.312042 0.975670 0.228003
H23   H     H_    0.884217 0.313854 0.578762 0.200911
H24   H     H_    0.599486 0.217013 0.938041 0.266945
H25   H     H_    0.182661 0.753104 0.452517 0.320792
H26   H     H_    0.089373 0.835353 0.553923 0.287384
H27   H     H_    0.049644 0.185421 0.563003 0.268785
H28   H     H_    0.162856 0.248549 0.484400 0.265375
H29   H     H_    0.184217 0.609989 0.691887 0.299201
H30   H     H_    0.090801 0.728274 0.724313 0.282907
H31   H     H_    0.086021 0.289408 0.730637 0.256833
H32   H     H_    0.205869 0.363950 0.679083 0.292213
H33   H     H_    0.827329 0.728125 0.830815 0.327299
H34   H     H_    0.117801 0.357318 0.924975 0.377404
H35   H     H_    0.901003 0.471217 0.902213 0.356147
H36   H     H_    0.132001 0.610553 0.208422 0.305140
H37   H     H_    0.042964 0.689210 0.309756 0.261408
H38   H     H_    0.132802 0.303779 0.306684 0.259868
H39   H     H_    0.134857 0.405344 0.195244 0.281768
H40   H     H_    0.882409 0.625282 0.102579 0.349100
H41   H     H_    0.928618 0.211170 0.170736 0.354880
H42   H     H_    0.738465 0.223217 0.732583 0.373192
H43   H     H_    0.738665 0.917416 0.797000 0.350194
H44   H     H_    0.725015 0.269163 0.254215 0.366610
N1    N     N_3   0.500250 0.143650 0.502780 -0.303825
N2    N     N_3   0.635702 0.306129 0.921984 -0.524730
N3    N     N_3   0.104412 0.752435 0.501094 -0.646465
N4    N     N_3   0.077253 0.262206 0.508911 -0.612557
N5    N     N_3   0.097365 0.635589 0.685838 -0.483685
N6    N     N_3   0.115973 0.373505 0.688907 -0.534484
N7    N     N_3   0.109830 0.620932 0.300779 -0.619372
N8    N     N_3   0.149942 0.399004 0.286747 -0.630199
N9    N     N_3   0.500250 0.856350 0.502780 -0.315748
N10   N     N_3   0.318289 0.116161 0.400150 -0.643809
N11   N     N_3   0.346746 0.856512 0.356744 -0.633400
N12   N     N_3   0.313638 0.150186 0.636600 -0.545377
N13   N     N_3   0.291557 0.894962 0.580348 -0.571382
N14   N     N_3   0.328620 0.697039 0.080343 -0.582865
N15   N     N_3   0.376784 0.284544 0.094508 -0.559566
N16   N     N_3   0.599513 0.728395 0.952254 -0.599165
O1    O     O_R   0.317570 0.620260 0.500070 -0.519085
O2    O     O_R   0.205795 0.355956 0.913381 -0.702564
O3    O     O_2   0.769670 0.550736 0.272853 -0.492771
O4    O     O_R   0.935220 0.583967 0.160445 -0.678780
O5    O     O_2   0.905153 0.245163 0.383548 -0.450250
O6    O     O_R   0.936030 0.306272 0.191408 -0.703894
O7    O     O_2   0.814406 0.108141 0.564850 -0.418631
O8    O     O_R   0.682673 0.232197 0.666426 -0.586787
O9    O     O_2   0.646981 0.772687 0.666795 -0.459260
O10   O     O_R   0.732698 0.954279 0.713946 -0.586183
O11   O     O_2   0.772209 0.065498 0.322512 -0.430790
O12   O     O_R   0.317570 0.379740 0.500070 -0.541614
O13   O     O_R   0.679514 0.250506 0.333110 -0.578563
O14   O     O_2   0.711885 0.779711 0.356595 -0.433686
O15   O     O_R   0.839470 0.898223 0.452681 -0.597881
O16   O     O_2   0.566993 0.079920 0.771663 -0.501757
O17   O     O_R   0.412115 0.197181 0.824711 -0.650330
O18   O     O_2   0.478483 0.880448 0.804581 -0.549035
O19   O     O_R   0.329128 0.760294 0.756451 -0.679224
O20   O     O_2   0.396743 0.062427 0.182028 -0.551693
O21   O     O_R   0.555793 0.174831 0.196002 -0.633822
O22   O     O_2   0.500587 0.799043 0.191176 -0.524705
O23   O     O_R   0.499850 0.620240 0.316900 -0.466913
O24   O     O_R   0.636419 0.938279 0.221426 -0.666288
O25   O     O_2   0.912710 0.829859 0.659350 -0.475634
O26   O     O_R   0.822070 0.670089 0.756812 -0.625939
O27   O     O_2   0.771427 0.439208 0.747305 -0.471958
O28   O     O_R   0.947230 0.454959 0.822306 -0.627002
O29   O     O_R   0.499850 0.379760 0.316900 -0.446583
O30   O     O_R   0.682190 0.620260 0.500030 -0.431254
O31   O     O_R   0.682190 0.379740 0.500030 -0.429168
O32   O     O_R   0.499910 0.620280 0.683200 -0.446485
O33   O     O_R   0.499910 0.379720 0.683200 -0.408003
O34   O     O_2   0.191389 0.572678 0.926605 -0.465122

loop_
_geom_bond_atom_site_label_1
_geom_bond_atom_site_label_2
_ccdc_geom_bond_type
H36   N7    S    
C35   H12   S    
C14   C18   S    
H20   N16   S    
H9    O21   S    
H15   N13   S    
C33   C36   S    
C4    C25   S    
C7    C8    S    
C20   O2    S    
C9    O29   A    
Cu2   N1    S    
C29   O18   D    
H26   N3    S    
C6    N13   S    
C32   O26   S    
H44   O13   S    
H38   N8    S    
C28   O16   D    
C11   O32   A    
H25   N3    S    
C5    C6    S    
C7    N1    S    
C22   O6    S    
H16   N14   S    
H11   N12   S    
C9    O23   A    
C12   C19   S    
C18   C19   S    
H35   O28   S    
C32   O25   D    
C17   N16   S    
C34   N6    S    
C10   O30   A    
C21   O3    D    
C2    C39   S    
H5    N10   S    
C30   O21   S    
C16   C17   S    
C6    N9    S    
C8    N11   S    
C2    C22   S    
H42   O8    S    
H13   N12   S    
C24   O7    D    
C19   H1    S    
H21   N16   S    
C27   O15   S    
H8    N11   S    
C7    C30   S    
C3    N1    S    
H34   O2    S    
H18   N15   S    
C3    C24   S    
H29   N5    S    
C1    O12   A    
H28   N4    S    
Cu2   O33   S    
H24   N2    S    
C36   C39   S    
C15   C20   S    
Cu1   O23   S    
C29   O19   S    
H40   O4    S    
H43   O10   S    
C24   O8    S    
H10   O24   S    
C32   C35   S    
C8    N9    S    
H32   N6    S    
C11   O33   A    
Cu2   O12   S    
H31   N6    S    
H37   N7    S    
C22   O5    D    
C33   O27   D    
C10   C39   S    
C13   N14   S    
C35   C39   S    
C26   O13   S    
C37   C38   S    
H2    O15   S    
C5    C28   S    
C11   C16   S    
H33   O26   S    
C30   O20   D    
H3    O17   S    
C2    C21   S    
H27   N4    S    
C23   N5    S    
C37   N8    S    
H41   O6    S    
C25   O9    D    
C4    N9    S    
C5    N1    S    
C1    C38   S    
H4    O19   S    
Cu1   Cu2   S    
Cu1   O30   S    
C12   C14   S    
C23   C35   S    
C23   N3    S    
C13   C15   S    
C31   O24   S    
C3    C4    S    
C26   O11   D    
C4    C27   S    
C33   O28   S    
H7    N11   S    
C37   N7    S    
H22   N2    S    
C34   C38   S    
C8    C31   S    
C3    C26   S    
H17   N14   S    
Cu1   N9    S    
H19   N15   S    
Cu2   O31   S    
C14   N15   S    
C23   C38   S    
C7    N10   S    
Cu1   O32   S    
C18   N2    S    
C13   C17   S    
C34   N4    S    
C31   O22   D    
C28   O17   S    
C2    C37   S    
Cu2   O29   S    
H30   N5    S    
H14   N13   S    
C17   C19   S    
C5    N12   S    
C34   C36   S    
C20   O34   D    
C9    C12   S    
C10   O31   A    
C25   O10   S    
Cu1   O1    S    
C6    C29   S    
C12   C13   S    
C16   C18   S    
H6    N10   S    
C14   C15   S    
H39   N8    S    
C36   H23   S    
C1    O1    A    
C21   O4    S    
C15   C16   S    
C27   O14   D    
