data_mof_unit_33054.cif
_audit_creation_date              2013-03-05T16:06:56-0500
_audit_creation_method            fapswitch 2.2
_symmetry_space_group_name_H-M    P1
_symmetry_Int_Tables_number       1
_space_group_crystal_system       triclinic
_cell_length_a                    14.563033
_cell_length_b                    16.226647
_cell_length_c                    6.9475
_cell_angle_alpha                 90.254532
_cell_angle_beta                  98.917265
_cell_angle_gamma                 89.755033
_cell_volume                      1621.88784349

loop_
_atom_site_label
_atom_site_type_symbol
_atom_site_description
_atom_site_fract_x
_atom_site_fract_y
_atom_site_fract_z
_atom_type_partial_charge
O1    O     O_R   0.584990 0.413650 0.534420 -0.603386
O2    O     O_R   0.584990 0.586350 0.534420 -0.592937
O3    O     O_R   0.596190 0.585230 0.208380 -0.590344
O4    O     O_R   0.596190 0.414770 0.208380 -0.582358
O5    O     O_R   0.415010 0.586420 0.976930 -0.578829
O6    O     O_R   0.415010 0.413580 0.976930 -0.577889
C1    C     C_R   0.618858 0.614255 0.384680 0.941405
C2    C     C_R   0.618695 0.385623 0.383763 0.994371
O7    O     O_3   0.440560 0.500000 0.319140 -0.264121
V1    V     V_3+5 0.511030 0.500000 0.068070 1.210451
O8    O     O_R   0.403810 0.414840 0.643540 -0.599506
O9    O     O_R   0.403810 0.585160 0.643540 -0.590494
C3    C     C_R   0.381688 0.385525 0.807202 0.946301
C4    C     C_R   0.375304 0.609291 0.806594 0.945174
V2    V     V_3+5 0.488970 0.500000 0.560620 1.198932
O10   O     O_3   0.559440 0.500000 0.859420 -0.278028
H1    H     H_    0.130391 0.754021 0.881311 0.139403
H2    H     H_    0.152154 0.240475 0.891306 0.158018
C5    C     C_2   0.298575 0.672638 0.806230 -0.366666
C6    C     C_2   0.310737 0.318332 0.806157 -0.357620
C7    C     C_2   0.269184 0.698931 0.976020 0.038953
C8    C     C_2   0.299810 0.276062 0.974575 0.015548
C9    C     C_2   0.202405 0.826161 0.108528 -0.029080
C10   C     C_2   0.211486 0.161968 0.115206 -0.017025
C11   C     C_2   0.194964 0.762129 0.981314 -0.177791
C12   C     C_2   0.215733 0.224754 0.987968 -0.242838
C13   C     C_R   0.684719 0.742059 0.566339 0.171693
C14   C     C_R   0.683536 0.256437 0.558049 0.153344
C15   C     C_R   0.685691 0.684751 0.414700 -0.249941
C16   C     C_R   0.685470 0.315018 0.411180 -0.224825
C17   C     C_R   0.749942 0.699449 0.285879 -0.123327
C18   C     C_R   0.751621 0.301466 0.285040 -0.144353
H3    H     H_    0.753391 0.657737 0.165499 0.127970
H4    H     H_    0.754936 0.342984 0.164960 0.123294
C19   C     C_R   0.814615 0.765015 0.318007 -0.193932
C20   C     C_R   0.818042 0.236803 0.319582 -0.209354
H5    H     H_    0.865634 0.771435 0.221377 0.120738
H6    H     H_    0.869598 0.230161 0.223928 0.125902
C21   C     C_R   0.817245 0.818496 0.479707 -0.245022
C22   C     C_R   0.820857 0.184092 0.481906 -0.244681
C23   C     C_R   0.748606 0.806720 0.597819 0.203042
C24   C     C_R   0.750733 0.195206 0.595614 0.224689
C25   C     C_3   0.757810 0.798935 0.813828 -0.498868
C26   C     C_3   0.753483 0.202904 0.810810 -0.454980
C27   C     C_3   0.687485 0.728264 0.779434 -0.005123
C28   C     C_3   0.672555 0.264336 0.766668 -0.062069
H7    H     H_    0.828579 0.778123 0.879052 0.111577
H8    H     H_    0.818754 0.232475 0.882060 0.110326
H9    H     H_    0.718790 0.667374 0.823985 0.099258
H10   H     H_    0.689074 0.327183 0.825679 0.123156
O11   O     O_R   0.921430 0.915960 0.371040 -0.605780
O12   O     O_R   0.921430 0.084040 0.371040 -0.607700
O13   O     O_R   0.910450 0.087500 0.697310 -0.584032
O14   O     O_R   0.910450 0.912500 0.697310 -0.607055
O15   O     O_R   0.091710 0.087460 0.928430 -0.593290
O16   O     O_R   0.091710 0.912540 0.928430 -0.591582
C29   C     C_R   0.889954 0.115761 0.520259 0.976668
C30   C     C_R   0.888187 0.885473 0.519120 0.958034
O17   O     O_3   0.065970 0.000000 0.586140 -0.234748
V3    V     V_3+5 0.995640 0.000000 0.837400 1.215019
O18   O     O_R   0.103020 0.915700 0.261710 -0.559303
O19   O     O_R   0.103020 0.084300 0.261710 -0.560945
C31   C     C_R   0.126224 0.887028 0.100014 0.942393
C32   C     C_R   0.127229 0.111531 0.101081 0.936477
V4    V     V_3+5 0.017940 1.000000 0.344880 1.234429
O20   O     O_3   0.947330 0.000000 0.046180 -0.297129
C33   C     C_2   0.294179 0.653109 0.159471 0.559212
H11   H     H_    0.348123 0.675761 0.272161 0.043079
O21   O     O_2   0.256182 0.587635 0.181602 -0.619103
C34   C     C_2   0.364003 0.287806 0.160949 0.704256
H12   H     H_    0.336095 0.303520 0.291841 -0.030981
O22   O     O_2   0.447379 0.275568 0.171797 -0.556547
I1    I     I_    0.331268 0.859161 0.279977 -0.197473
I2    I     I_    0.326493 0.109286 0.304584 -0.139447
C35   C     C_2   0.250977 0.702291 0.615668 0.551531
H13   H     H_    0.241081 0.660095 0.494727 0.022690
O23   O     O_2   0.220347 0.772315 0.593670 -0.545750
C36   C     C_2   0.248246 0.304401 0.618339 0.545995
H14   H     H_    0.237691 0.353388 0.511301 -0.016650
O24   O     O_2   0.210477 0.238180 0.578172 -0.560445
C37   C     C_2   0.726735 0.875520 0.909005 0.819065
H15   H     H_    0.766596 0.897624 0.043996 -0.016347
O25   O     O_2   0.657068 0.913164 0.837098 -0.498205
C38   C     C_2   0.732693 0.124428 0.908898 0.740483
H16   H     H_    0.712634 0.126446 0.052829 0.024475
O26   O     O_2   0.739557 0.058080 0.829547 -0.559508
I3    I     I_    0.553195 0.747335 0.865016 -0.255834
I4    I     I_    0.537084 0.218649 0.794095 -0.214113

loop_
_geom_bond_atom_site_label_1
_geom_bond_atom_site_label_2
_geom_bond_distance
_ccdc_geom_bond_type
C1    C15   1.497936 S    
C13   C15   1.403787 A    
O1    C2    1.302482 A    
O2    C1    1.302203 A    
H2    C12   1.086320 S    
O4    C2    1.302218 A    
C37   H15   1.084069 S    
C5    C35   1.477531 S    
C21   C23   1.402283 A    
O14   V3    2.032435 S    
C14   C28   1.487525 S    
C18   C20   1.419790 A    
C27   I3    2.151187 S    
C38   O26   1.218151 D    
O3    C1    1.304566 A    
C36   O24   1.220594 D    
V2    O10   2.168444 S    
O11   V4    1.991438 S    
C14   C24   1.388438 A    
O18   C31   1.305508 A    
O19   C32   1.301006 A    
O8    V2    2.005669 S    
C17   H3    1.080648 S    
C34   H12   1.081106 S    
O1    V2    2.002915 S    
O7    V1    2.156567 S    
C3    C6    1.504564 S    
C13   C27   1.492621 S    
C9    C31   1.476685 S    
V3    O20   1.707420 S    
O17   V3    2.156508 S    
C10   C32   1.468194 S    
O15   V3    2.026361 S    
C7    C33   1.473787 S    
C23   C25   1.491735 S    
C24   C26   1.494080 S    
C9    I1    2.130077 S    
C37   O25   1.221596 D    
O13   V3    2.031064 S    
C26   C28   1.535366 S    
C28   I4    2.146729 S    
C33   H11   1.083720 S    
C20   C22   1.413853 A    
C38   H16   1.084670 S    
O13   C29   1.304786 A    
C36   H14   1.085027 S    
C21   C30   1.497577 S    
O16   V3    2.021914 S    
C33   O21   1.221245 D    
C18   H4    1.081626 S    
C19   C21   1.412416 A    
C35   H13   1.074143 S    
C25   C27   1.533875 S    
C13   C23   1.399133 A    
O9    V2    1.994805 S    
C27   H9    1.111298 S    
O15   C32   1.290012 A    
O16   C31   1.289153 A    
O11   C30   1.303254 A    
O2    V2    2.012388 S    
C35   O23   1.220441 D    
O5    C4    1.289366 A    
O9    C4    1.322646 A    
C25   C37   1.505669 S    
C17   C19   1.417767 A    
C6    C8    1.389481 D    
O4    V1    2.005870 S    
O14   C30   1.304605 A    
C7    C11   1.491219 S    
C22   C29   1.490948 S    
O19   V4    1.995918 S    
C19   H5    1.081438 S    
C4    C5    1.514775 S    
C10   C12   1.359680 D    
C22   C24   1.395269 A    
C26   C38   1.500872 S    
O6    V1    2.014237 S    
C28   H10   1.110735 S    
C6    C36   1.487606 S    
H1    C11   1.087216 S    
C14   C16   1.401171 A    
O7    V2    1.716091 S    
C2    C16   1.493157 S    
O5    V1    2.009823 S    
C15   C17   1.413089 A    
O3    V1    2.007208 S    
V1    O10   1.707387 S    
O17   V4    1.713264 S    
O6    C3    1.285661 A    
C16   C18   1.415144 A    
O8    C3    1.320078 A    
C10   I2    2.140467 S    
C20   H6    1.081821 S    
C9    C11   1.354838 D    
O12   C29   1.300140 A    
O18   V4    1.985110 S    
V4    O20   2.168495 S    
C8    C12   1.498569 S    
C34   O22   1.220284 D    
C25   H7    1.111363 S    
C8    C34   1.486920 S    
O12   V4    1.982080 S    
C26   H8    1.111179 S    
C5    C7    1.381025 D    
