data_mof_unit_39296.cif
_audit_creation_date              2012-12-10T17:39:17-0500
_audit_creation_method            fapswitch 2.2
_symmetry_space_group_name_H-M    P1
_symmetry_Int_Tables_number       1
_space_group_crystal_system       triclinic
_cell_length_a                    12.365536
_cell_length_b                    13.211609
_cell_length_c                    27.705925
_cell_angle_alpha                 76.181977
_cell_angle_beta                  101.629943
_cell_angle_gamma                 117.071173
_cell_volume                      3891.09387029

loop_
_atom_site_label
_atom_site_type_symbol
_atom_type_description
_atom_site_fract_x
_atom_site_fract_y
_atom_site_fract_z
_atom_type_partial_charge
C1    C     C_R   0.855057 0.286600 0.504076 0.829050
C2    C     C_R   0.030151 0.417535 0.732014 -0.069656
C3    C     C_R   0.009238 0.500292 0.747074 0.261503
C4    C     C_R   0.004971 0.505713 0.897923 -0.151702
C5    C     C_R   0.909899 0.415835 0.874311 -0.090658
C6    C     C_R   0.815986 0.328801 0.902531 0.421111
C7    C     C_R   0.108752 0.584614 0.872937 -0.108680
C8    C     C_R   0.003562 0.502899 0.645200 -0.112612
C9    C     C_R   0.000301 0.504319 0.353923 -0.039500
C10   C     C_R   0.886066 0.446668 0.020826 0.036471
C11   C     C_R   0.083105 0.616290 0.019277 -0.023857
C12   C     C_R   0.001311 0.501532 0.592259 0.898787
C13   C     C_R   0.986425 0.529502 0.045898 -0.004373
C14   C     C_R   0.778533 0.380291 0.045140 0.060839
C15   C     C_R   0.790874 0.356296 0.097700 0.072138
C16   C     C_R   0.891132 0.438319 0.123896 -0.055171
C17   C     C_R   0.987339 0.527985 0.097213 -0.105829
C18   C     C_R   0.086159 0.613432 0.122020 -0.083011
C19   C     C_R   0.092534 0.597300 0.174807 0.541944
C20   C     C_R   0.894395 0.440241 0.174886 0.531696
C21   C     C_R   0.075481 0.472334 0.287040 -0.093035
C22   C     C_R   0.076854 0.469165 0.337904 -0.209469
C23   C     C_R   0.145081 0.713596 0.492659 0.814954
C24   C     C_R   0.923412 0.543587 0.318202 -0.211178
C25   C     C_R   0.922957 0.547526 0.267516 -0.101442
C26   C     C_R   0.998317 0.511341 0.251714 0.347406
C27   C     C_R   0.895155 0.435279 0.972359 -0.009559
C28   C     C_R   0.997119 0.515646 0.946971 0.066650
C29   C     C_R   0.093153 0.603591 0.971015 0.025182
C30   C     C_R   0.812717 0.337651 0.951174 -0.256559
C31   C     C_R   0.210156 0.662362 0.899898 0.409943
C32   C     C_R   0.161357 0.716080 0.040727 0.296875
C33   C     C_R   0.169817 0.713156 0.092757 0.074849
C34   C     C_R   0.000289 0.501077 0.407423 0.773015
C35   C     C_R   0.202340 0.667873 0.948497 -0.167701
C36   C     C_R   0.278230 0.024094 0.431554 -0.176121
C37   C     C_R   0.228202 0.835551 0.482096 -0.038612
C38   C     C_R   0.814387 0.083357 0.537294 -0.160993
C39   C     C_R   0.734717 0.967619 0.547247 -0.111499
C40   C     C_R   0.611805 0.930633 0.529323 -0.167520
C41   C     C_R   0.566646 0.009081 0.499074 0.092938
C42   C     C_R   0.651238 0.124179 0.483927 0.104249
C43   C     C_R   0.440536 0.976877 0.482932 0.080309
C44   C     C_R   0.402550 0.055420 0.447936 0.158994
C45   C     C_R   0.914649 0.415607 0.823889 0.570810
C46   C     C_R   0.489162 0.163243 0.428823 -0.212339
C47   C     C_R   0.611814 0.196717 0.446038 -0.158911
C48   C     C_R   0.350630 0.869051 0.500950 -0.220046
C49   C     C_R   0.191323 0.914071 0.448248 -0.171144
C50   C     C_R   0.773339 0.163100 0.506843 -0.090913
C51   C     C_R   0.378532 0.395544 0.596355 -0.268069
C52   C     C_R   0.748627 0.626973 0.426223 0.010755
C53   C     C_R   0.647586 0.650598 0.408098 0.332199
C54   C     C_R   0.550282 0.606718 0.436672 -0.209631
C55   C     C_R   0.554071 0.540809 0.484561 -0.121854
C56   C     C_R   0.107524 0.580373 0.822437 0.601009
C57   C     C_R   0.660007 0.518964 0.502283 0.187986
C58   C     C_R   0.455344 0.493424 0.515223 -0.036417
C59   C     C_R   0.475749 0.449272 0.566424 0.087827
C60   C     C_R   0.591552 0.454180 0.586006 -0.002483
C61   C     C_R   0.665463 0.459526 0.552547 0.373445
C62   C     C_R   0.337370 0.489274 0.497757 0.051805
C63   C     C_R   0.264130 0.388783 0.576328 0.091364
C64   C     C_R   0.986865 0.585233 0.711275 -0.163453
C65   C     C_R   0.983359 0.586934 0.660429 0.324919
C66   C     C_R   0.028116 0.419272 0.681377 -0.254506
Cu1   Cu    Cu3+1 0.098270 0.475420 0.511360 0.949718
Cu2   Cu    Cu3+1 0.901730 0.524580 0.488640 1.002939
H1    H     H_    0.044182 0.354311 0.670359 0.164978
H2    H     H_    0.971726 0.649729 0.723152 0.177868
H3    H     H_    0.863979 0.571980 0.329315 0.169266
H4    H     H_    0.863788 0.578573 0.240381 0.151104
H5    H     H_    0.285134 0.720539 0.969218 0.215066
H6    H     H_    0.096543 0.888928 0.433148 0.161168
H7    H     H_    0.462017 0.222250 0.400523 0.150263
H8    H     H_    0.248731 0.083510 0.404711 0.141640
H9    H     H_    0.048124 0.352064 0.759599 0.162641
H10   H     H_    0.373290 0.808105 0.529353 0.152625
H11   H     H_    0.907821 0.110856 0.554540 0.164422
H12   H     H_    0.555382 0.839649 0.538850 0.132971
H13   H     H_    0.767605 0.906597 0.570388 0.169545
H14   H     H_    0.675247 0.279195 0.428246 0.165030
H15   H     H_    0.191022 0.350251 0.600037 0.129916
H16   H     H_    0.388803 0.357432 0.635094 0.154682
H17   H     H_    0.316960 0.528016 0.460317 0.121170
H18   H     H_    0.823183 0.661050 0.403539 0.151853
H19   H     H_    0.474680 0.628484 0.421292 0.169961
H20   H     H_    0.137075 0.438649 0.364600 0.159603
H21   H     H_    0.134080 0.444328 0.275040 0.148191
H22   H     H_    0.748698 0.263537 0.973260 0.173732
N1    N     N_R   0.010698 0.498439 0.799167 -0.477703
N2    N     N_R   0.996160 0.514732 0.199341 -0.457857
N3    N     N_R   0.246290 0.438210 0.528570 -0.190262
N4    N     N_R   0.754320 0.561170 0.471730 -0.214146
O1    O     O_R   0.972510 0.318140 0.514280 -0.590290
O2    O     O_2   0.795678 0.371924 0.199758 -0.560428
O3    O     O_2   0.200706 0.657982 0.796129 -0.442450
O4    O     O_2   0.193081 0.662718 0.201920 -0.555119
O5    O     O_R   0.806530 0.359640 0.495100 -0.527164
O6    O     O_R   0.082990 0.479270 0.579320 -0.605242
O7    O     O_R   0.917010 0.520770 0.560140 -0.509682
O8    O     O_R   0.193470 0.640360 0.504900 -0.588147
O9    O     O_R   0.027490 0.681860 0.485720 -0.566880
O10   O     O_R   0.082990 0.479230 0.439860 -0.589686
O11   O     O_R   0.917010 0.520730 0.420680 -0.609378
O12   O     O_2   0.823326 0.335629 0.798974 -0.465237
Cl1   Cl    Cl    0.353401 0.751170 0.877065 -0.470941
Cl2   Cl    Cl    0.223241 0.851917 0.000780 -0.630663
C67   C     C_3   0.263911 0.819545 0.114951 -0.305923
C68   C     C_3   0.205464 0.883906 0.132376 -0.338967
C69   C     C_3   0.147780 0.944928 0.088734 -0.723999
H23   H     H_    0.217445 0.008162 0.063610 0.278247
H24   H     H_    0.072271 0.881288 0.067259 0.277733
H25   H     H_    0.109737 0.991989 0.103286 0.222940
H26   H     H_    0.134702 0.824496 0.157606 0.242934
H27   H     H_    0.277637 0.949732 0.153901 0.208785
H28   H     H_    0.324841 0.795667 0.145781 0.214130
H29   H     H_    0.329946 0.881977 0.088448 0.222340
C70   C     C_3   0.629183 0.433221 0.642073 -0.318476
C71   C     C_3   0.636834 0.528290 0.667323 -0.409761
C72   C     C_3   0.660000 0.500021 0.724054 -0.734706
H30   H     H_    0.582477 0.419997 0.738857 0.271800
H31   H     H_    0.745218 0.487970 0.734778 0.272022
H32   H     H_    0.669392 0.571918 0.741158 0.247085
H33   H     H_    0.712307 0.611510 0.653546 0.262672
H34   H     H_    0.550899 0.539497 0.658109 0.231700
H35   H     H_    0.565254 0.346671 0.659494 0.224548
H36   H     H_    0.721005 0.433331 0.649229 0.240482
Cl3   Cl    Cl    0.702930 0.201812 0.881317 -0.479903
Cl4   Cl    Cl    0.642640 0.735174 0.349019 -0.618631
Cl5   Cl    Cl    0.687342 0.332532 0.568716 -0.620363
C73   C     C_3   0.702389 0.240672 0.124281 -0.354063
C74   C     C_3   0.666894 0.139181 0.097032 -0.396394
C75   C     C_3   0.595374 0.023953 0.129013 -0.794272
H37   H     H_    0.652778 0.009082 0.163840 0.267742
H38   H     H_    0.512175 0.022927 0.138919 0.250650
H39   H     H_    0.567501 0.952859 0.107818 0.250204
H40   H     H_    0.608922 0.146959 0.061476 0.234912
H41   H     H_    0.750682 0.138826 0.088352 0.235346
H42   H     H_    0.747008 0.217643 0.161395 0.251559
H43   H     H_    0.619193 0.247125 0.129609 0.214217
C76   C     C_3   0.652669 0.364946 0.017896 -0.419998
C77   C     C_3   0.653501 0.480813 0.990148 -0.332568
C78   C     C_3   0.525728 0.466827 0.966695 -0.764330
H44   H     H_    0.489811 0.406501 0.939412 0.266554
H45   H     H_    0.462686 0.433282 0.996038 0.248033
H46   H     H_    0.529552 0.551799 0.946782 0.266824
H47   H     H_    0.688107 0.542758 0.016718 0.230218
H48   H     H_    0.714695 0.517448 0.959972 0.239097
H49   H     H_    0.584356 0.328679 0.045263 0.207754
H50   H     H_    0.617262 0.303208 0.991590 0.208971
Cl6   Cl    Cl    0.959357 0.698789 0.617448 -0.638743

loop_
_geom_bond_atom_site_label_1
_geom_bond_atom_site_label_2
_ccdc_geom_bond_type
C10   C27   A    
C58   C62   A    
C21   C26   A    
C14   C76   S    
C8    C66   A    
C41   C42   A    
C69   H23   S    
Cu2   O9    S    
C30   H22   S    
C1    O5    A    
C75   H39   S    
C67   H28   S    
C21   H21   S    
C53   C54   A    
C71   C72   S    
C20   N2    A    
C56   O3    S    
C28   C29   A    
C6    Cl3   S    
C54   H19   S    
C71   H34   S    
C9    C22   A    
C66   H1    S    
C38   H11   S    
C26   N2    S    
C77   C78   S    
C60   C70   S    
C3    N1    S    
C18   C19   A    
C47   H14   S    
C48   H10   S    
C68   C69   S    
C72   H32   S    
C19   N2    A    
C36   H8    S    
C46   C47   A    
C56   N1    A    
C23   O9    A    
C15   C73   S    
C73   C74   S    
Cu1   O10   S    
C40   H12   S    
C52   N4    A    
C64   H2    S    
C43   C48   A    
C8    C12   S    
C70   H36   S    
C20   O2    S    
C59   C60   A    
C21   C22   A    
C27   C30   A    
Cu1   O1    S    
C41   C43   A    
C78   H46   S    
C77   H47   S    
C7    C56   A    
C4    C7    A    
C46   H7    S    
C4    C28   A    
C19   O4    S    
C44   C46   A    
C67   H29   S    
C38   C39   A    
C62   H17   S    
C7    C31   A    
Cu1   Cu2   S    
C51   C63   A    
Cu2   O7    S    
C39   H13   S    
C78   H45   S    
C10   C14   A    
C39   C40   A    
C71   H33   S    
C16   C17   A    
C75   H38   S    
C58   C59   A    
C23   C37   S    
C5    C45   A    
Cu2   N4    S    
C63   H15   S    
C60   C61   A    
C76   H50   S    
C43   C44   A    
C37   C49   A    
C8    C65   A    
C14   C15   A    
C77   H48   S    
C1    O1    A    
C62   N3    A    
C17   C18   A    
C69   H24   S    
C25   H4    S    
C16   C20   A    
C52   C53   A    
C24   C25   A    
C37   C48   A    
C72   H30   S    
Cu1   O6    S    
C42   C50   A    
C40   C41   A    
C6    C30   A    
C11   C32   A    
C74   H41   S    
C22   H20   S    
C57   N4    A    
C55   C57   A    
C74   C75   S    
C31   C35   A    
C36   C44   A    
C51   C59   A    
Cu2   O11   S    
C24   H3    S    
C68   H27   S    
C72   H31   S    
C45   O12   S    
C1    C50   S    
C73   H43   S    
C63   N3    A    
C54   C55   A    
C35   H5    S    
C76   C77   S    
C34   O11   A    
C31   Cl1   S    
C4    C5    A    
C2    C66   A    
C10   C13   A    
C70   C71   S    
C9    C24   A    
C57   C61   A    
C75   H37   S    
C38   C50   A    
C73   H42   S    
C29   C35   A    
C13   C17   A    
C78   H44   S    
C64   C65   A    
C76   H49   S    
C65   Cl6   S    
C52   H18   S    
C2    C3    A    
C25   C26   A    
Cu2   O5    S    
C12   O7    A    
C2    H9    S    
C67   C68   S    
C32   C33   A    
C11   C13   A    
C5    C6    A    
C68   H26   S    
C9    C34   S    
C69   H25   S    
C42   C47   A    
C3    C64   A    
C45   N1    A    
C18   C33   A    
C34   O10   A    
C12   O6    A    
C61   Cl5   S    
C23   O8    A    
C74   H40   S    
C33   C67   S    
C11   C29   A    
C32   Cl2   S    
C55   C58   A    
C27   C28   A    
Cu1   N3    S    
C49   H6    S    
C53   Cl4   S    
C51   H16   S    
C36   C49   A    
C15   C16   A    
Cu1   O8    S    
C70   H35   S    
