data_mof_unit_39146.cif
_audit_creation_date              2012-12-11T16:44:27-0500
_audit_creation_method            fapswitch 2.2
_symmetry_space_group_name_H-M    P1
_symmetry_Int_Tables_number       1
_space_group_crystal_system       triclinic
_cell_length_a                    27.103537
_cell_length_b                    7.200522
_cell_length_c                    22.821913
_cell_angle_alpha                 89.999776
_cell_angle_beta                  101.463924
_cell_angle_gamma                 89.999964
_cell_volume                      4365.06030724

loop_
_atom_site_label
_atom_site_type_symbol
_atom_type_description
_atom_site_fract_x
_atom_site_fract_y
_atom_site_fract_z
_atom_type_partial_charge
O1    O     O_R   0.707300 0.594030 0.176840 -0.535362
O2    O     O_R   0.292700 0.405970 0.823160 -0.524636
O3    O     O_R   0.792700 0.094030 0.323160 -0.535362
O4    O     O_R   0.207300 0.905970 0.676840 -0.524635
O5    O     O_R   0.697330 0.262360 0.295660 -0.497929
O6    O     O_R   0.302670 0.737640 0.704340 -0.501776
O7    O     O_R   0.802670 0.762360 0.204340 -0.497930
O8    O     O_R   0.197330 0.237640 0.795660 -0.501774
C1    C     C_R   0.684468 0.432005 0.311527 0.734236
C2    C     C_R   0.314850 0.568103 0.687681 0.732761
C3    C     C_R   0.815532 0.932006 0.188473 0.734238
C4    C     C_R   0.185150 0.068103 0.812319 0.732760
O9    O     O_R   0.701410 0.264250 0.175600 -0.538887
O10   O     O_R   0.298590 0.735750 0.824400 -0.546165
O11   O     O_R   0.798590 0.764250 0.324400 -0.538887
O12   O     O_R   0.201410 0.235750 0.675600 -0.546166
O13   O     O_R   0.796800 0.094950 0.202240 -0.545501
O14   O     O_R   0.203200 0.905050 0.797760 -0.544944
O15   O     O_R   0.703200 0.594950 0.297760 -0.545500
O16   O     O_R   0.296800 0.405050 0.702240 -0.544944
C5    C     C_R   0.689770 0.432684 0.153402 0.660350
C6    C     C_R   0.310035 0.567395 0.846720 0.660138
C7    C     C_R   0.810230 0.932683 0.346598 0.660352
C8    C     C_R   0.189965 0.067395 0.653280 0.660139
O17   O     O_3   0.781290 0.427390 0.258880 -0.365684
O18   O     O_3   0.218710 0.572610 0.741120 -0.373860
O19   O     O_3   0.718710 0.927390 0.241120 -0.365685
O20   O     O_3   0.281290 0.072610 0.758880 -0.373862
V1    V     V_3+5 0.744190 0.152150 0.248350 1.525859
V2    V     V_3+5 0.255810 0.847850 0.751650 1.492705
V3    V     V_3+5 0.755810 0.652150 0.251650 1.525859
V4    V     V_3+5 0.244190 0.347850 0.748350 1.492706
C9    C     C_R   0.156243 0.060914 0.593746 -0.115584
C10   C     C_R   0.844129 0.939436 0.406058 -0.119634
C11   C     C_R   0.343757 0.560911 0.906254 -0.115585
C12   C     C_R   0.655871 0.439439 0.093942 -0.119634
C13   C     C_R   0.141428 0.093211 0.486142 -0.063010
C14   C     C_R   0.859001 0.909076 0.513724 -0.072481
C15   C     C_R   0.358571 0.593199 0.013858 -0.063009
C16   C     C_R   0.641000 0.409087 0.986276 -0.072482
C17   C     C_R   0.174674 0.099630 0.541643 -0.107086
C18   C     C_R   0.825657 0.903762 0.458317 -0.067474
C19   C     C_R   0.325325 0.599621 0.958357 -0.107086
C20   C     C_R   0.674344 0.403771 0.041683 -0.067472
C21   C     C_R   0.104804 0.023297 0.589562 -0.188104
C22   C     C_R   0.895707 0.974236 0.410063 -0.180262
C23   C     C_R   0.395196 0.523298 0.910438 -0.188104
C24   C     C_R   0.604293 0.474235 0.089937 -0.180263
C25   C     C_R   0.070121 0.023478 0.533658 0.078240
C26   C     C_R   0.930423 0.974850 0.465974 0.073623
C27   C     C_R   0.429879 0.523476 0.966341 0.078240
C28   C     C_R   0.569577 0.474851 0.034026 0.073623
C29   C     C_R   0.089915 0.049405 0.480990 0.066383
C30   C     C_R   0.910619 0.950553 0.518724 0.062651
C31   C     C_R   0.410085 0.549396 0.019010 0.066383
C32   C     C_R   0.589381 0.450560 0.981276 0.062651
C33   C     C_R   0.016631 0.000105 0.528559 0.067221
C34   C     C_R   0.983936 0.997848 0.471046 0.066845
C35   C     C_R   0.483369 0.500106 0.971441 0.067221
C36   C     C_R   0.516064 0.497846 0.028954 0.066845
C37   C     C_R   0.005860 0.013555 0.420195 -0.239533
C38   C     C_R   0.994726 0.984999 0.579432 -0.251560
C39   C     C_R   0.494140 0.513546 0.079805 -0.239532
C40   C     C_R   0.505274 0.485005 0.920568 -0.251559
C41   C     C_R   0.057576 0.036017 0.424243 -0.052651
C42   C     C_R   0.943003 0.963689 0.575439 -0.039106
C43   C     C_R   0.442423 0.536006 0.075757 -0.052651
C44   C     C_R   0.556998 0.463699 0.924561 -0.039105
H1    H     H_    0.907186 0.000118 0.368293 0.112390
H2    H     H_    0.093386 0.994728 0.631207 0.097261
H3    H     H_    0.592814 0.500111 0.131707 0.112389
H4    H     H_    0.406614 0.494734 0.868792 0.097260
H5    H     H_    0.156185 0.128045 0.446952 0.210475
H6    H     H_    0.844152 0.876108 0.552994 0.210802
H7    H     H_    0.343815 0.628027 0.053048 0.210475
H8    H     H_    0.655848 0.376124 0.947006 0.210802
H9    H     H_    0.983648 0.003146 0.375669 0.122303
H10   H     H_    0.016947 0.995812 0.623944 0.110690
H11   H     H_    0.516352 0.503136 0.124331 0.122302
H12   H     H_    0.483053 0.495820 0.876056 0.110690
C45   C     C_R   0.860319 0.101945 0.118205 -0.188804
C46   C     C_R   0.118121 0.898606 0.852666 -0.219875
C47   C     C_R   0.639680 0.601947 0.381794 -0.188815
C48   C     C_R   0.381881 0.398609 0.647336 -0.219881
H13   H     H_    0.837014 0.222425 0.120824 0.179893
H14   H     H_    0.123062 0.779525 0.825414 0.174783
H15   H     H_    0.662983 0.722430 0.379171 0.179900
H16   H     H_    0.376940 0.279531 0.674591 0.174775
C49   C     C_R   0.895542 0.110725 0.081198 0.032933
C50   C     C_R   0.082155 0.888712 0.888714 -0.043195
C51   C     C_R   0.604458 0.610727 0.418801 0.032955
C52   C     C_R   0.417846 0.388714 0.611289 -0.043167
H17   H     H_    0.898588 0.237428 0.056549 0.165799
H18   H     H_    0.060493 0.762248 0.888728 0.145474
H19   H     H_    0.601411 0.737432 0.443447 0.165809
H20   H     H_    0.439510 0.262252 0.611276 0.145472
C53   C     C_R   0.927009 0.959515 0.076179 0.004352
C54   C     C_R   0.074400 0.038475 0.925100 0.023913
C55   C     C_R   0.572992 0.459512 0.423823 0.004342
C56   C     C_R   0.425600 0.538473 0.574900 0.023917
C57   C     C_R   0.922615 0.795006 0.108921 -0.119412
C58   C     C_R   0.102997 0.203160 0.924502 -0.107344
C59   C     C_R   0.577388 0.295001 0.391084 -0.119416
C60   C     C_R   0.397001 0.703155 0.575495 -0.107367
C61   C     C_R   0.886417 0.786845 0.145950 0.628756
C62   C     C_R   0.139099 0.212320 0.887402 0.627133
C63   C     C_R   0.613586 0.286841 0.354054 0.628756
C64   C     C_R   0.360899 0.712316 0.612595 0.627147
C65   C     C_R   0.854770 0.940135 0.150714 -0.223588
C66   C     C_R   0.146913 0.060102 0.851194 -0.207267
C67   C     C_R   0.645230 0.440134 0.349286 -0.223590
C68   C     C_R   0.353087 0.560102 0.648807 -0.207268
C69   C     C_R   0.016389 0.983324 0.062637 -0.310861
C70   C     C_R   0.985149 0.012553 0.938588 -0.333897
C71   C     C_R   0.483610 0.483244 0.437367 -0.310876
C72   C     C_R   0.514853 0.512636 0.561412 -0.333897
H21   H     H_    0.028900 0.972016 0.110623 0.199439
H22   H     H_    0.972662 0.023885 0.890600 0.189096
H23   H     H_    0.471099 0.471875 0.389382 0.199432
H24   H     H_    0.527340 0.524032 0.609399 0.189099
C73   C     C_R   0.052167 0.002053 0.026352 0.694845
C74   C     C_R   0.949341 0.994767 0.974908 0.681902
C75   C     C_R   0.447832 0.501973 0.473651 0.694863
C76   C     C_R   0.550660 0.494850 0.525092 0.681890
C77   C     C_R   0.036748 0.017560 0.963972 -0.159379
C78   C     C_R   0.964739 0.979068 0.037285 -0.154223
C79   C     C_R   0.463252 0.517559 0.536030 -0.159402
C80   C     C_R   0.535262 0.479067 0.462717 -0.154203
C81   C     C_2   0.075594 0.038140 0.366822 0.434096
H25   H     H_    0.052186 0.099378 0.327415 0.071733
O21   O     O_2   0.114634 0.961005 0.361734 -0.483459
C82   C     C_2   0.925037 0.962684 0.632896 0.407303
H26   H     H_    0.948250 0.900366 0.672242 0.051869
O22   O     O_2   0.886319 0.041942 0.638086 -0.492899
C83   C     C_2   0.424405 0.538122 0.133178 0.434098
H27   H     H_    0.447813 0.599358 0.172585 0.071733
O23   O     O_2   0.385366 0.460983 0.138265 -0.483459
C84   C     C_2   0.574963 0.462699 0.867104 0.407302
H28   H     H_    0.551751 0.400382 0.827757 0.051869
O24   O     O_2   0.613681 0.541961 0.861914 -0.492899
F1    F     F_    0.101838 0.004458 0.051999 -0.607937
F2    F     F_    0.899697 0.990579 0.949183 -0.632731
F3    F     F_    0.398160 0.504303 0.448006 -0.607919
F4    F     F_    0.600306 0.490743 0.550816 -0.632733
C85   C     C_2   0.771414 0.863068 0.455676 0.434746
H29   H     H_    0.744787 0.866847 0.413438 0.020396
O25   O     O_2   0.755639 0.825286 0.500786 -0.489016
C86   C     C_2   0.228711 0.145272 0.544517 0.523509
H30   H     H_    0.255030 0.149552 0.587036 0.079292
O26   O     O_2   0.244697 0.178619 0.499228 -0.457560
C87   C     C_2   0.728587 0.363083 0.044324 0.434744
H31   H     H_    0.755214 0.366865 0.086562 0.020394
O27   O     O_2   0.744362 0.325301 0.999213 -0.489019
C88   C     C_2   0.271289 0.645259 0.955483 0.523504
H32   H     H_    0.244970 0.649541 0.912964 0.079292
O28   O     O_2   0.255302 0.678600 0.000772 -0.457561
C89   C     C_2   0.954725 0.630710 0.103142 0.473748
H33   H     H_    0.976784 0.625767 0.068401 0.040461
O29   O     O_2   0.957256 0.498620 0.137148 -0.481947
C90   C     C_2   0.094435 0.365948 0.961554 0.559242
H34   H     H_    0.062836 0.367951 0.984170 0.011232
O30   O     O_2   0.122532 0.500124 0.967610 -0.447979
C91   C     C_2   0.545282 0.130697 0.396868 0.473731
H35   H     H_    0.523233 0.125737 0.431619 0.040456
O31   O     O_2   0.542744 0.998623 0.362854 -0.481944
C92   C     C_2   0.405560 0.865935 0.538438 0.559208
H36   H     H_    0.437153 0.867922 0.515811 0.011258
O32   O     O_2   0.377467 0.000124 0.532389 -0.447972
F5    F     F_    0.882139 0.629348 0.177368 -0.647791
F6    F     F_    0.167094 0.368785 0.887140 -0.660482
F7    F     F_    0.617865 0.129339 0.322639 -0.647796
F8    F     F_    0.332902 0.868777 0.612854 -0.660475

loop_
_geom_bond_atom_site_label_1
_geom_bond_atom_site_label_2
_ccdc_geom_bond_type
O17   V3    S    
C55   C59   A    
O1    C5    A    
C89   H33   S    
C3    C65   S    
C56   C79   S    
C9    C21   A    
O3    C7    A    
C1    C67   S    
C10   C18   A    
O1    V3    S    
C11   C23   A    
C4    C66   S    
C85   H29   S    
C25   C33   A    
C83   H27   S    
C5    C12   S    
C63   F7    S    
O7    C3    A    
C6    C11   S    
C35   C40   A    
C48   C68   A    
C61   F5    S    
C36   C39   A    
C46   C66   A    
O9    V1    S    
C91   O31   D    
C86   O26   D    
C14   C18   A    
C13   C17   A    
C14   H6    S    
O4    C8    A    
O19   V1    S    
C52   H20   S    
O13   V1    S    
C31   C43   A    
O2    V4    S    
O3    V1    S    
C22   H1    S    
C13   H5    S    
C28   C36   A    
C44   C84   S    
C1    O15   A    
C56   C60   A    
C15   C31   A    
C91   H35   S    
C2    O16   A    
C82   H26   S    
C16   C32   A    
C72   C79   A    
O2    C6    A    
C87   H31   S    
C2    C68   S    
C10   C22   A    
C15   H7    S    
C19   C88   S    
C11   C19   A    
C16   C20   A    
C88   O28   D    
C76   C80   A    
C13   C29   A    
C34   C37   A    
O11   C7    A    
O15   V3    S    
C35   C36   A    
O12   C8    A    
C92   O32   D    
C40   H12   S    
O10   V2    S    
C85   O25   D    
O16   V4    S    
C50   H18   S    
O5    V1    S    
C54   C77   S    
C57   C61   A    
C39   C43   A    
C20   C87   S    
C71   C75   A    
C38   C42   A    
C26   C34   A    
C73   F1    S    
C33   C38   A    
O7    V3    S    
C86   H30   S    
C58   C90   S    
C70   C77   A    
O18   V4    S    
C15   C19   A    
C69   C78   A    
C32   C44   A    
C60   C92   S    
O4    V2    S    
C71   C80   A    
C72   H24   S    
C49   C53   A    
C90   O30   D    
C74   C78   A    
C43   C83   S    
C73   C77   A    
C37   C41   A    
C41   C81   S    
C14   C30   A    
C21   C25   A    
O8    C4    A    
C7    C10   S    
O8    V4    S    
O9    C5    A    
C26   C30   A    
C88   H32   S    
C70   H22   S    
C84   O24   D    
C69   H21   S    
C82   O22   D    
O6    V2    S    
C45   C65   A    
C71   H23   S    
C64   F8    S    
C92   H36   S    
C47   C67   A    
C12   C20   A    
C27   C35   A    
C74   F2    S    
C24   H3    S    
C75   F3    S    
C40   C44   A    
C75   C79   A    
C60   C64   A    
C29   C41   A    
C52   C56   A    
C81   H25   S    
C62   C66   A    
C83   O23   D    
C37   H9    S    
C61   C65   A    
C3    O13   A    
C72   C76   A    
C21   H2    S    
C63   C67   A    
C38   H10   S    
C48   H16   S    
O5    C1    A    
C53   C78   S    
C47   H15   S    
O6    C2    A    
C23   C27   A    
O11   V3    S    
C55   C80   S    
C39   H11   S    
O12   V4    S    
C47   C51   A    
C22   C26   A    
C59   C91   S    
C8    C9    S    
C46   C50   A    
C42   C82   S    
C9    C17   A    
C90   H34   S    
O10   C6    A    
O20   V2    S    
C45   C49   A    
C54   C58   A    
C46   H14   S    
C33   C34   A    
C17   C86   S    
C25   C29   A    
C16   H8    S    
C12   C24   A    
C27   C31   A    
C87   O27   D    
C49   H17   S    
C45   H13   S    
C23   H4    S    
C84   H28   S    
O14   V2    S    
C57   C89   S    
C70   C74   A    
C64   C68   A    
C24   C28   A    
C69   C73   A    
C51   H19   S    
C89   O29   D    
C62   F6    S    
C58   C62   A    
C4    O14   A    
C76   F4    S    
C59   C63   A    
C48   C52   A    
C51   C55   A    
C30   C42   A    
C18   C85   S    
C50   C54   A    
C53   C57   A    
C28   C32   A    
C81   O21   D    
