data_mof_unit_24273.cif
_audit_creation_date              2012-12-11T17:34:16-0500
_audit_creation_method            fapswitch 2.2
_symmetry_space_group_name_H-M    P1
_symmetry_Int_Tables_number       1
_space_group_crystal_system       triclinic
_cell_length_a                    23.648612
_cell_length_b                    7.255559
_cell_length_c                    20.995445
_cell_angle_alpha                 89.997103
_cell_angle_beta                  104.93125
_cell_angle_gamma                 90.002366
_cell_volume                      3480.84506423

loop_
_atom_site_label
_atom_site_type_symbol
_atom_type_description
_atom_site_fract_x
_atom_site_fract_y
_atom_site_fract_z
_atom_type_partial_charge
O1    O     O_R   0.449110 0.494310 0.552140 -0.535701
O2    O     O_R   0.550890 0.994310 0.447860 -0.535698
O3    O     O_R   0.440010 0.824420 0.415850 -0.534697
O4    O     O_R   0.559990 0.324420 0.584150 -0.534658
C1    C     C_R   0.425340 0.655466 0.391867 0.676163
C2    C     C_R   0.574659 0.155455 0.608136 0.676081
O5    O     O_R   0.442260 0.824040 0.549660 -0.537366
O6    O     O_R   0.557740 0.324040 0.450340 -0.537397
O7    O     O_R   0.553160 0.993960 0.582620 -0.532647
O8    O     O_R   0.446840 0.493960 0.417380 -0.532653
C3    C     C_R   0.426874 0.655756 0.565528 0.684559
C4    C     C_R   0.573133 0.155774 0.434480 0.684506
O9    O     O_3   0.536380 0.660670 0.510660 -0.379737
O10   O     O_3   0.463620 0.160670 0.489340 -0.379781
V1    V     V_3+5 0.493250 0.935680 0.498020 1.383682
V2    V     V_3+5 0.506750 0.435680 0.501980 1.383778
C5    C     C_R   0.802253 0.959647 0.151255 -0.158630
C6    C     C_R   0.197907 0.459953 0.849021 -0.158503
H1    H     H_    0.769659 0.858022 0.154632 0.110284
H2    H     H_    0.230657 0.358635 0.845883 0.110072
C7    C     C_R   0.839507 0.927987 0.109373 0.079728
C8    C     C_R   0.160672 0.428479 0.890938 0.079638
C9    C     C_R   0.883950 0.062386 0.107715 -0.074533
C10   C     C_R   0.116034 0.562412 0.892292 -0.074445
C11   C     C_R   0.886232 0.223500 0.146427 -0.188460
C12   C     C_R   0.113542 0.723011 0.853281 -0.188226
H3    H     H_    0.918709 0.329113 0.146907 0.132208
H4    H     H_    0.080907 0.828251 0.852588 0.132078
C13   C     C_R   0.847994 0.251571 0.186369 -0.159777
C14   C     C_R   0.151776 0.750983 0.813323 -0.159483
H5    H     H_    0.851762 0.375954 0.215723 0.119466
H6    H     H_    0.147856 0.874968 0.783738 0.119517
C15   C     C_R   0.806135 0.119277 0.189342 0.104547
C16   C     C_R   0.193829 0.619079 0.810634 0.104412
C17   C     C_1   0.768263 0.141592 0.233282 -0.054856
C18   C     C_1   0.231718 0.641294 0.766705 -0.054991
C19   C     C_1   0.736658 0.149792 0.270431 -0.052667
C20   C     C_1   0.263337 0.649475 0.729569 -0.052641
C21   C     C_R   0.671910 0.980342 0.327447 0.113679
C22   C     C_R   0.328120 0.480132 0.672569 0.113663
C23   C     C_R   0.630400 0.985575 0.365508 -0.229064
C24   C     C_R   0.369635 0.485450 0.634515 -0.229094
H7    H     H_    0.606891 0.860878 0.370858 0.125348
H8    H     H_    0.393163 0.360794 0.629173 0.125375
C25   C     C_R   0.620081 0.149612 0.397503 -0.090580
C26   C     C_R   0.379931 0.649514 0.602513 -0.090629
C27   C     C_R   0.656920 0.304073 0.394992 0.078621
C28   C     C_R   0.343060 0.803888 0.605003 0.078633
C29   C     C_R   0.693439 0.300213 0.351824 -0.226208
C30   C     C_R   0.306540 0.799962 0.648169 -0.226118
H9    H     H_    0.720604 0.415821 0.349091 0.149112
H10   H     H_    0.279344 0.915498 0.650879 0.148924
C31   C     C_R   0.698938 0.144677 0.315508 0.084822
C32   C     C_R   0.301069 0.644420 0.684501 0.084802
C33   C     C_R   0.632339 0.109513 0.790889 -0.158961
C34   C     C_R   0.367620 0.611184 0.209069 -0.158990
H11   H     H_    0.547528 0.130028 0.723619 0.101513
H12   H     H_    0.452440 0.631517 0.276332 0.101511
H13   H     H_    0.710070 0.099451 0.903220 0.118105
H14   H     H_    0.289854 0.602331 0.096754 0.118015
H15   H     H_    0.614179 0.103998 0.833285 0.109930
H16   H     H_    0.385761 0.606449 0.166651 0.109939
C35   C     C_R   0.616329 0.144725 0.673535 -0.029526
C36   C     C_R   0.383661 0.644855 0.326476 -0.029474
C37   C     C_R   0.901930 0.060309 0.773228 -0.212571
C38   C     C_R   0.098083 0.559370 0.226776 -0.212505
C39   C     C_R   0.865853 0.044831 0.709723 0.213768
C40   C     C_R   0.134184 0.543495 0.290252 0.213755
C41   C     C_R   0.804762 0.028758 0.700164 0.176086
C42   C     C_R   0.195279 0.527829 0.299764 0.176052
C43   C     C_R   0.778936 0.070011 0.753201 -0.011862
C44   C     C_R   0.221070 0.569991 0.246773 -0.011825
C45   C     C_R   0.816809 0.075323 0.819325 0.014733
C46   C     C_R   0.183175 0.575885 0.180670 0.014616
C47   C     C_R   0.716817 0.100274 0.743310 0.090750
C48   C     C_R   0.283175 0.600585 0.256679 0.090715
C49   C     C_R   0.693032 0.099177 0.798599 0.102322
C50   C     C_R   0.306935 0.600491 0.201373 0.102372
C51   C     C_R   0.729550 0.094265 0.861748 -0.192724
C52   C     C_R   0.270397 0.596287 0.138230 -0.192614
C53   C     C_R   0.790300 0.093233 0.873050 0.137501
C54   C     C_R   0.209651 0.594892 0.126959 0.137186
C55   C     C_R   0.677269 0.139575 0.681084 -0.226260
C56   C     C_R   0.322730 0.639303 0.318950 -0.226254
C57   C     C_R   0.594298 0.126923 0.728674 -0.154994
C58   C     C_R   0.405677 0.628025 0.271296 -0.155105
C59   C     C_R   0.879236 0.061046 0.828208 -0.108870
C60   C     C_R   0.120761 0.561013 0.171790 -0.108879
H17   H     H_    0.692762 0.168179 0.638178 0.122000
H18   H     H_    0.307248 0.667231 0.361909 0.121963
H19   H     H_    0.949047 0.061548 0.780315 0.114875
H20   H     H_    0.050966 0.560184 0.219705 0.114858
O11   O     O_R   0.053190 0.709680 0.082610 -0.533423
O12   O     O_R   0.946810 0.209680 0.917390 -0.533385
O13   O     O_R   0.057740 0.380240 0.950340 -0.548150
O14   O     O_R   0.942260 0.880240 0.049660 -0.548231
C61   C     C_R   0.071815 0.548442 0.932692 0.674722
C62   C     C_R   0.928180 0.048426 0.067310 0.674892
O15   O     O_R   0.060000 0.379940 0.084150 -0.535975
O16   O     O_R   0.940000 0.879940 0.915850 -0.535933
O17   O     O_R   0.949110 0.210100 0.052140 -0.533068
O18   O     O_R   0.050890 0.710100 0.947860 -0.532986
C63   C     C_R   0.075889 0.549314 0.107587 0.714446
C64   C     C_R   0.924110 0.049312 0.892412 0.714608
O19   O     O_3   0.963630 0.543720 0.989330 -0.376251
O20   O     O_3   0.036370 0.043720 0.010670 -0.376212
V3    V     V_3+5 0.006750 0.268680 0.001980 1.387071
V4    V     V_3+5 0.993250 0.768680 0.998020 1.386986
C65   C     C_3   0.771002 0.935274 0.637569 -0.835699
H21   H     H_    0.729593 0.874238 0.642944 0.222042
H22   H     H_    0.762942 0.032426 0.595318 0.204800
H23   H     H_    0.796128 0.815698 0.626542 0.219686
C66   C     C_3   0.229090 0.433771 0.362209 -0.835793
H24   H     H_    0.270505 0.373075 0.356713 0.222102
H25   H     H_    0.237144 0.530431 0.404600 0.204807
H26   H     H_    0.204008 0.313883 0.373083 0.219768
C67   C     C_3   0.893814 0.035805 0.652696 -0.784072
H27   H     H_    0.940864 0.074143 0.668008 0.200683
H28   H     H_    0.890830 0.894162 0.632215 0.209943
H29   H     H_    0.871583 0.133660 0.613556 0.210953
C68   C     C_3   0.106247 0.533523 0.347282 -0.784069
H30   H     H_    0.059184 0.571709 0.332041 0.200692
H31   H     H_    0.109287 0.391641 0.367565 0.209970
H32   H     H_    0.128452 0.631039 0.386554 0.210926
C69   C     C_3   0.824028 0.112098 0.943576 -0.781257
H33   H     H_    0.847982 0.982204 0.958764 0.199716
H34   H     H_    0.853003 0.234172 0.949593 0.221834
H35   H     H_    0.795567 0.134435 0.977419 0.191588
C70   C     C_3   0.175887 0.614556 0.056479 -0.780079
H36   H     H_    0.151954 0.484736 0.041145 0.199024
H37   H     H_    0.146902 0.736565 0.050660 0.222326
H38   H     H_    0.204311 0.637391 0.022627 0.191133
C71   C     C_3   0.829727 0.747596 0.070565 -0.373295
C72   C     C_3   0.766883 0.727407 0.026673 -0.332584
C73   C     C_3   0.760268 0.551494 0.985489 -0.747390
H39   H     H_    0.790197 0.554048 0.952479 0.235983
H40   H     H_    0.770269 0.429299 0.018328 0.231414
H41   H     H_    0.714601 0.539663 0.954636 0.217773
H42   H     H_    0.734877 0.721011 0.057053 0.193039
H43   H     H_    0.755513 0.847108 0.993013 0.205879
H44   H     H_    0.858816 0.729144 0.038024 0.209400
H45   H     H_    0.838907 0.631696 0.106401 0.174227
C74   C     C_3   0.170722 0.248907 0.930218 -0.373077
C75   C     C_3   0.233618 0.230137 0.974100 -0.332704
C76   C     C_3   0.240461 0.055670 0.016072 -0.746974
H46   H     H_    0.210512 0.059178 0.049052 0.236000
H47   H     H_    0.230655 0.932365 0.983774 0.230954
H48   H     H_    0.286137 0.045085 0.046993 0.217754
H49   H     H_    0.265561 0.222644 0.943665 0.192938
H50   H     H_    0.244933 0.350990 0.007213 0.205904
H51   H     H_    0.141685 0.230995 0.962854 0.209118
H52   H     H_    0.161666 0.132209 0.894715 0.174465
C77   C     C_3   0.689829 0.800358 0.301921 -0.372104
C78   C     C_3   0.755121 0.756625 0.334767 -0.278598
C79   C     C_3   0.782782 0.635937 0.291164 -0.789597
H53   H     H_    0.819625 0.555550 0.322304 0.217248
H54   H     H_    0.750483 0.539253 0.260838 0.234658
H55   H     H_    0.800480 0.723533 0.257716 0.228038
H56   H     H_    0.782299 0.882535 0.347081 0.203109
H57   H     H_    0.759334 0.688878 0.382955 0.168757
H58   H     H_    0.662020 0.685420 0.311235 0.154375
H59   H     H_    0.682241 0.811296 0.247528 0.183041
C80   C     C_3   0.310225 0.300105 0.698096 -0.371924
C81   C     C_3   0.244919 0.256370 0.665309 -0.278769
C82   C     C_3   0.217286 0.136048 0.709034 -0.789495
H60   H     H_    0.180129 0.056656 0.678019 0.217206
H61   H     H_    0.249488 0.038543 0.739043 0.234672
H62   H     H_    0.200052 0.223838 0.742805 0.228245
H63   H     H_    0.217745 0.382263 0.652926 0.203159
H64   H     H_    0.240663 0.188356 0.617164 0.168744
H65   H     H_    0.338017 0.185185 0.688736 0.154357
H66   H     H_    0.317861 0.310988 0.752498 0.183062
C83   C     C_3   0.663509 0.467622 0.441434 -0.339439
C84   C     C_3   0.689939 0.407116 0.512991 -0.287849
C85   C     C_3   0.693810 0.568431 0.560051 -0.765814
H67   H     H_    0.716999 0.684502 0.543469 0.226364
H68   H     H_    0.649410 0.614469 0.561361 0.253499
H69   H     H_    0.718149 0.526112 0.610504 0.217477
H70   H     H_    0.663488 0.296780 0.527756 0.178516
H71   H     H_    0.734685 0.351726 0.517721 0.183990
H72   H     H_    0.693474 0.571545 0.429621 0.150616
H73   H     H_    0.621941 0.544140 0.435103 0.196249
C86   C     C_3   0.336434 0.967361 0.558524 -0.339491
C87   C     C_3   0.310030 0.906686 0.486982 -0.287818
C88   C     C_3   0.306313 0.067780 0.439860 -0.765811
H74   H     H_    0.283270 0.184228 0.456422 0.226459
H75   H     H_    0.350756 0.113258 0.438504 0.253657
H76   H     H_    0.281910 0.025476 0.389430 0.217441
H77   H     H_    0.336427 0.796070 0.472297 0.178366
H78   H     H_    0.265241 0.851610 0.482224 0.184024
H79   H     H_    0.306436 0.071231 0.570300 0.150536
H80   H     H_    0.377985 0.043974 0.564847 0.196286

loop_
_geom_bond_atom_site_label_1
_geom_bond_atom_site_label_2
_ccdc_geom_bond_type
O17   V3    S    
C73   H41   S    
C38   C40   A    
O4    V2    S    
C82   H60   S    
C79   H54   S    
C81   H64   S    
C80   C81   S    
O1    C3    A    
C44   C48   A    
O2    C4    A    
C86   H80   S    
O11   C63   A    
C2    O7    A    
C76   H46   S    
C73   H39   S    
C27   C29   A    
C21   C31   A    
C83   C84   S    
C28   C30   A    
O5    C3    A    
C71   H45   S    
C30   C32   A    
C5    C15   A    
C21   C77   S    
C81   C82   S    
C17   C19   T    
C10   C12   A    
C66   H24   S    
C67   H28   S    
O11   V4    S    
C38   C60   A    
C33   C49   A    
C50   C52   A    
C88   H75   S    
O20   V3    S    
C74   C75   S    
C13   C15   A    
O16   C64   A    
C34   C50   A    
C87   C88   S    
C73   H40   S    
C24   C26   A    
C7    C71   S    
C41   C43   A    
C84   C85   S    
C36   C56   A    
C68   H32   S    
C75   H50   S    
C5    H1    S    
C41   C65   S    
C45   C59   A    
C29   H9    S    
O14   C62   A    
C8    C74   S    
C69   H35   S    
C30   H10   S    
O18   V4    S    
C80   H65   S    
C16   C18   S    
C61   O18   A    
C66   H26   S    
C19   C31   S    
C74   H51   S    
O14   V4    S    
O12   C64   A    
O6    V2    S    
C43   C47   A    
C35   C57   A    
C79   H55   S    
C23   H7    S    
C48   C56   A    
C81   H63   S    
C24   H8    S    
C46   C54   A    
H12   C58   S    
C36   C58   A    
C76   H47   S    
C37   C59   A    
C85   H69   S    
C25   C27   A    
C42   C66   S    
C11   C13   A    
C55   H17   S    
O19   V4    S    
C26   C28   A    
O12   V3    S    
O16   V4    S    
C14   C16   A    
C10   C61   S    
C22   C80   S    
C85   H68   S    
O15   C63   A    
C67   H29   S    
H13   C51   S    
C72   H42   S    
C51   C53   A    
C4    C25   S    
C88   H76   S    
C38   H20   S    
O5    V1    S    
C37   C39   A    
C5    C7    A    
C1    C36   S    
C77   H58   S    
C39   C41   A    
C2    C35   S    
C33   C57   A    
C86   C87   S    
C78   H57   S    
C75   H49   S    
C80   H66   S    
C47   C49   A    
C34   C58   A    
C85   H67   S    
C20   C32   S    
O6    C4    A    
C68   H30   S    
C49   C51   A    
O1    V2    S    
C54   C70   S    
O2    V1    S    
C39   C67   S    
C78   C79   S    
C27   C83   S    
O13   V3    S    
C45   C53   A    
C44   C46   A    
C74   H52   S    
C83   H73   S    
C12   C14   A    
C82   H62   S    
C22   C32   A    
C7    C9    A    
C71   C72   S    
C8    C10   A    
C65   H23   S    
O4    C2    A    
C18   C20   T    
C84   H71   S    
C60   C63   S    
O3    V1    S    
C76   H48   S    
C43   C45   A    
C70   H36   S    
C56   H18   S    
C37   H19   S    
H14   C52   S    
C87   H78   S    
C53   C69   S    
C6    C8    A    
C12   H4    S    
C48   C50   A    
C75   C76   S    
O3    C1    A    
C86   H79   S    
C40   C68   S    
C28   C86   S    
C42   C44   A    
O13   C61   A    
C72   C73   S    
C72   H43   S    
C11   H3    S    
C62   O17   A    
O15   V3    S    
C71   H44   S    
C77   H59   S    
C70   H38   S    
C65   H22   S    
O7    V1    S    
C1    O8    A    
C13   H5    S    
C34   H16   S    
C65   H21   S    
C14   H6    S    
C47   C55   A    
C88   H74   S    
C69   H33   S    
C66   H25   S    
C6    C16   A    
C29   C31   A    
C33   H15   S    
C22   C24   A    
C15   C17   S    
C52   C54   A    
H11   C57   S    
C6    H2    S    
C9    C11   A    
C68   H31   S    
C83   H72   S    
C59   C64   S    
C78   H56   S    
C9    C62   S    
C21   C23   A    
C82   H61   S    
O9    V2    S    
C35   C55   A    
C79   H53   S    
C69   H34   S    
C40   C42   A    
C23   C25   A    
O10   V1    S    
C3    C26   S    
O8    V2    S    
C46   C60   A    
C77   C78   S    
C67   H27   S    
C84   H70   S    
C87   H77   S    
C70   H37   S    
