data_mof_unit_15355.cif
_audit_creation_date              2012-12-11T14:07:45-0500
_audit_creation_method            fapswitch 2.2
_symmetry_space_group_name_H-M    P1
_symmetry_Int_Tables_number       1
_space_group_crystal_system       triclinic
_cell_length_a                    19.955062
_cell_length_b                    16.981211
_cell_length_c                    15.524497
_cell_angle_alpha                 90.098668
_cell_angle_beta                  52.623173
_cell_angle_gamma                 90.597664
_cell_volume                      4180.13016549

loop_
_atom_site_label
_atom_site_type_symbol
_atom_type_description
_atom_site_fract_x
_atom_site_fract_y
_atom_site_fract_z
_atom_type_partial_charge
C1    C     C_R   0.355970 0.188230 0.024951 -0.096894
C2    C     C_R   0.703113 0.846799 0.994201 0.123053
C3    C     C_R   0.152251 0.684199 0.071187 0.107478
C4    C     C_R   0.203078 0.346763 0.994263 0.123033
C5    C     C_R   0.601173 0.814274 0.702237 0.067915
C6    C     C_R   0.694603 0.134573 0.677511 0.067432
C7    C     C_R   0.101173 0.314272 0.702241 0.067925
C8    C     C_R   0.194606 0.634562 0.677503 0.067427
C9    C     C_3   0.229585 0.136991 0.529436 0.330487
C10   C     C_3   0.249414 0.779715 0.458462 0.347196
C11   C     C_3   0.729559 0.636978 0.529439 0.330489
C12   C     C_R   0.338751 0.826905 0.055846 -0.125686
C13   C     C_3   0.749412 0.279619 0.458363 0.347239
C14   C     C_3   0.162223 0.180670 0.633669 -0.544636
C15   C     C_3   0.195993 0.731025 0.562740 -0.512005
C16   C     C_3   0.662205 0.680664 0.633671 -0.544612
C17   C     C_3   0.695988 0.230939 0.562651 -0.512032
C18   C     C_3   0.297890 0.264695 0.424350 -0.439124
C19   C     C_3   0.368730 0.782473 0.476262 -0.432116
C20   C     C_3   0.797877 0.764675 0.424341 -0.439130
C21   C     C_3   0.868618 0.282588 0.476358 -0.432176
C22   C     C_3   0.671560 0.705216 0.442848 0.362715
C23   C     C_R   0.856012 0.688259 0.024884 -0.096925
C24   C     C_3   0.860318 0.174089 0.370581 0.360321
C25   C     C_3   0.171584 0.205221 0.442842 0.362723
C26   C     C_3   0.360206 0.674076 0.370550 0.360344
C27   C     C_3   0.255198 0.186760 0.427772 0.104281
C28   C     C_3   0.344923 0.763579 0.399344 0.093728
C29   C     C_3   0.755175 0.686744 0.427771 0.104303
C30   C     C_3   0.844922 0.263588 0.399352 0.093715
C31   C     C_3   0.652679 0.765556 0.605173 0.294245
C32   C     C_3   0.752918 0.179060 0.575877 0.280456
C33   C     C_3   0.152688 0.265560 0.605175 0.294253
C34   C     C_R   0.838750 0.326904 0.055844 -0.125640
C35   C     C_3   0.252922 0.679044 0.575864 0.280485
C36   C     C_3   0.740964 0.806577 0.532264 -0.389125
C37   C     C_3   0.814426 0.232541 0.580169 -0.411022
C38   C     C_3   0.240968 0.306591 0.532275 -0.389133
C39   C     C_3   0.314535 0.732424 0.580077 -0.411003
C40   C     C_R   0.398911 0.800158 0.208719 -0.166441
C41   C     C_R   0.356680 0.177976 0.222944 -0.091258
C42   C     C_R   0.898910 0.300159 0.208724 -0.166315
C43   C     C_R   0.856657 0.677958 0.222940 -0.091280
C44   C     C_3   0.614982 0.759277 0.542771 -0.540275
C45   C     C_R   0.664543 0.913316 0.058924 -0.154367
C46   C     C_3   0.807128 0.124033 0.475936 -0.538799
C47   C     C_3   0.114995 0.259276 0.542768 -0.540284
C48   C     C_3   0.307026 0.624014 0.475895 -0.538813
C49   C     C_2   0.199033 0.735903 0.092591 -0.213551
C50   C     C_2   0.262688 0.298282 0.991742 -0.179707
C51   C     C_2   0.699016 0.235911 0.092612 -0.213528
C52   C     C_2   0.762745 0.798326 0.991646 -0.179694
C53   C     C_2   0.706086 0.313885 0.074909 -0.135054
C54   C     C_2   0.749475 0.720215 0.002180 -0.105196
C55   C     C_2   0.206091 0.813878 0.074907 -0.135035
C56   C     C_R   0.634952 0.104991 0.102186 -0.168529
C57   C     C_2   0.249405 0.220172 0.002296 -0.105072
C58   C     C_R   0.327425 0.912581 0.958155 -0.108147
C59   C     C_R   0.342613 0.100849 0.929769 -0.137294
C60   C     C_R   0.827424 0.412585 0.958159 -0.108160
C61   C     C_R   0.842649 0.600872 0.929712 -0.137339
C62   C     C_R   0.361305 0.080259 0.315818 -0.101555
C63   C     C_R   0.408610 0.891983 0.302325 -0.061833
C64   C     C_R   0.861291 0.580247 0.315815 -0.101530
C65   C     C_R   0.908615 0.391986 0.302322 -0.061997
C66   C     C_R   0.310999 0.169669 0.988864 0.142282
C67   C     C_R   0.164525 0.413297 0.058957 -0.154345
C68   C     C_R   0.285074 0.852814 0.035514 0.138870
C69   C     C_R   0.811062 0.669712 0.988762 0.142311
C70   C     C_R   0.785073 0.352816 0.035514 0.138861
C71   C     C_R   0.391285 0.813824 0.302014 0.118745
C72   C     C_R   0.316603 0.145361 0.325571 0.069683
C73   C     C_R   0.891286 0.313828 0.302018 0.118888
C74   C     C_R   0.816576 0.645341 0.325568 0.069672
C75   C     C_R   0.623590 0.200728 0.011037 0.001631
C76   C     C_R   0.658089 0.820495 0.958314 -0.012704
C77   C     C_R   0.123599 0.700725 0.011027 0.001636
C78   C     C_R   0.134960 0.604987 0.102178 -0.168536
C79   C     C_R   0.158065 0.320467 0.958358 -0.012690
C80   C     C_R   0.590983 0.800119 0.796332 -0.117492
C81   C     C_R   0.652796 0.168444 0.779537 -0.169690
C82   C     C_R   0.090988 0.300119 0.796332 -0.117542
C83   C     C_R   0.152799 0.668442 0.779527 -0.169694
C84   C     C_R   0.642874 0.075532 0.685661 -0.120371
C85   C     C_R   0.588291 0.892880 0.699300 -0.159883
C86   C     C_R   0.142870 0.575527 0.685661 -0.120387
C87   C     C_R   0.088286 0.392877 0.699305 -0.159892
C88   C     C_2   0.607131 0.277492 0.983554 0.394598
C89   C     C_R   0.652238 0.184205 0.071202 0.107452
C90   C     C_2   0.674150 0.750536 0.892631 0.470889
C91   C     C_2   0.107161 0.777490 0.983518 0.394591
C92   C     C_2   0.174093 0.250485 0.892724 0.470833
H1    H     H_    0.356146 0.243206 0.059472 0.085869
H2    H     H_    0.651346 0.193363 0.559652 0.151355
H3    H     H_    0.100762 0.148501 0.677443 0.145811
H4    H     H_    0.151282 0.693519 0.559794 0.151375
H5    H     H_    0.181079 0.180900 0.687886 0.220012
H6    H     H_    0.156731 0.770179 0.634266 0.197044
H7    H     H_    0.681064 0.680892 0.687884 0.219991
H8    H     H_    0.656653 0.270090 0.634158 0.197037
H9    H     H_    0.360276 0.253757 0.405941 0.183724
H10   H     H_    0.358466 0.845266 0.500397 0.169322
H11   H     H_    0.860263 0.753730 0.405927 0.183724
H12   H     H_    0.327698 0.780619 0.110543 0.093342
H13   H     H_    0.858259 0.345383 0.500491 0.169364
H14   H     H_    0.770583 0.806666 0.574209 0.189111
H15   H     H_    0.779744 0.273464 0.649918 0.184004
H16   H     H_    0.270584 0.306686 0.574225 0.189075
H17   H     H_    0.279937 0.773340 0.649848 0.183976
H18   H     H_    0.636971 0.648556 0.459592 0.089535
H19   H     H_    0.837695 0.158894 0.322384 0.063075
H20   H     H_    0.137003 0.148557 0.459578 0.089543
H21   H     H_    0.337501 0.658960 0.322425 0.063053
H22   H     H_    0.549826 0.734327 0.596429 0.158785
H23   H     H_    0.856202 0.743238 0.059390 0.085836
H24   H     H_    0.766915 0.083285 0.468797 0.137906
H25   H     H_    0.049843 0.234318 0.596420 0.158779
H26   H     H_    0.266741 0.583338 0.468794 0.137893
H27   H     H_    0.610433 0.818897 0.517303 0.179083
H28   H     H_    0.847769 0.086745 0.485492 0.189265
H29   H     H_    0.110440 0.318895 0.517304 0.179085
H30   H     H_    0.347666 0.586648 0.485373 0.189240
H31   H     H_    0.310772 0.304370 0.358887 0.157838
H32   H     H_    0.436761 0.771969 0.435022 0.185621
H33   H     H_    0.810759 0.804349 0.358877 0.157830
H34   H     H_    0.827699 0.280617 0.110540 0.093353
H35   H     H_    0.936651 0.272170 0.435196 0.185588
H36   H     H_    0.396884 0.743627 0.178312 0.096553
H37   H     H_    0.343975 0.234071 0.204031 0.110719
H38   H     H_    0.896873 0.243626 0.178330 0.096353
H39   H     H_    0.843936 0.734043 0.204025 0.110762
H40   H     H_    0.736154 0.869163 0.515519 0.158669
H41   H     H_    0.855607 0.195940 0.589509 0.171679
H42   H     H_    0.236152 0.369177 0.515533 0.158680
H43   H     H_    0.355716 0.695741 0.589337 0.171658
H44   H     H_    0.241999 0.705258 0.101344 0.127467
H45   H     H_    0.201652 0.079888 0.529430 0.096337
H46   H     H_    0.317651 0.325943 0.978342 0.124354
H47   H     H_    0.741973 0.205267 0.101382 0.127459
H48   H     H_    0.817702 0.825992 0.978255 0.124362
H49   H     H_    0.660453 0.346896 0.074563 0.169795
H50   H     H_    0.692583 0.692287 0.021981 0.123559
H51   H     H_    0.160449 0.846889 0.074575 0.169776
H52   H     H_    0.192512 0.192249 0.022098 0.123603
H53   H     H_    0.304753 0.944523 0.920672 0.121912
H54   H     H_    0.327424 0.074379 0.880128 0.121430
H55   H     H_    0.804749 0.444536 0.920685 0.121904
H56   H     H_    0.232939 0.760127 0.404795 0.082886
H57   H     H_    0.827468 0.574399 0.880064 0.121405
H58   H     H_    0.349765 0.040379 0.377388 0.167895
H59   H     H_    0.415746 0.922189 0.357602 0.084735
H60   H     H_    0.849747 0.540366 0.377384 0.167863
H61   H     H_    0.915771 0.422193 0.357579 0.084713
H62   H     H_    0.575994 0.743220 0.834643 0.083690
H63   H     H_    0.673679 0.218299 0.799882 0.149031
H64   H     H_    0.076003 0.243220 0.834641 0.083710
H65   H     H_    0.173680 0.718312 0.799852 0.149013
H66   H     H_    0.651876 0.040458 0.621574 0.089811
H67   H     H_    0.701618 0.579878 0.529439 0.096265
H68   H     H_    0.584358 0.922799 0.641111 0.092391
H69   H     H_    0.151862 0.540444 0.621588 0.089830
H70   H     H_    0.084350 0.422794 0.641117 0.092390
H71   H     H_    0.681135 0.943523 0.105021 0.105818
H72   H     H_    0.641100 0.076978 0.159539 0.103602
H73   H     H_    0.181109 0.443498 0.105067 0.105820
H74   H     H_    0.141110 0.576973 0.159527 0.103605
H75   H     H_    0.707799 0.792067 0.339529 0.312255
H76   H     H_    0.965172 0.155406 0.352572 0.333607
H77   H     H_    0.207819 0.292075 0.339528 0.312258
H78   H     H_    0.733017 0.259950 0.404640 0.082840
H79   H     H_    0.465101 0.655228 0.352384 0.333583
H80   H     H_    0.543789 0.290866 0.011516 0.016011
H81   H     H_    0.623819 0.708060 0.920882 -0.011343
H82   H     H_    0.043829 0.790867 0.011446 0.016002
H83   H     H_    0.123732 0.208043 0.920988 -0.011343
H84   H     H_    0.318683 0.168200 0.542632 0.346893
H85   H     H_    0.235937 0.878044 0.534373 0.328478
H86   H     H_    0.818665 0.668176 0.542624 0.346898
H87   H     H_    0.735761 0.377997 0.534277 0.328454
H88   H     H_    0.600740 0.648502 0.677450 0.145799
N1    N     N_R   0.408680 0.130160 0.995800 -0.049343
N2    N     N_R   0.403730 0.078230 0.935950 -0.047042
N3    N     N_R   0.903730 0.421770 0.935950 -0.047264
N4    N     N_R   0.903730 0.578230 0.935950 -0.047032
N5    N     N_R   0.426630 0.075970 0.212960 -0.052483
N6    N     N_R   0.426630 0.924030 0.212960 -0.044281
N7    N     N_R   0.926630 0.575970 0.212960 -0.052479
N8    N     N_R   0.926630 0.424030 0.212960 -0.044261
N9    N     N_R   0.591320 0.134600 0.004200 -0.079643
N10   N     N_R   0.591320 0.865400 0.004200 -0.081307
N11   N     N_R   0.091320 0.634600 0.004200 -0.079643
N12   N     N_R   0.408680 0.869840 0.995800 -0.047393
N13   N     N_R   0.091320 0.365400 0.004200 -0.081314
N14   N     N_R   0.578320 0.867660 0.846880 -0.047365
N15   N     N_R   0.578320 0.132340 0.846880 -0.046594
N16   N     N_R   0.078320 0.367660 0.846880 -0.047364
N17   N     N_R   0.078320 0.632340 0.846880 -0.046593
N18   N     N_R   0.573370 0.074390 0.787040 -0.037568
N19   N     N_R   0.573370 0.925610 0.787040 -0.035146
N20   N     N_R   0.073370 0.574390 0.787040 -0.037569
N21   N     N_R   0.073370 0.425610 0.787040 -0.035148
N22   N     N_R   0.596270 0.927870 0.064040 -0.045898
N23   N     N_R   0.908680 0.630160 0.995800 -0.049327
N24   N     N_R   0.596270 0.072130 0.064040 -0.042228
N25   N     N_R   0.096270 0.427870 0.064040 -0.045897
N26   N     N_R   0.096270 0.572130 0.064040 -0.042229
N27   N     N_R   0.908680 0.369840 0.995800 -0.047399
N28   N     N_R   0.421680 0.867580 0.153120 -0.040748
N29   N     N_R   0.421680 0.132420 0.153120 -0.061927
N30   N     N_R   0.921680 0.367580 0.153120 -0.040730
N31   N     N_R   0.921680 0.632420 0.153120 -0.061930
N32   N     N_R   0.403730 0.921770 0.935950 -0.047268
Ni1   Ni    Ni4+2 0.500000 0.131190 0.000000 0.202809
Ni2   Ni    Ni4+2 0.500000 0.868810 0.000000 0.209812
Ni3   Ni    Ni4+2 1.000000 0.631190 0.000000 0.202799
Ni4   Ni    Ni4+2 1.000000 0.368810 0.000000 0.209803
Ni5   Ni    Ni4+2 0.488650 1.000000 0.862740 0.221005
Ni6   Ni    Ni4+2 0.988650 0.500000 0.862740 0.220995
Ni7   Ni    Ni4+2 0.511350 1.000000 0.137260 0.215812
Ni8   Ni    Ni4+2 0.011350 0.500000 0.137260 0.215818
O1    O     O_3   0.685393 0.737712 0.349786 -0.751835
O2    O     O_3   0.229392 0.860362 0.478930 -0.741026
O3    O     O_3   0.798877 0.619364 0.528945 -0.755442
O4    O     O_3   0.729302 0.360251 0.478780 -0.740985
O5    O     O_3   0.946602 0.155297 0.306096 -0.744019
O6    O     O_3   0.185419 0.237718 0.349779 -0.751818
O7    O     O_3   0.446472 0.655199 0.305972 -0.744054
O8    O     O_2   0.664874 0.323202 0.921916 -0.602461
O9    O     O_2   0.744602 0.738175 0.809374 -0.580471
O10   O     O_2   0.164915 0.823195 0.921893 -0.602449
O11   O     O_2   0.244547 0.238070 0.809498 -0.580456
O12   O     O_3   0.298903 0.119386 0.528946 -0.755409

loop_
_geom_bond_atom_site_label_1
_geom_bond_atom_site_label_2
_ccdc_geom_bond_type
N5    N29   A    
N31   Ni3   S    
C40   N28   A    
N25   Ni8   S    
N5    Ni7   S    
C88   H80   S    
C40   C71   A    
C59   N2    A    
C8    C83   A    
N20   Ni6   S    
C23   C69   A    
C6    C32   S    
N19   Ni5   S    
C57   C66   S    
C8    C86   A    
C14   C33   S    
C1    N1    A    
C55   C68   S    
C3    C49   S    
C58   H53   S    
C11   H67   S    
C20   H11   S    
C39   H43   S    
N1    N2    A    
C16   C31   S    
C12   C68   A    
C90   H81   S    
C64   H60   S    
C9    O12   S    
N23   Ni3   S    
C22   C29   S    
N21   Ni6   S    
C12   H12   S    
C10   C15   S    
C36   H40   S    
C59   C66   A    
C48   H30   S    
N16   Ni4   S    
C19   H10   S    
C47   H29   S    
N32   Ni5   S    
C53   C70   S    
C61   C69   A    
C40   H36   S    
C25   O6    S    
C65   C73   A    
C15   C35   S    
C46   H24   S    
N12   N32   A    
C65   H61   S    
C25   H20   S    
N11   Ni3   S    
C52   H48   S    
C9    H45   S    
C85   N19   A    
C7    C87   A    
C45   N22   A    
C22   H18   S    
N9    Ni1   S    
C90   O9    D    
C60   H55   S    
H85   O2    S    
C83   N17   A    
C43   N31   A    
C25   C47   S    
C82   N16   A    
N17   Ni3   S    
C26   C48   S    
C18   H31   S    
C20   C29   S    
N15   N18   A    
C41   N29   A    
C67   H73   S    
C43   C74   A    
N4    Ni6   S    
C65   N8    A    
C44   H22   S    
C92   H83   S    
N4    N23   A    
C38   H16   S    
C7    C33   S    
C86   N20   A    
N13   Ni4   S    
C24   H19   S    
N8    N30   A    
C35   C48   S    
N12   Ni2   S    
C52   C54   D    
C18   H9    S    
C39   H17   S    
N7    Ni8   S    
N8    Ni8   S    
C2    C45   A    
C12   N12   A    
C22   O1    S    
C22   C44   S    
C19   H32   S    
C78   H74   S    
C55   H51   S    
C31   C44   S    
C91   O10   D    
C36   H14   S    
C77   N11   A    
C13   C30   S    
C6    C84   A    
C4    C79   A    
C11   O3    S    
C15   H4    S    
C30   C73   S    
C84   H66   S    
N10   N22   A    
C48   H26   S    
C29   C74   S    
N24   Ni7   S    
C92   O11   D    
N26   Ni8   S    
C49   C55   D    
C1    H1    S    
N29   Ni1   S    
C91   H82   S    
C23   N23   A    
C51   C53   D    
C8    C35   S    
C20   C36   S    
N22   Ni7   S    
N17   N20   A    
C35   C39   S    
C9    C14   S    
C78   N26   A    
C2    C52   S    
C81   N15   A    
C11   C16   S    
N14   N19   A    
C83   H65   S    
C60   C70   A    
C26   O7    S    
C34   H34   S    
C63   N6    A    
N3    N27   A    
C87   H70   S    
C1    C66   A    
C46   H28   S    
C42   H38   S    
C86   H69   S    
C32   C37   S    
C5    C80   A    
C19   C28   S    
N10   Ni2   S    
C63   H59   S    
C79   C92   S    
C19   C39   S    
C62   N5    A    
C54   H50   S    
C37   H15   S    
C58   C68   A    
C56   C89   A    
C85   H68   S    
C49   H44   S    
C63   C71   A    
N3    Ni6   S    
C41   C72   A    
C33   C47   S    
C37   H41   S    
H86   O3    S    
C28   C71   S    
C21   H35   S    
C13   O4    S    
C24   O5    S    
C3    C77   A    
C14   H3    S    
H76   O5    S    
C2    C76   A    
C9    C27   S    
C14   H5    S    
C76   C90   S    
N6    Ni7   S    
N7    N31   A    
C10   C28   S    
C34   C70   A    
C77   C91   S    
C61   N4    A    
N28   Ni2   S    
C62   H58   S    
C57   H52   S    
C75   N9    A    
C31   C36   S    
C50   C57   D    
C32   C46   S    
C18   C27   S    
H79   O7    S    
H84   O12   S    
C67   N25   A    
N14   Ni2   S    
C4    C67   A    
N13   N25   A    
C50   H46   S    
C16   H7    S    
C80   H62   S    
C56   N24   A    
C58   N32   A    
C34   N27   A    
C25   C27   S    
C80   N14   A    
C21   C30   S    
C56   H72   S    
C26   C28   S    
C33   C38   S    
C81   H63   S    
N6    N28   A    
H87   O4    S    
C62   C72   A    
C84   N18   A    
C43   H39   S    
C42   N30   A    
C45   H71   S    
C26   H21   S    
C5    C85   A    
C20   H33   S    
C51   C89   S    
C41   H37   S    
C44   H27   S    
C88   O8    D    
C54   C69   S    
C60   N3    A    
N30   Ni4   S    
N27   Ni4   S    
C42   C73   A    
C87   N21   A    
C53   H49   S    
C38   H42   S    
C13   H78   S    
C18   C38   S    
C17   H8    S    
C24   C30   S    
H75   O1    S    
N15   Ni1   S    
C64   N7    A    
C76   N10   A    
C10   O2    S    
C23   H23   S    
C13   C17   S    
N18   Ni5   S    
C59   H54   S    
C75   C88   S    
C47   H25   S    
C7    C82   A    
C21   C37   S    
C11   C29   S    
N2    Ni5   S    
C79   N13   A    
N9    N24   A    
C75   C89   A    
C4    C50   S    
C82   H64   S    
C6    C81   A    
C17   C32   S    
C64   C74   A    
H77   O6    S    
N1    Ni1   S    
C17   H2    S    
C15   H6    S    
N16   N21   A    
C3    C78   A    
C61   H57   S    
N11   N26   A    
C21   H13   S    
C27   C72   S    
C16   H88   S    
C10   H56   S    
C24   C46   S    
C5    C31   S    
C51   H47   S    
