data_mof_unit_53259.cif
_audit_creation_date              2012-12-11T14:52:47-0500
_audit_creation_method            fapswitch 2.2
_symmetry_space_group_name_H-M    P1
_symmetry_Int_Tables_number       1
_space_group_crystal_system       triclinic
_cell_length_a                    18.891824
_cell_length_b                    10.847946
_cell_length_c                    18.800187
_cell_angle_alpha                 90.060942
_cell_angle_beta                  90.901324
_cell_angle_gamma                 90.0692
_cell_volume                      3852.38128562

loop_
_atom_site_label
_atom_site_type_symbol
_atom_type_description
_atom_site_fract_x
_atom_site_fract_y
_atom_site_fract_z
_atom_type_partial_charge
C1    C     C_R   0.288082 0.002236 0.861301 0.538261
C2    C     C_R   0.711278 0.497700 0.044819 -0.139661
C3    C     C_3   0.024451 0.322041 0.064911 0.030121
C4    C     C_1   0.429279 0.986603 0.092204 0.220815
C5    C     C_1   0.503958 0.062909 0.945606 0.199275
C6    C     C_1   0.929292 0.486671 0.092184 0.220795
C7    C     C_1   0.003965 0.562902 0.945594 0.199753
C8    C     C_R   0.800607 0.023192 0.960702 -0.149245
C9    C     C_R   0.211276 0.997691 0.044819 -0.139442
C10   C     C_R   0.290357 0.497411 0.032452 -0.145355
C11   C     C_R   0.722725 0.467053 0.973749 -0.146927
C12   C     C_R   0.790361 0.997431 0.032455 -0.145416
C13   C     C_R   0.222728 0.967035 0.973750 -0.147018
C14   C     C_R   0.226960 0.532456 0.064956 0.020604
C15   C     C_R   0.772089 0.534528 0.934215 0.019089
C16   C     C_R   0.726964 0.032470 0.064958 0.020643
C17   C     C_R   0.712236 0.002830 0.138714 0.536043
C18   C     C_R   0.272112 0.034482 0.934223 0.018281
C19   C     C_R   0.174144 0.591977 0.025241 -0.154235
C20   C     C_R   0.809512 0.631747 0.965837 -0.131786
C21   C     C_R   0.674147 0.091987 0.025243 -0.154147
C22   C     C_R   0.309556 0.131672 0.965854 -0.131246
C23   C     C_R   0.183763 0.615304 0.954275 -0.142974
C24   C     C_R   0.798027 0.661901 0.035088 -0.120244
C25   C     C_R   0.683764 0.115309 0.954275 -0.143012
C26   C     C_R   0.298064 0.161841 0.035101 -0.120089
C27   C     C_R   0.247315 0.583687 0.921518 0.023309
C28   C     C_R   0.788072 0.502260 0.861302 0.534949
C29   C     C_R   0.750005 0.594562 0.075756 0.041248
C30   C     C_R   0.747316 0.083690 0.921518 0.023172
C31   C     C_R   0.250016 0.094537 0.075761 0.041265
C32   C     C_R   0.472008 0.722964 0.529266 -0.129561
C33   C     C_R   0.477770 0.726960 0.456592 -0.137356
C34   C     C_R   0.972924 0.221997 0.529202 -0.123637
C35   C     C_R   0.978514 0.225477 0.456507 -0.133484
C36   C     C_R   0.501374 0.834449 0.423919 0.033288
C37   C     C_R   0.486579 0.827996 0.570856 0.031788
C38   C     C_R   0.999709 0.334083 0.423231 0.031517
C39   C     C_R   0.212234 0.502823 0.138715 0.536124
C40   C     C_R   0.984835 0.328614 0.570186 0.037009
C41   C     C_R   0.513752 0.941495 0.464598 -0.136327
C42   C     C_R   0.506510 0.938141 0.538165 -0.152025
C43   C     C_R   0.008485 0.442908 0.463158 -0.139159
C44   C     C_R   0.000811 0.440222 0.536700 -0.146961
C45   C     C_R   0.441122 0.817586 0.863099 0.540188
C46   C     C_R   0.555952 0.817261 0.136650 0.538726
C47   C     C_R   0.941119 0.317585 0.863099 0.538900
C48   C     C_R   0.055946 0.317263 0.136650 0.538501
C49   C     C_R   0.184951 0.615231 0.540065 -0.135722
C50   C     C_3   0.531786 0.743547 0.960135 -0.109518
C51   C     C_R   0.817375 0.589681 0.455771 -0.132978
C52   C     C_R   0.685886 0.119478 0.539172 -0.130907
C53   C     C_R   0.325667 0.083446 0.451624 -0.123917
C54   C     C_R   0.182626 0.616381 0.467627 -0.131227
C55   C     C_R   0.823217 0.584518 0.528319 -0.125489
C56   C     C_R   0.684125 0.121461 0.466774 -0.129215
C57   C     C_R   0.336734 0.055892 0.522530 -0.131631
C58   C     C_R   0.240159 0.571920 0.429050 0.037898
C59   C     C_R   0.762930 0.562896 0.569304 0.037400
C60   C     C_R   0.741005 0.073915 0.428518 0.036680
C61   C     C_3   0.490662 0.709435 0.027573 -0.111572
C62   C     C_R   0.281601 0.007186 0.562272 0.027011
C63   C     C_R   0.300905 0.528068 0.464275 -0.136000
C64   C     C_R   0.697337 0.539522 0.536898 -0.135757
C65   C     C_R   0.801142 0.028130 0.464037 -0.134981
C66   C     C_R   0.217411 0.973757 0.528493 -0.125847
C67   C     C_R   0.304734 0.533533 0.537755 -0.131583
C68   C     C_R   0.691118 0.547521 0.463800 -0.130827
C69   C     C_R   0.804765 0.033705 0.537539 -0.134136
C70   C     C_R   0.205482 0.004816 0.457681 -0.136083
C71   C     C_R   0.247676 0.582391 0.575302 0.039105
C72   C     C_3   0.031770 0.243534 0.960142 -0.108992
C73   C     C_R   0.750694 0.579116 0.423784 0.032673
C74   C     C_R   0.747913 0.083903 0.574828 0.035625
C75   C     C_R   0.258324 0.066593 0.420381 0.030285
C76   C     C_R   0.260510 0.635642 0.851580 0.535245
C77   C     C_R   0.738939 0.637468 0.147800 0.548827
C78   C     C_R   0.760509 0.135641 0.851579 0.532161
C79   C     C_R   0.238940 0.137464 0.147801 0.548759
C80   C     C_R   0.291442 0.994410 0.638744 0.570576
C81   C     C_R   0.727719 0.044425 0.355095 0.558480
C82   C     C_R   0.773525 0.541362 0.643799 0.557943
C83   C     C_3   0.990641 0.209447 0.027581 -0.111938
C84   C     C_R   0.227489 0.543900 0.355332 0.559382
C85   C     C_R   0.468105 0.823086 0.645507 0.548692
C86   C     C_R   0.529285 0.824248 0.352729 0.561798
C87   C     C_R   0.967390 0.323127 0.645114 0.560815
C88   C     C_R   0.028897 0.324211 0.352495 0.562473
C89   C     C_R   0.259243 0.633414 0.644915 0.546779
C90   C     C_R   0.740425 0.633356 0.355005 0.557429
C91   C     C_R   0.759289 0.133649 0.644787 0.553110
C92   C     C_R   0.241215 0.132818 0.355152 0.557373
C93   C     C_3   0.462119 0.902670 0.041372 -0.010158
C94   C     C_R   0.300604 0.523181 0.960700 -0.148765
C95   C     C_3   0.502548 0.937064 0.974134 -0.006383
C96   C     C_3   0.962118 0.402693 0.041369 -0.010215
C97   C     C_3   0.002551 0.437062 0.974129 -0.006220
C98   C     C_3   0.427549 0.791201 0.003334 -0.161608
C99   C     C_3   0.565755 0.856120 0.998075 -0.169133
C100  C     C_3   0.927537 0.291228 0.003336 -0.161673
C101  C     C_3   0.065750 0.356104 0.998076 -0.168854
C102  C     C_3   0.469173 0.825423 0.936228 0.028969
C103  C     C_3   0.524460 0.822033 0.064908 0.030244
C104  C     C_3   0.969166 0.325424 0.936229 0.029376
Cr1   Cr    Cr6+3 0.229630 0.835900 0.747350 1.020996
Cr2   Cr    Cr6+3 0.614200 0.677120 0.250660 1.015799
Cr3   Cr    Cr6+3 0.885800 0.177120 0.749340 1.019424
Cr4   Cr    Cr6+3 0.114200 0.177120 0.250660 1.017477
Cr5   Cr    Cr6+3 0.770370 0.835900 0.252650 1.026800
Cr6   Cr    Cr6+3 0.729630 0.335900 0.747350 1.023881
Cr7   Cr    Cr6+3 0.270370 0.335900 0.252650 1.026692
Cr8   Cr    Cr6+3 0.387410 0.989850 0.750850 1.034303
Cr9   Cr    Cr6+3 0.612590 0.989850 0.249150 1.030322
Cr10  Cr    Cr6+3 0.887410 0.489850 0.750850 1.038051
Cr11  Cr    Cr6+3 0.112590 0.489850 0.249150 1.030207
Cr12  Cr    Cr6+3 0.385800 0.677120 0.749340 1.012711
H1    H     H_    0.370544 0.766328 0.004317 0.118848
H2    H     H_    0.875351 0.596650 0.552075 0.137895
H3    H     H_    0.636378 0.155899 0.441149 0.129208
H4    H     H_    0.387057 0.079257 0.547267 0.129667
H5    H     H_    0.344729 0.489364 0.435264 0.121943
H6    H     H_    0.651198 0.517495 0.567988 0.125694
H7    H     H_    0.844569 0.987582 0.435253 0.123277
H8    H     H_    0.174884 0.931159 0.557644 0.138095
H9    H     H_    0.353181 0.505738 0.564708 0.124105
H10   H     H_    0.639003 0.538155 0.439491 0.137229
H11   H     H_    0.852845 0.004582 0.564713 0.122532
H12   H     H_    0.623209 0.874737 0.995722 0.119564
H13   H     H_    0.153670 0.988552 0.433982 0.128282
H14   H     H_    0.560765 0.677184 0.926305 0.150792
H15   H     H_    0.486462 0.615072 0.049947 0.138334
H16   H     H_    0.060744 0.177155 0.926317 0.151977
H17   H     H_    0.986431 0.115089 0.049960 0.138353
H18   H     H_    0.350798 0.500581 0.936910 0.137416
H19   H     H_    0.673037 0.446347 0.075275 0.132735
H20   H     H_    0.850801 0.000594 0.936911 0.137117
H21   H     H_    0.173017 0.946364 0.075269 0.132675
H22   H     H_    0.332381 0.453179 0.062648 0.129909
H23   H     H_    0.870529 0.266373 0.004321 0.119051
H24   H     H_    0.693731 0.390989 0.949940 0.139022
H25   H     H_    0.832387 0.953208 0.062652 0.129912
H26   H     H_    0.193717 0.890991 0.949936 0.138786
H27   H     H_    0.124373 0.618633 0.048630 0.148378
H28   H     H_    0.848101 0.685863 0.937443 0.163694
H29   H     H_    0.624376 0.118642 0.048631 0.148401
H30   H     H_    0.348163 0.185764 0.937468 0.164010
H31   H     H_    0.142264 0.663923 0.925868 0.170742
H32   H     H_    0.828033 0.738412 0.056857 0.144900
H33   H     H_    0.642264 0.163926 0.925869 0.170649
H34   H     H_    0.123206 0.374711 0.995724 0.119988
H35   H     H_    0.328084 0.238337 0.056873 0.144877
H36   H     H_    0.454886 0.637035 0.552576 0.131058
H37   H     H_    0.467621 0.643395 0.426442 0.125074
H38   H     H_    0.958179 0.135057 0.552996 0.131400
H39   H     H_    0.970588 0.140642 0.426913 0.126664
H40   H     H_    0.532010 0.025658 0.440084 0.122931
H41   H     H_    0.516247 0.020726 0.569254 0.112490
H42   H     H_    0.024475 0.528096 0.438154 0.120703
H43   H     H_    0.007868 0.524203 0.567218 0.112900
H44   H     H_    0.139562 0.650829 0.568036 0.128614
H45   H     H_    0.863981 0.611617 0.425303 0.131221
H46   H     H_    0.640678 0.156538 0.566813 0.130480
H47   H     H_    0.368201 0.127551 0.423169 0.134857
H48   H     H_    0.134190 0.648357 0.442244 0.128991
N1    N     N_1   0.405443 0.051756 0.134174 -0.280797
N2    N     N_1   0.504043 0.162158 0.923125 -0.331243
N3    N     N_1   0.905469 0.551869 0.134138 -0.281034
N4    N     N_1   0.004049 0.662149 0.923110 -0.331280
O1    O     O_R   0.214270 0.709000 0.827470 -0.527821
O2    O     O_R   0.543270 0.717630 0.330160 -0.520546
O3    O     O_R   0.956730 0.217630 0.669840 -0.518841
O4    O     O_R   0.043270 0.217630 0.330160 -0.518237
O5    O     O_R   0.320620 0.625640 0.672920 -0.508366
O6    O     O_R   0.679380 0.625640 0.327080 -0.507181
O7    O     O_R   0.820620 0.125640 0.672920 -0.507661
O8    O     O_R   0.179380 0.125640 0.327080 -0.502034
O9    O     O_3   0.334280 0.834290 0.749180 -0.308085
O10   O     O_3   0.665720 0.834290 0.250820 -0.281721
O11   O     O_3   0.834280 0.334290 0.749180 -0.285888
O12   O     O_R   0.785730 0.709000 0.172530 -0.508576
O13   O     O_3   0.165720 0.334290 0.250820 -0.281465
O14   O     O_R   0.236160 0.958490 0.823130 -0.487953
O15   O     O_R   0.763840 0.958490 0.176870 -0.502896
O16   O     O_R   0.736160 0.458490 0.823130 -0.495339
O17   O     O_R   0.263840 0.458490 0.176870 -0.502763
O18   O     O_R   0.332080 0.075470 0.831280 -0.508068
O19   O     O_R   0.667920 0.075470 0.168720 -0.517086
O20   O     O_R   0.832080 0.575470 0.831280 -0.513841
O21   O     O_R   0.167920 0.575470 0.168720 -0.517088
O22   O     O_R   0.446300 0.918110 0.826620 -0.492254
O23   O     O_R   0.714270 0.209000 0.827470 -0.529017
O24   O     O_R   0.553700 0.918110 0.173380 -0.497826
O25   O     O_R   0.946300 0.418110 0.826620 -0.492304
O26   O     O_R   0.053700 0.418110 0.173380 -0.498224
O27   O     O_R   0.457110 0.716200 0.831760 -0.509289
O28   O     O_R   0.542890 0.716200 0.168240 -0.512244
O29   O     O_R   0.957110 0.216200 0.831760 -0.509597
O30   O     O_R   0.042890 0.216200 0.168240 -0.512755
O31   O     O_R   0.320980 0.624310 0.823030 -0.515188
O32   O     O_R   0.679020 0.624310 0.176970 -0.522993
O33   O     O_R   0.820980 0.124310 0.823030 -0.518536
O34   O     O_R   0.285730 0.209000 0.172530 -0.508586
O35   O     O_R   0.179020 0.124310 0.176970 -0.523308
O36   O     O_R   0.213890 0.710430 0.665540 -0.533250
O37   O     O_R   0.786110 0.710430 0.334460 -0.515672
O38   O     O_R   0.713890 0.210430 0.665540 -0.520699
O39   O     O_R   0.286110 0.210430 0.334460 -0.518329
O40   O     O_R   0.235810 0.959820 0.673020 -0.494392
O41   O     O_R   0.764190 0.959820 0.326980 -0.497135
O42   O     O_R   0.735810 0.459820 0.673020 -0.495506
O43   O     O_R   0.264190 0.459820 0.326980 -0.497126
O44   O     O_R   0.331700 0.076900 0.669350 -0.507676
O45   O     O_R   0.445950 0.919440 0.676520 -0.517875
O46   O     O_R   0.668300 0.076900 0.330650 -0.525637
O47   O     O_R   0.831700 0.576900 0.669350 -0.524302
O48   O     O_R   0.168300 0.576900 0.330650 -0.525411
O49   O     O_R   0.554050 0.919440 0.323480 -0.498733
O50   O     O_R   0.945950 0.419440 0.676520 -0.501752
O51   O     O_R   0.054050 0.419440 0.323480 -0.498847
O52   O     O_R   0.456730 0.717630 0.669840 -0.519966

loop_
_geom_bond_atom_site_label_1
_geom_bond_atom_site_label_2
_ccdc_geom_bond_type
C45   O27   A    
C99   C103  S    
C7    N4    T    
C16   C21   A    
C88   O4    A    
Cr10  O25   S    
C55   C59   A    
C8    H20   S    
C41   C42   A    
C20   H28   S    
Cr7   O39   S    
C81   O41   A    
C61   C98   S    
C59   C82   S    
C89   O5    A    
C11   H24   S    
C43   H42   S    
C93   C103  S    
C84   O43   A    
C57   C62   A    
Cr3   O3    S    
C1    O18   A    
C92   O8    A    
C50   C99   S    
Cr1   O1    S    
C13   C18   A    
C98   H1    S    
C2    C29   A    
C34   C40   A    
Cr8   O44   S    
C40   C87   S    
C37   C85   S    
C26   H35   S    
C61   C103  S    
C85   O52   A    
C35   H39   S    
C73   C90   S    
Cr3   O33   S    
Cr4   O35   S    
C52   C74   A    
C28   O20   A    
Cr8   O18   S    
C85   O45   A    
C39   O21   A    
C95   C99   S    
C3    C101  S    
C72   C101  S    
C10   C94   A    
C49   C54   A    
Cr9   O19   S    
C96   C100  S    
C3    C48   S    
C100  C104  S    
C33   C36   A    
Cr10  O20   S    
C12   H25   S    
C25   H33   S    
C34   C35   A    
C87   O50   A    
C37   C42   A    
C1    C18   S    
C24   C29   A    
C9    C13   A    
C50   H14   S    
C63   H5    S    
C14   C39   S    
Cr12  O27   S    
C9    H21   S    
Cr5   O10   S    
Cr6   O23   S    
C22   H30   S    
C16   C17   S    
C32   H36   S    
C78   O33   A    
C49   H44   S    
C3    C96   S    
C23   C27   A    
Cr1   O14   S    
Cr12  O52   S    
C51   C55   A    
C95   C102  S    
C80   O44   A    
C41   H40   S    
C48   O26   A    
Cr5   O15   S    
Cr9   O10   S    
Cr6   O16   S    
C26   C31   A    
C93   C95   S    
C86   O2    A    
Cr12  O9    S    
Cr2   O2    S    
Cr11  O51   S    
C36   C41   A    
C53   C75   A    
C11   C15   A    
Cr9   O46   S    
Cr10  O50   S    
Cr5   O41   S    
C2    C11   A    
C14   C19   A    
Cr7   O34   S    
Cr9   O49   S    
C5    C95   S    
C72   H16   S    
C9    C31   A    
C34   H38   S    
Cr2   O6    S    
C15   C20   A    
C63   C67   A    
Cr7   O17   S    
C77   O12   A    
C62   C66   A    
C52   C56   A    
C97   C104  S    
C12   C16   A    
C35   C38   A    
C24   H32   S    
C46   O24   A    
Cr3   O29   S    
Cr12  O31   S    
C53   C57   A    
C53   H47   S    
Cr1   O36   S    
Cr2   O28   S    
C72   C104  S    
C36   C86   S    
C68   C73   A    
C5    N2    T    
C23   H31   S    
C70   H13   S    
C101  H34   S    
C82   O47   A    
C48   O30   A    
C86   O49   A    
C21   H29   S    
C74   C91   S    
C19   C23   A    
C43   C44   A    
C100  H23   S    
C58   C84   S    
C51   C73   A    
C90   O37   A    
C60   C81   S    
C17   O15   A    
C81   O46   A    
C71   C89   S    
C8    C12   A    
C79   O34   A    
C87   O3    A    
C96   C97   S    
C59   C64   A    
C91   O7    A    
C69   C74   A    
Cr6   O38   S    
C32   C37   A    
Cr6   O42   S    
Cr5   O37   S    
C52   H46   S    
C75   C92   S    
C57   H4    S    
Cr12  O5    S    
C80   O40   A    
Cr11  O26   S    
C60   C65   A    
C50   C102  S    
C79   O35   A    
C83   C100  S    
Cr4   O4    S    
C49   C71   A    
C56   H3    S    
C66   H8    S    
C42   H41   S    
C27   C76   S    
C64   C68   A    
C68   H10   S    
C70   C75   A    
C91   O38   A    
Cr1   O40   S    
Cr2   O32   S    
C54   C58   A    
C62   C80   S    
C25   C30   A    
C50   C61   S    
Cr9   O24   S    
C21   C25   A    
C6    N3    T    
C19   H27   S    
C47   C104  S    
C7    C97   S    
Cr3   O11   S    
C18   C22   A    
Cr10  O47   S    
C47   O25   A    
C38   C88   S    
C78   O23   A    
C58   C63   A    
Cr1   O9    S    
C76   O31   A    
C1    O14   A    
C31   C79   S    
C99   H12   S    
Cr11  O21   S    
C46   C103  S    
C90   O6    A    
C6    C96   S    
C2    H19   S    
C88   O51   A    
C8    C30   A    
C32   C33   A    
C67   H9    S    
C28   O16   A    
C33   H37   S    
Cr11  O13   S    
C38   C43   A    
C92   O39   A    
C98   C102  S    
C3    C83   S    
Cr5   O12   S    
Cr8   O45   S    
C15   C28   S    
C66   C70   A    
Cr3   O7    S    
Cr6   O11   S    
C17   O19   A    
C65   C69   A    
Cr4   O8    S    
C39   O17   A    
C94   H18   S    
Cr2   O10   S    
Cr11  O48   S    
C51   H45   S    
C67   C71   A    
C65   H7    S    
Cr4   O30   S    
C76   O1    A    
C77   O32   A    
Cr7   O43   S    
C83   H17   S    
C72   C83   S    
C45   C102  S    
C61   H15   S    
Cr8   O22   S    
C4    C93   S    
C30   C78   S    
C56   C60   A    
C45   O22   A    
C40   C44   A    
C89   O36   A    
C29   C77   S    
C69   H11   S    
C64   H6    S    
Cr10  O11   S    
C22   C26   A    
Cr4   O13   S    
C46   O28   A    
C44   H43   S    
Cr7   O13   S    
C47   O29   A    
C27   C94   A    
C10   H22   S    
C54   H48   S    
C4    N1    T    
C93   C98   S    
C20   C24   A    
C97   C101  S    
C84   O48   A    
C10   C14   A    
Cr8   O9    S    
C82   O42   A    
C55   H2    S    
C13   H26   S    
