data_mof_unit_62669.cif
_audit_creation_date              2013-03-05T16:27:51-0500
_audit_creation_method            fapswitch 2.2
_symmetry_space_group_name_H-M    P1
_symmetry_Int_Tables_number       1
_space_group_crystal_system       triclinic
_cell_length_a                    38.769326
_cell_length_b                    32.207458
_cell_length_c                    21.652746
_cell_angle_alpha                 90.000031
_cell_angle_beta                  56.214079
_cell_angle_gamma                 90.000074
_cell_volume                      22470.9798508

loop_
_atom_site_label
_atom_site_type_symbol
_atom_site_description
_atom_site_fract_x
_atom_site_fract_y
_atom_site_fract_z
_atom_type_partial_charge
O1    O     O_R   0.940150 0.534620 0.559830 -0.541422
O2    O     O_R   0.059850 0.534620 0.440170 -0.541457
O3    O     O_R   0.440150 0.034620 0.559830 -0.541397
O4    O     O_R   0.559850 0.034620 0.440170 -0.541458
O5    O     O_R   0.940110 0.465340 0.559870 -0.581780
O6    O     O_R   0.059890 0.465340 0.440130 -0.581759
O7    O     O_R   0.440110 0.965340 0.559870 -0.581758
O8    O     O_R   0.559890 0.965340 0.440130 -0.581759
C1    C     C_R   0.920370 0.499993 0.579517 0.842667
C2    C     C_R   0.079630 0.499993 0.420482 0.842604
C3    C     C_R   0.420370 0.999993 0.579518 0.842646
C4    C     C_R   0.579630 0.999993 0.420482 0.842606
O9    O     O_R   0.999990 0.534620 0.408860 -0.520907
O10   O     O_R   0.000010 0.534620 0.591140 -0.520896
O11   O     O_R   0.499990 0.034620 0.408860 -0.520919
O12   O     O_R   0.500010 0.034620 0.591140 -0.520906
O13   O     O_R   0.999950 0.465340 0.408890 -0.556258
O14   O     O_R   0.000050 0.465340 0.591110 -0.556231
O15   O     O_R   0.499950 0.965340 0.408890 -0.556294
O16   O     O_R   0.500050 0.965340 0.591110 -0.556264
C5    C     C_R   0.000290 0.500020 0.379324 0.800899
C6    C     C_R   0.999713 0.500020 0.620673 0.800897
C7    C     C_R   0.500294 0.000020 0.379321 0.800902
C8    C     C_R   0.499709 0.000020 0.620677 0.800915
Cu1   Cu    Cu3+1 0.000000 0.540990 0.500000 1.140687
Cu2   Cu    Cu3+1 0.500000 0.040990 0.500000 1.140665
Cu3   Cu    Cu3+1 0.000000 0.458960 0.500000 1.102567
Cu4   Cu    Cu3+1 0.500000 0.958960 0.500000 1.102627
C9    C     C_1   1.000000 0.375728 0.000000 -0.150578
C10   C     C_1   0.500000 0.875728 0.000000 -0.150625
C11   C     C_1   0.500000 0.623990 0.000000 -0.149003
C12   C     C_1   1.000000 0.123991 0.000000 -0.149025
C13   C     C_R   1.000000 0.293461 0.000000 0.141763
C14   C     C_R   0.500000 0.793461 0.000000 0.141811
C15   C     C_R   0.983940 0.271598 0.965373 -0.158172
C16   C     C_R   0.016059 0.271598 0.034627 -0.158176
C17   C     C_R   0.480545 0.771598 0.971463 -0.157966
C18   C     C_R   0.519454 0.771598 0.028537 -0.157973
C19   C     C_3   0.964110 0.528539 0.321184 0.071915
C20   C     C_3   0.035875 0.528561 0.678834 0.071928
C21   C     C_3   0.464094 0.028514 0.321204 0.071923
C22   C     C_3   0.535894 0.028533 0.678811 0.071933
H1    H     H_    0.935231 0.511019 0.361473 0.060395
H2    H     H_    0.064765 0.511059 0.638535 0.060420
H3    H     H_    0.435227 0.010975 0.361482 0.060386
H4    H     H_    0.564769 0.011008 0.638525 0.060461
C23   C     C_3   0.965336 0.530605 0.248171 0.138880
C24   C     C_3   0.034646 0.530626 0.751850 0.138863
C25   C     C_3   0.465317 0.030583 0.248194 0.138920
C26   C     C_3   0.534668 0.030600 0.751823 0.138899
H5    H     H_    0.935157 0.517343 0.262304 0.103859
H6    H     H_    0.064833 0.517382 0.737710 0.103876
H7    H     H_    0.435147 0.017300 0.262320 0.103837
H8    H     H_    0.564845 0.017333 0.737692 0.103873
H9    H     H_    0.054532 0.543074 0.137661 0.235820
H10   H     H_    0.945441 0.543037 0.862365 0.235836
H11   H     H_    0.554502 0.043115 0.137690 0.235803
H12   H     H_    0.445475 0.043084 0.862331 0.235812
C27   C     C_3   0.044264 0.515336 0.241099 -0.192578
C28   C     C_3   0.955729 0.515309 0.758906 -0.192566
C29   C     C_3   0.544257 0.015366 0.241104 -0.192554
C30   C     C_3   0.455737 0.015344 0.758900 -0.192520
C31   C     C_3   0.992149 0.455536 0.291321 0.173365
C32   C     C_3   0.007880 0.455540 0.708649 0.173352
C33   C     C_3   0.492183 0.955531 0.291287 0.173330
C34   C     C_3   0.507842 0.955535 0.708688 0.173293
C35   C     C_3   0.000880 0.500660 0.309729 -0.196981
C36   C     C_3   0.999122 0.500659 0.690269 -0.196976
C37   C     C_3   0.500883 0.000660 0.309726 -0.197044
C38   C     C_3   0.499119 0.000660 0.690272 -0.197031
H13   H     H_    0.960618 0.445988 0.338522 0.105790
H14   H     H_    0.039417 0.446012 0.661441 0.105783
H15   H     H_    0.460658 0.945961 0.338481 0.105859
H16   H     H_    0.539372 0.945982 0.661488 0.105878
C39   C     C_3   0.000194 0.501263 0.188360 -0.081488
C40   C     C_3   0.999806 0.501261 0.811640 -0.081494
C41   C     C_3   0.500195 0.001265 0.188360 -0.081600
C42   C     C_3   0.499805 0.001263 0.811640 -0.081594
C43   C     C_3   0.043801 0.513851 0.170015 -0.357911
C44   C     C_3   0.956192 0.513822 0.829991 -0.357905
C45   C     C_3   0.543793 0.013884 0.170021 -0.357930
C46   C     C_3   0.456201 0.013859 0.829984 -0.357948
C47   C     C_3   0.990893 0.456770 0.220932 -0.518608
C48   C     C_3   0.009136 0.456775 0.779038 -0.518600
C49   C     C_3   0.490926 0.956765 0.220899 -0.518407
C50   C     C_3   0.509098 0.956769 0.779076 -0.518399
H17   H     H_    0.959703 0.446628 0.235750 0.156875
H18   H     H_    0.040332 0.446652 0.764214 0.156908
H19   H     H_    0.459743 0.946601 0.235709 0.156932
H20   H     H_    0.540287 0.946622 0.764261 0.156975
H21   H     H_    0.013455 0.434524 0.177977 0.228518
H22   H     H_    0.986588 0.434514 0.821979 0.228501
H23   H     H_    0.513504 0.934536 0.177927 0.228608
H24   H     H_    0.486532 0.934528 0.822036 0.228593
H25   H     H_    0.067589 0.492295 0.233238 0.172256
H26   H     H_    0.932418 0.492255 0.766750 0.172239
H27   H     H_    0.567597 0.992339 0.233225 0.172254
H28   H     H_    0.432408 0.992305 0.766765 0.172210
H29   H     H_    0.066994 0.490299 0.131767 0.193911
H30   H     H_    0.933014 0.490255 0.868222 0.193892
H31   H     H_    0.567002 0.990349 0.131753 0.193892
H32   H     H_    0.433004 0.990312 0.868237 0.193858
H33   H     H_    0.788345 0.472508 0.802577 0.151947
H34   H     H_    0.211656 0.471783 0.197916 0.151992
H35   H     H_    0.288346 0.973062 0.802944 0.151914
H36   H     H_    0.711658 0.970797 0.198612 0.152033
C51   C     C_R   0.728257 0.484588 0.823038 -0.161656
C52   C     C_R   0.271743 0.484181 0.177238 -0.161644
C53   C     C_R   0.228258 0.984900 0.823244 -0.161641
C54   C     C_R   0.771745 0.983627 0.177628 -0.161616
H37   H     H_    0.711834 0.472470 0.879156 0.147371
H38   H     H_    0.288168 0.471746 0.121337 0.147368
H39   H     H_    0.211834 0.973024 0.879524 0.147372
H40   H     H_    0.788169 0.970759 0.122034 0.147353
C55   C     C_R   0.706254 0.500113 0.794083 0.143504
C56   C     C_R   0.293746 0.500113 0.205915 0.143518
C57   C     C_R   0.206254 0.000113 0.794081 0.143504
C58   C     C_R   0.793746 0.000113 0.205913 0.143552
C59   C     C_R   0.728005 0.515677 0.721352 -0.161312
C60   C     C_R   0.271995 0.516084 0.278367 -0.161342
C61   C     C_R   0.228004 0.015365 0.721143 -0.161259
C62   C     C_R   0.771994 0.016638 0.277971 -0.161369
H41   H     H_    0.711385 0.527769 0.698296 0.147861
H42   H     H_    0.288614 0.528493 0.301207 0.147860
H43   H     H_    0.211384 0.027213 0.697925 0.147848
H44   H     H_    0.788612 0.029478 0.300505 0.147852
C63   C     C_R   0.771464 0.515695 0.677851 -0.156155
C64   C     C_R   0.228535 0.516102 0.321868 -0.156158
C65   C     C_R   0.271464 0.015383 0.677642 -0.156117
C66   C     C_R   0.728534 0.016656 0.321472 -0.156101
H45   H     H_    0.787890 0.527795 0.621718 0.154624
H46   H     H_    0.212109 0.528519 0.377783 0.154744
H47   H     H_    0.287889 0.027241 0.621348 0.154541
H48   H     H_    0.712107 0.029504 0.377082 0.154952
C67   C     C_R   0.793464 0.500151 0.706793 0.139885
C68   C     C_R   0.206536 0.500151 0.293204 0.139829
C69   C     C_R   0.293464 0.000151 0.706792 0.139926
C70   C     C_R   0.706536 0.000150 0.293201 0.139743
C71   C     C_R   0.771720 0.484610 0.779537 -0.154637
C72   C     C_R   0.228281 0.484203 0.220738 -0.154673
C73   C     C_R   0.271720 0.984921 0.779743 -0.154597
C74   C     C_R   0.728282 0.983648 0.221128 -0.154746
C75   C     C_1   0.661456 0.500049 0.838870 -0.051590
C76   C     C_1   0.338544 0.500049 0.161129 -0.051588
C77   C     C_1   0.161456 0.000049 0.838870 -0.051552
C78   C     C_1   0.838544 0.000049 0.161128 -0.051557
C79   C     C_1   0.838254 0.500099 0.661898 -0.040410
C80   C     C_1   0.161746 0.500099 0.338100 -0.040422
C81   C     C_1   0.338254 0.000099 0.661898 -0.040357
C82   C     C_1   0.661746 0.000098 0.338098 -0.040404
C83   C     C_1   0.875739 0.500042 0.624288 -0.107764
C84   C     C_1   0.124261 0.500042 0.375711 -0.107780
C85   C     C_1   0.375739 0.000042 0.624288 -0.107712
C86   C     C_1   0.624261 0.000042 0.375709 -0.107736
C87   C     C_1   0.623962 0.500004 0.876293 -0.148919
C88   C     C_1   0.376038 0.500004 0.123707 -0.148917
C89   C     C_1   0.123962 0.000003 0.876293 -0.148892
C90   C     C_1   0.876038 0.000003 0.123707 -0.148891
C91   C     C_1   0.500000 0.661480 0.000000 -0.051905
C92   C     C_1   1.000000 0.161480 0.000000 -0.051977
O17   O     O_R   0.965330 0.559800 0.034660 -0.565016
O18   O     O_R   0.034670 0.559800 0.965340 -0.565031
O19   O     O_R   0.465330 0.059800 0.034660 -0.565000
O20   O     O_R   0.534670 0.059800 0.965340 -0.565006
C93   C     C_R   1.000000 0.579549 1.000000 0.877569
C94   C     C_R   0.500000 0.079549 1.000000 0.877507
O21   O     O_R   0.965350 0.499950 0.125800 -0.583406
O22   O     O_R   0.034650 0.499950 0.874200 -0.583421
O23   O     O_R   0.465350 0.999950 0.125800 -0.583360
O24   O     O_R   0.534650 0.999950 0.874200 -0.583365
O25   O     O_R   0.034620 0.500000 0.056540 -0.594455
O26   O     O_R   0.965380 0.500000 0.943460 -0.594453
O27   O     O_R   0.534620 0.000000 0.056540 -0.594490
O28   O     O_R   0.465380 1.000000 0.943460 -0.594497
C95   C     C_R   0.000067 0.500921 0.120032 0.840809
C96   C     C_R   0.999933 0.500919 0.879968 0.840830
C97   C     C_R   0.500067 0.000924 0.120032 0.840832
C98   C     C_R   0.499933 0.000922 0.879968 0.840849
Cu5   Cu    Cu3+1 0.958960 0.499950 0.041020 1.014818
Cu6   Cu    Cu3+1 0.041040 0.499950 0.958980 1.014815
Cu7   Cu    Cu3+1 0.458960 0.999950 0.041020 1.014730
Cu8   Cu    Cu3+1 0.541040 0.999950 0.958980 1.014765
O29   O     O_R   0.965350 0.440100 0.034640 -0.580792
O30   O     O_R   0.034650 0.440100 0.965360 -0.580776
O31   O     O_R   0.465350 0.940100 0.034640 -0.580884
O32   O     O_R   0.534650 0.940100 0.965360 -0.580862
C99   C     C_1   1.000000 0.338242 0.000000 -0.047244
C100  C     C_1   0.500000 0.838242 0.000000 -0.047240
C101  C     C_R   1.000000 0.420354 0.000000 0.814935
C102  C     C_R   0.500000 0.920354 0.000000 0.815044
O33   O     O_R   0.499940 0.440170 0.947210 -0.574600
O34   O     O_R   0.500060 0.440170 0.052790 -0.574589
O35   O     O_R   0.999940 0.940170 0.947210 -0.574597
O36   O     O_R   0.000060 0.940170 0.052790 -0.574566
C103  C     C_R   0.500000 0.420697 0.000000 0.812412
C104  C     C_R   1.000000 0.920697 0.000000 0.812390
O37   O     O_R   0.559820 0.500010 0.887440 -0.575103
O38   O     O_R   0.440180 0.500010 0.112560 -0.575093
O39   O     O_R   0.059820 0.000010 0.887440 -0.575166
O40   O     O_R   0.940180 0.000010 0.112560 -0.575139
O41   O     O_R   0.559830 0.499950 0.992950 -0.575302
O42   O     O_R   0.440170 0.499950 0.007050 -0.575290
O43   O     O_R   0.059830 0.999950 0.992950 -0.575266
O44   O     O_R   0.940170 0.999950 0.007050 -0.575234
C105  C     C_R   0.579311 0.499971 0.920783 0.812959
C106  C     C_R   0.420688 0.499971 0.079217 0.812945
C107  C     C_R   0.079311 0.999971 0.920783 0.813025
C108  C     C_R   0.920689 0.999971 0.079217 0.812980
Cu9   Cu    Cu3+1 0.499970 0.500020 0.937550 0.989998
Cu10  Cu    Cu3+1 0.500030 0.500020 0.062450 0.989995
Cu11  Cu    Cu3+1 0.999970 0.000020 0.937550 0.989900
Cu12  Cu    Cu3+1 0.000030 0.000020 0.062450 0.989895
O45   O     O_R   0.500010 0.559860 0.947320 -0.575400
O46   O     O_R   0.499990 0.559860 0.052680 -0.575415
O47   O     O_R   0.000010 0.059860 0.947320 -0.575489
O48   O     O_R   0.999990 0.059860 0.052680 -0.575524
C109  C     C_R   0.500000 0.579355 0.000000 0.813620
C110  C     C_R   1.000000 0.079355 0.000000 0.813762
H49   H     H_    0.021444 0.711818 0.884353 0.175173
H50   H     H_    0.978555 0.711818 0.115646 0.175170
H51   H     H_    0.519684 0.211818 0.885259 0.175342
H52   H     H_    0.480315 0.211818 0.114740 0.175343
C111  C     C_R   0.511070 0.271834 0.935485 -0.159183
C112  C     C_R   0.488930 0.271834 0.064515 -0.159169
C113  C     C_R   0.012059 0.771834 0.934975 -0.159184
C114  C     C_R   0.987940 0.771834 0.065024 -0.159167
H53   H     H_    0.519690 0.288364 0.885255 0.152949
H54   H     H_    0.480310 0.288364 0.114745 0.152956
H55   H     H_    0.021450 0.788364 0.884349 0.152859
H56   H     H_    0.978549 0.788364 0.115651 0.152869
C115  C     C_R   0.500000 0.293715 1.000000 0.138061
C116  C     C_R   1.000000 0.793716 0.000000 0.138134
C117  C     C_R   0.987942 0.728356 0.065024 -0.138519
C118  C     C_R   0.012058 0.728356 0.934976 -0.138508
C119  C     C_R   0.488932 0.228356 0.064515 -0.138569
C120  C     C_R   0.511068 0.228356 0.935485 -0.138565
C121  C     C_R   1.000000 0.706481 1.000000 0.123203
C122  C     C_R   0.500000 0.206481 1.000000 0.123085
C123  C     C_1   0.500000 0.338527 0.000000 -0.046636
C124  C     C_1   1.000000 0.838527 0.000000 -0.046637
C125  C     C_1   1.000000 0.661683 1.000000 -0.004599
C126  C     C_1   0.500000 0.161683 1.000000 -0.004631
C127  C     C_1   0.000000 0.624188 1.000000 -0.067601
C128  C     C_1   0.500000 0.124188 1.000000 -0.067644
C129  C     C_1   0.500000 0.376033 0.000000 -0.146920
C130  C     C_1   1.000000 0.876033 0.000000 -0.146937
H57   H     H_    0.028561 0.288135 0.061584 0.152232
H58   H     H_    0.971439 0.288135 0.938417 0.152238
H59   H     H_    0.534598 0.788134 0.050752 0.151987
H60   H     H_    0.465401 0.788134 0.949248 0.151995
C131  C     C_R   0.519456 0.728130 0.028534 -0.160244
C132  C     C_R   0.480544 0.728130 0.971466 -0.160241
C133  C     C_R   0.016061 0.228130 0.034625 -0.160219
C134  C     C_R   0.983939 0.228130 0.965376 -0.160215
H61   H     H_    0.534603 0.711596 0.050744 0.148334
H62   H     H_    0.465396 0.711595 0.949256 0.148341
H63   H     H_    0.028565 0.211596 0.061577 0.148635
H64   H     H_    0.971434 0.211596 0.938424 0.148645
C135  C     C_R   0.500000 0.706265 0.000000 0.142613
C136  C     C_R   1.000000 0.206265 0.000000 0.142323
N1    N     N_R   0.958694 0.569327 0.356395 0.181009
O49   O     O_R   0.986533 0.598369 0.325163 -0.244867
O50   O     O_R   0.924654 0.576940 0.420614 -0.342851
N2    N     N_R   0.041268 0.569353 0.643649 0.181022
O51   O     O_R   0.013410 0.598378 0.674899 -0.244878
O52   O     O_R   0.075304 0.576988 0.579438 -0.342865
N3    N     N_R   0.458651 0.069298 0.356445 0.181005
O53   O     O_R   0.486471 0.098359 0.325231 -0.244899
O54   O     O_R   0.424608 0.076886 0.420673 -0.342825
N4    N     N_R   0.541317 0.069320 0.643593 0.181019
O55   O     O_R   0.513482 0.098366 0.674820 -0.244903
O56   O     O_R   0.575357 0.076927 0.579371 -0.342933
N5    N     N_R   0.967359 0.573015 0.220881 0.162435
O57   O     O_R   0.001322 0.594772 0.188434 -0.300669
O58   O     O_R   0.935035 0.588409 0.225258 -0.333225
N6    N     N_R   0.032596 0.573034 0.779169 0.162419
O59   O     O_R   0.998619 0.594769 0.811628 -0.300659
O60   O     O_R   0.064910 0.588448 0.774805 -0.333261
N7    N     N_R   0.467309 0.072995 0.220936 0.162462
O61   O     O_R   0.501257 0.094775 0.188503 -0.300868
O62   O     O_R   0.434973 0.088367 0.225329 -0.333025
N8    N     N_R   0.532653 0.073011 0.779106 0.162447
O63   O     O_R   0.498694 0.094773 0.811549 -0.300860
O64   O     O_R   0.564980 0.088399 0.774725 -0.333060
C137  C     C_2   0.062130 0.555435 0.249306 0.933198
O65   O     O_2   0.066107 0.586370 0.213111 -0.508446
O66   O     O_R   0.077418 0.555854 0.294463 -0.766298
H65   H     H_    0.089460 0.583767 0.294620 0.345496
C138  C     C_2   0.937842 0.555399 0.750722 0.933147
O67   O     O_2   0.933840 0.586328 0.786946 -0.508463
O68   O     O_R   0.922564 0.555814 0.705549 -0.766351
H66   H     H_    0.910506 0.583720 0.705410 0.345497
C139  C     C_2   0.562099 0.055475 0.249337 0.933265
O69   O     O_2   0.566049 0.086416 0.213174 -0.508505
O70   O     O_R   0.577398 0.055899 0.294478 -0.766240
H67   H     H_    0.589422 0.083819 0.294654 0.345499
C140  C     C_2   0.437877 0.055444 0.750686 0.933134
O71   O     O_2   0.433907 0.086381 0.786872 -0.508529
O72   O     O_R   0.422585 0.055865 0.705534 -0.766344
H68   H     H_    0.410548 0.083779 0.705373 0.345500
N9    N     N_R   0.021338 0.423356 0.283739 0.162235
O73   O     O_R   0.058827 0.420839 0.224326 -0.373344
O74   O     O_R   0.007464 0.392751 0.330940 -0.323501
N10   N     N_R   0.978711 0.423342 0.716212 0.162258
O75   O     O_R   0.941222 0.420805 0.775622 -0.373330
O76   O     O_R   0.992604 0.392746 0.668994 -0.323487
N11   N     N_R   0.521393 0.923371 0.283684 0.162289
O77   O     O_R   0.558883 0.920878 0.224268 -0.373378
O78   O     O_R   0.507540 0.892759 0.330868 -0.323220
N12   N     N_R   0.478648 0.923359 0.716275 0.162317
O79   O     O_R   0.441158 0.920849 0.775689 -0.373337
O80   O     O_R   0.492517 0.892754 0.669077 -0.323185

loop_
_geom_bond_atom_site_label_1
_geom_bond_atom_site_label_2
_geom_bond_distance
_ccdc_geom_bond_type
O36   C104  1.304944 A    
O38   C106  1.303474 A    
C47   H17   1.113725 S    
O68   H66   1.013853 S    
C68   C72   1.401919 A    
O9    Cu1   1.984284 S    
C54   C58   1.401985 A    
O31   C102  1.284922 A    
N9    O73   1.301727 A    
C67   C71   1.401921 A    
N8    O63   1.299820 A    
C114  C117  1.400313 A    
O24   C98   1.281081 A    
C43   H29   1.114245 S    
H12   C46   1.107036 S    
O35   Cu11  1.938862 S    
C18   H59   1.083444 S    
C13   C16   1.401738 A    
C30   C38   1.575089 S    
C81   C85   1.207853 T    
C32   C48   1.552211 S    
C33   N11   1.474828 S    
O44   C108  1.303687 A    
C15   C134  1.399991 A    
C126  C128  1.207615 T    
O4    C4    1.284532 A    
C88   C106  1.438742 S    
C28   C138  1.521867 S    
O40   C108  1.303471 A    
H49   C118  1.083491 S    
C66   H48   1.083438 S    
C112  H54   1.083420 S    
C21   C25   1.556426 S    
H36   C74   1.083453 S    
C55   C75   1.443504 S    
N12   O80   1.301556 A    
O34   C103  1.304944 A    
C19   N1    1.474138 S    
O16   Cu4   1.984525 S    
O22   Cu6   1.984200 S    
C19   C23   1.556427 S    
Cu9   O45   1.938961 S    
O7    Cu4   1.940692 S    
H34   C72   1.083453 S    
C118  C121  1.401855 A    
O32   C102  1.284926 A    
O15   C7    1.283823 A    
O18   C93   1.285532 A    
C77   C89   1.208122 T    
C42   C46   1.559938 S    
O9    C5    1.281683 A    
O34   Cu10  1.938862 S    
C65   H47   1.083439 S    
O26   Cu5   1.984839 S    
C31   H13   1.115329 S    
O27   Cu8   1.984839 S    
H51   C120  1.083491 S    
O8    Cu4   1.940689 S    
N4    O56   1.301659 A    
C21   N3    1.474137 S    
C66   C70   1.401890 A    
C52   C72   1.400454 A    
C20   C24   1.556427 S    
C1    C83   1.438110 S    
O45   C109  1.301873 A    
O3    Cu2   1.939379 S    
C48   H18   1.113724 S    
C4    C86   1.438110 S    
C87   C105  1.438742 S    
C59   H41   1.083427 S    
C47   H21   1.112973 S    
C137  O66   1.397183 S    
C133  C136  1.401768 A    
C34   C38   1.592373 S    
O25   C95   1.279522 A    
C114  C116  1.401962 A    
N7    O62   1.301222 A    
C63   H45   1.083439 S    
O3    C3    1.284531 A    
O36   Cu12  1.938862 S    
C24   H6    1.116612 S    
C65   C69   1.401890 A    
C21   H3    1.116539 S    
N11   O78   1.301555 A    
C39   C43   1.559936 S    
O17   C93   1.285534 A    
Cu6   O30   1.938582 S    
C25   H7    1.116612 S    
C76   C88   1.208121 T    
O19   Cu7   1.938516 S    
C24   C40   1.565287 S    
C89   C107  1.438742 S    
C27   C137  1.521866 S    
C8    C38   1.494462 S    
C45   H31   1.114247 S    
O5    C1    1.284611 A    
C103  C129  1.438501 S    
C113  C118  1.400316 A    
C32   C36   1.592378 S    
C112  C119  1.400313 A    
O48   C110  1.301868 A    
C22   H4    1.116538 S    
N1    O49   1.298229 A    
C111  H53   1.083416 S    
C34   H16   1.115327 S    
C22   C38   1.583262 S    
C58   C62   1.401957 A    
C117  C121  1.401853 A    
C27   C35   1.575089 S    
C56   C76   1.443501 S    
C49   H23   1.112973 S    
C18   C131  1.399994 A    
N2    O51   1.298231 A    
C93   C127  1.437693 S    
O17   Cu5   1.938516 S    
C54   H40   1.083405 S    
O18   Cu6   1.938517 S    
C2    C84   1.438110 S    
N10   O76   1.301556 A    
C41   C49   1.548564 S    
O24   Cu8   1.984200 S    
C140  O72   1.397187 S    
O23   C97   1.281087 A    
C138  O67   1.223228 D    
C113  C116  1.401962 A    
O13   Cu3   1.984529 S    
H50   C117  1.083493 S    
C112  C115  1.401963 A    
C114  H56   1.083420 S    
C41   C97   1.482301 S    
C56   C60   1.401955 A    
C22   N4    1.474136 S    
C79   C83   1.207853 T    
C61   H43   1.083431 S    
C139  O69   1.223226 D    
C75   C87   1.208122 T    
O8    C4    1.284609 A    
O35   C104  1.304945 A    
Cu9   Cu10  2.705722 S    
C46   H32   1.114246 S    
O15   Cu4   1.984529 S    
C68   C80   1.443236 S    
C22   C26   1.556427 S    
C24   N6    1.472923 S    
O33   Cu9   1.938862 S    
C55   C59   1.401956 A    
C12   C110  1.437602 S    
C119  C122  1.401854 A    
O42   Cu9   1.938904 S    
C91   C135  1.442395 S    
O21   C95   1.281084 A    
O22   C96   1.281078 A    
C28   C44   1.549973 S    
O14   C6    1.283825 A    
C51   H37   1.083402 S    
C80   C84   1.207853 T    
C34   C50   1.552211 S    
N3    O53   1.298231 A    
C78   C90   1.208118 T    
N8    O64   1.301220 A    
H10   C44   1.107039 S    
C121  C125  1.442846 S    
C90   C108  1.438745 S    
O10   C6    1.281685 A    
C23   C39   1.565298 S    
C29   C45   1.549975 S    
C13   C15   1.401738 A    
C25   C41   1.565307 S    
C10   C102  1.437290 S    
C51   C71   1.400458 A    
O25   Cu6   1.984839 S    
O33   C103  1.304945 A    
C111  C120  1.400316 A    
C3    C85   1.438110 S    
C133  H63   1.083427 S    
C20   H2    1.116538 S    
N6    O59   1.299817 A    
C16   H57   1.083448 S    
O41   C105  1.303685 A    
C53   C73   1.400454 A    
C48   H22   1.112973 S    
O26   C96   1.279520 A    
C59   C63   1.400368 A    
O21   Cu5   1.984198 S    
C14   C17   1.401735 A    
C94   C128  1.437696 S    
O37   C105  1.303474 A    
C40   C48   1.548561 S    
C34   N12   1.474827 S    
C53   C57   1.401995 A    
Cu7   Cu8   2.644794 S    
C15   H58   1.083448 S    
C26   H8    1.116612 S    
C26   N8    1.472923 S    
C63   C67   1.401892 A    
C64   C68   1.401890 A    
C25   N7    1.472922 S    
C17   H60   1.083446 S    
O29   C101  1.284922 A    
O47   C110  1.301871 A    
C57   C77   1.443504 S    
Cu8   O32   1.938582 S    
C131  C135  1.401764 A    
N7    O61   1.299821 A    
O28   C98   1.279523 A    
C30   C46   1.549975 S    
C124  C130  1.207976 T    
C26   C42   1.565298 S    
C111  C115  1.401961 A    
N9    O74   1.301556 A    
O12   Cu2   1.984280 S    
H52   C119  1.083490 S    
C39   C95   1.482297 S    
N11   O77   1.301726 A    
C40   C44   1.559943 S    
C40   C96   1.482293 S    
O19   C94   1.285532 A    
O1    C1    1.284531 A    
C67   C79   1.443233 S    
C70   C74   1.401919 A    
C27   C43   1.549976 S    
O70   H67   1.013849 S    
C49   H19   1.113727 S    
C23   H5    1.116612 S    
C113  H55   1.083419 S    
C9    C99   1.207326 T    
C31   C47   1.552216 S    
C10   C100  1.207329 T    
O72   H68   1.013850 S    
C137  O65   1.223226 D    
H9    C43   1.107037 S    
C131  H61   1.083427 S    
Cu11  Cu12  2.705722 S    
C134  C136  1.401769 A    
C6    C36   1.494468 S    
C28   H26   1.107371 S    
C29   C139  1.521868 S    
C50   H20   1.113727 S    
C69   C73   1.401920 A    
N12   O79   1.301727 A    
C42   C98   1.482297 S    
C29   H27   1.107373 S    
C61   C65   1.400368 A    
O6    C2    1.284609 A    
O4    Cu2   1.939377 S    
C60   C64   1.400371 A    
C17   C132  1.399994 A    
C123  C129  1.207979 T    
C52   C56   1.401992 A    
N3    O54   1.301658 A    
C39   C47   1.548563 S    
C33   C37   1.592367 S    
O44   Cu11  1.938904 S    
C120  C122  1.401852 A    
O2    Cu1   1.939377 S    
O10   Cu1   1.984280 S    
O13   C5    1.283824 A    
O20   Cu8   1.938517 S    
Cu5   Cu6   2.644794 S    
C52   H38   1.083404 S    
C28   C36   1.575077 S    
N2    O52   1.301660 A    
C20   C36   1.583282 S    
N4    O55   1.298228 A    
C132  C135  1.401767 A    
C11   C109  1.437599 S    
Cu11  O47   1.938961 S    
C32   N10   1.474828 S    
C140  O71   1.223224 D    
C7    C37   1.494462 S    
C70   C82   1.443233 S    
O7    C3    1.284611 A    
O40   Cu12  1.939385 S    
H35   C73   1.083455 S    
C134  H64   1.083429 S    
C92   C136  1.442398 S    
C33   H15   1.115327 S    
C115  C123  1.443268 S    
C54   C74   1.400454 A    
C57   C61   1.401953 A    
C50   H24   1.112973 S    
N5    O58   1.301220 A    
C30   H28   1.107373 S    
O16   C8    1.283824 A    
C41   C45   1.559931 S    
O39   Cu11  1.939385 S    
C53   H39   1.083402 S    
C132  H62   1.083426 S    
C42   C50   1.548562 S    
O11   C7    1.281682 A    
O12   C8    1.281684 A    
O5    Cu3   1.940692 S    
C44   H30   1.114246 S    
O1    Cu1   1.939379 S    
C69   C81   1.443233 S    
C27   H25   1.107372 S    
O38   Cu10  1.939385 S    
C64   H46   1.083439 S    
O28   Cu7   1.984839 S    
Cu5   O29   1.938582 S    
C31   C35   1.592372 S    
Cu12  O48   1.938962 S    
C58   C78   1.443504 S    
N1    O50   1.301660 A    
Cu7   O31   1.938582 S    
O11   Cu2   1.984284 S    
C19   H1    1.116539 S    
Cu10  O46   1.938962 S    
O43   C107  1.303685 A    
C125  C127  1.207619 T    
C62   H44   1.083428 S    
H33   C71   1.083451 S    
O6    Cu3   1.940689 S    
O27   C97   1.279525 A    
O23   Cu7   1.984198 S    
O39   C107  1.303474 A    
N5    O57   1.299819 A    
C13   C99   1.442263 S    
C14   C100  1.442266 S    
C51   C55   1.401990 A    
N10   O75   1.301726 A    
N6    O60   1.301225 A    
C31   N9    1.474827 S    
O66   H65   1.013855 S    
C82   C86   1.207856 T    
H11   C45   1.107036 S    
O43   Cu12  1.938907 S    
O2    C2    1.284532 A    
O41   Cu10  1.938907 S    
C29   C37   1.575098 S    
C30   C140  1.521867 S    
C104  C130  1.438501 S    
C14   C18   1.401736 A    
C19   C35   1.583263 S    
O14   Cu3   1.984525 S    
O46   C109  1.301866 A    
C23   N5    1.472923 S    
C33   C49   1.552216 S    
C5    C35   1.494466 S    
Cu1   Cu3   2.641978 S    
C122  C126  1.442846 S    
Cu2   Cu4   2.641978 S    
C16   C133  1.399994 A    
O20   C94   1.285531 A    
C139  O70   1.397191 S    
C20   N2    1.474138 S    
C138  O68   1.397177 S    
C9    C101  1.437287 S    
C32   H14   1.115330 S    
O37   Cu9   1.939385 S    
O42   C106  1.303687 A    
C116  C124  1.443268 S    
O30   C101  1.284926 A    
C21   C37   1.583246 S    
C62   C66   1.400374 A    
C11   C91   1.207448 T    
C60   H42   1.083429 S    
C12   C92   1.207451 T    
