data_mof_unit_38573.cif
_audit_creation_date              2012-12-10T17:03:58-0500
_audit_creation_method            fapswitch 2.2
_symmetry_space_group_name_H-M    P1
_symmetry_Int_Tables_number       1
_space_group_crystal_system       triclinic
_cell_length_a                    9.878995
_cell_length_b                    11.087909
_cell_length_c                    15.68803
_cell_angle_alpha                 94.952528
_cell_angle_beta                  79.054903
_cell_angle_gamma                 112.216105
_cell_volume                      1561.71923291

loop_
_atom_site_label
_atom_site_type_symbol
_atom_type_description
_atom_site_fract_x
_atom_site_fract_y
_atom_site_fract_z
_atom_type_partial_charge
C1    C     C_R   0.557962 0.745665 0.505556 0.814948
C2    C     C_R   0.442038 0.254335 0.494444 0.814948
C3    C     C_R   0.327160 0.479559 0.080015 0.348256
C4    C     C_R   0.672840 0.520441 0.919985 0.348256
C5    C     C_R   0.216247 0.421098 0.028116 -0.097317
C6    C     C_R   0.783753 0.578902 0.971884 -0.097317
C7    C     C_2   0.598940 0.885799 0.498441 0.176645
C8    C     C_2   0.401060 0.114200 0.501559 0.176645
C9    C     C_2   0.493075 0.937595 0.518589 0.265214
C10   C     C_2   0.506925 0.062405 0.481411 0.265214
C11   C     C_2   0.926231 0.495614 0.490531 0.031703
C12   C     C_2   0.073769 0.504386 0.509468 0.031704
C13   C     C_R   0.409402 0.480409 0.662897 0.810307
C14   C     C_R   0.590598 0.519591 0.337102 0.810305
C15   C     C_R   0.350384 0.453492 0.756298 -0.178060
C16   C     C_R   0.649616 0.546508 0.243701 -0.178060
C17   C     C_R   0.157099 0.349002 0.878698 0.354685
C18   C     C_R   0.842900 0.650998 0.121302 0.354685
C19   C     C_R   0.202850 0.370559 0.788137 -0.102015
C20   C     C_R   0.797150 0.629441 0.211863 -0.102014
C21   C     C_R   0.450691 0.503278 0.813699 -0.103893
C22   C     C_R   0.549309 0.496722 0.186301 -0.103892
C23   C     C_R   0.411727 0.469266 0.901175 0.080997
C24   C     C_R   0.588273 0.530734 0.098825 0.080998
C25   C     C_R   0.259171 0.410771 0.936786 -0.090661
C26   C     C_R   0.740829 0.589229 0.063214 -0.090661
C27   C     C_R   0.521734 0.498785 0.954525 -0.036552
C28   C     C_R   0.478266 0.501216 0.045475 -0.036552
Cu1   Cu    Cu3+1 0.362980 0.479380 0.485080 1.030477
Cu2   Cu    Cu3+1 0.637020 0.520620 0.514920 1.030477
H1    H     H_    0.438679 0.429234 0.210411 0.187023
H2    H     H_    0.561321 0.570766 0.789589 0.187024
H3    H     H_    0.117063 0.563232 0.563914 0.207621
H4    H     H_    0.882937 0.436768 0.436086 0.207621
N1    N     N_2   0.842890 0.551600 0.537350 -0.282649
N2    N     N_2   0.157110 0.448400 0.462650 -0.282648
O1    O     O_R   0.426810 0.668300 0.492040 -0.551594
O2    O     O_R   0.573190 0.331700 0.507960 -0.551594
O3    O     O_R   0.658240 0.703130 0.517240 -0.560957
O4    O     O_R   0.341760 0.296870 0.482760 -0.560957
O5    O     O_R   0.319390 0.472820 0.610170 -0.595809
O6    O     O_R   0.680610 0.527180 0.389830 -0.595809
O7    O     O_R   0.550820 0.507640 0.635370 -0.585169
O8    O     O_R   0.449180 0.492360 0.364630 -0.585169
C29   C     C_2   0.058486 0.389766 0.069126 0.599340
H5    H     H_    0.982197 0.407611 0.035320 0.049943
O9    O     O_2   0.011544 0.341552 0.141039 -0.447283
C30   C     C_2   0.941514 0.610234 0.930874 0.599339
H6    H     H_    0.017803 0.592389 0.964679 0.049943
O10   O     O_2   0.988456 0.658449 0.858961 -0.447282
C31   C     C_2   0.900641 0.698802 0.273034 0.556934
H7    H     H_    0.861327 0.740549 0.333194 0.094889
O11   O     O_2   0.029904 0.707716 0.257676 -0.419629
C32   C     C_2   0.099359 0.301198 0.726966 0.556934
H8    H     H_    0.138673 0.259451 0.666806 0.094889
O12   O     O_2   0.970096 0.292284 0.742324 -0.419629
Cl1   Cl    Cl    0.984932 0.222047 0.914688 -0.477333
Cl2   Cl    Cl    0.015068 0.777953 0.085312 -0.477333
Cl3   Cl    Cl    0.279715 0.555655 0.179765 -0.527726
Cl4   Cl    Cl    0.720285 0.444346 0.820235 -0.527726
Cl5   Cl    Cl    0.651618 0.136831 0.393985 -0.463222
Cl6   Cl    Cl    0.348382 0.863168 0.606015 -0.463222
Cl7   Cl    Cl    0.209898 0.022595 0.533942 -0.411947
Cl8   Cl    Cl    0.790102 0.977405 0.466058 -0.411947
C33   C     C_2   0.108384 0.359594 0.393591 0.686898
H9    H     H_    0.184308 0.363742 0.333220 0.092625
O13   O     O_2   0.987156 0.271172 0.403800 -0.456689
C34   C     C_2   0.891616 0.640406 0.606409 0.686898
H10   H     H_    0.815692 0.636258 0.666780 0.092625
O14   O     O_2   0.012844 0.728828 0.596200 -0.456688

loop_
_geom_bond_atom_site_label_1
_geom_bond_atom_site_label_2
_ccdc_geom_bond_type
C2    C8    S    
C11   C12   S    
C32   O12   D    
Cu1   Cu2   S    
C14   C16   S    
C23   C27   A    
C12   N2    D    
Cu1   O4    S    
C24   C28   A    
C9    C10   S    
C2    O2    A    
C14   O8    A    
C18   C26   A    
C14   O6    A    
C16   C20   A    
C17   C25   A    
C4    Cl4   S    
C13   O5    A    
C3    C5    A    
Cu1   O8    S    
C34   H10   S    
C29   H5    S    
N2    C33   S    
C15   C19   A    
Cu1   N2    S    
C6    C26   A    
C15   C21   A    
C6    C30   S    
N1    C34   S    
C5    C25   A    
Cu2   N1    S    
C19   C32   S    
C30   O10   D    
C30   H6    S    
C17   C19   A    
C24   C26   A    
Cu2   O3    S    
C20   C31   S    
C18   C20   A    
C13   C15   S    
C21   C23   A    
Cu2   O7    S    
C21   H2    S    
C22   C24   A    
C7    Cl8   S    
C4    C6    A    
C33   O13   D    
C22   H1    S    
C1    O3    A    
C8    Cl7   S    
C9    Cl6   S    
C10   Cl5   S    
C2    O4    A    
C13   O7    A    
C23   C25   A    
Cu2   O2    S    
C8    C10   D    
C33   H9    S    
C29   O9    D    
Cu1   O1    S    
C27   C28   A    
C7    C9    D    
C34   O14   D    
C32   H8    S    
C3    C28   A    
C16   C22   A    
C4    C27   A    
Cu1   O5    S    
C12   H3    S    
C1    C7    S    
C5    C29   S    
C11   N1    D    
C18   Cl2   S    
C11   H4    S    
Cu2   O6    S    
C31   H7    S    
C17   Cl1   S    
C1    O1    A    
C31   O11   D    
C3    Cl3   S    
