data_mof_unit_65028.cif
_audit_creation_date              2013-03-05T16:35:00-0500
_audit_creation_method            fapswitch 2.2
_symmetry_space_group_name_H-M    P1
_symmetry_Int_Tables_number       1
_space_group_crystal_system       triclinic
_cell_length_a                    14.982763
_cell_length_b                    14.194182
_cell_length_c                    17.579998
_cell_angle_alpha                 89.954317
_cell_angle_beta                  90.267347
_cell_angle_gamma                 90.001659
_cell_volume                      3738.66226566

loop_
_atom_site_label
_atom_site_type_symbol
_atom_site_description
_atom_site_fract_x
_atom_site_fract_y
_atom_site_fract_z
_atom_type_partial_charge
O1    O     O_R   0.369060 0.579480 0.500010 -0.567423
O2    O     O_R   0.630940 0.420520 0.499990 -0.605346
O3    O     O_R   0.630940 0.579480 0.499990 -0.567594
O4    O     O_R   0.369060 0.420520 0.500010 -0.604809
C1    C     C_R   0.327825 0.499970 0.499952 0.949621
C2    C     C_R   0.672182 0.499972 0.500035 0.951130
O5    O     O_R   0.500000 0.579510 0.389120 -0.560952
O6    O     O_R   0.500000 0.420490 0.610880 -0.516454
O7    O     O_R   0.500000 0.579510 0.610880 -0.561275
O8    O     O_R   0.500000 0.420490 0.389120 -0.518001
C3    C     C_R   0.499479 0.500045 0.353537 0.956427
C4    C     C_R   0.499534 0.499956 0.646467 0.957754
Zn1   Zn    Zn3+2 0.500000 0.606140 0.500000 1.124967
Zn2   Zn    Zn3+2 0.500000 0.393860 0.500000 1.126460
C5    C     C_R   0.525042 0.577267 0.848831 -0.202517
C6    C     C_R   0.525439 0.423124 0.151346 -0.198998
C7    C     C_R   0.451747 0.575495 0.153481 -0.201531
C8    C     C_R   0.452452 0.424307 0.846237 -0.199391
C9    C     C_R   0.529947 0.577047 0.770124 0.609494
C10   C     C_R   0.530389 0.423310 0.230085 0.638428
C11   C     C_R   0.456382 0.576364 0.232227 0.608243
C12   C     C_R   0.457042 0.423395 0.767531 0.633637
C13   C     C_R   0.495991 0.499894 0.728981 -0.353491
C14   C     C_R   0.495871 0.500123 0.271012 -0.354808
C15   C     C_R   0.486392 0.501070 0.886225 -0.079704
C16   C     C_R   0.486228 0.499046 0.113702 -0.079910
C17   C     C_1   0.484072 0.500449 0.966219 0.076547
C18   C     C_1   0.484013 0.499765 0.033690 0.076549
C19   C     C_R   0.093612 0.573060 0.464204 0.692268
C20   C     C_R   0.905680 0.425310 0.464856 0.703300
C21   C     C_R   0.906459 0.573249 0.535250 0.692553
C22   C     C_R   0.094310 0.425446 0.535237 0.702950
C23   C     C_R   0.185789 0.573603 0.464830 -0.209057
C24   C     C_R   0.813484 0.425316 0.465448 -0.243056
C25   C     C_R   0.814282 0.573781 0.534709 -0.209269
C26   C     C_R   0.186506 0.425458 0.534729 -0.243375
C27   C     C_R   0.232039 0.499754 0.499897 -0.247944
C28   C     C_R   0.767982 0.499762 0.500012 -0.247786
C29   C     C_R   0.048049 0.499168 0.499752 -0.134421
C30   C     C_R   0.951980 0.499193 0.499986 -0.134406
C31   C     C_R   0.472503 0.104946 0.435590 0.530169
C32   C     C_R   0.573349 0.894911 0.528272 0.531951
C33   C     C_R   0.527467 0.104841 0.564450 0.530018
C34   C     C_R   0.426628 0.894962 0.471776 0.531298
C35   C     C_R   0.470973 0.204027 0.437430 0.546774
C36   C     C_R   0.571047 0.795829 0.529371 0.548377
C37   C     C_R   0.528991 0.203928 0.562592 0.548304
C38   C     C_R   0.428940 0.795883 0.470653 0.549372
N1    N     N_R   0.500000 0.252470 0.500000 -0.281574
N2    N     N_R   0.500000 0.747530 0.500000 -0.275405
C39   C     C_R   0.499989 0.053165 0.500023 -0.215947
C40   C     C_R   0.499988 0.946671 0.500026 -0.216854
H1    H     H_    0.551906 0.636327 0.880595 0.204656
H2    H     H_    0.552773 0.364345 0.119749 0.204452
H3    H     H_    0.421481 0.634273 0.123580 0.205176
H4    H     H_    0.422575 0.365341 0.875945 0.204637
F1    F     F_    0.569369 0.651052 0.734607 -0.576253
F2    F     F_    0.570570 0.349720 0.265847 -0.580372
F3    F     F_    0.420665 0.650521 0.270207 -0.575129
F4    F     F_    0.421656 0.348995 0.729360 -0.582406
F5    F     F_    0.048818 0.643523 0.428275 -0.568097
F6    F     F_    0.949748 0.354410 0.429284 -0.575416
F7    F     F_    0.951293 0.643874 0.570845 -0.568076
F8    F     F_    0.050202 0.354717 0.571086 -0.575363
H5    H     H_    0.220885 0.630519 0.436875 0.264372
H6    H     H_    0.777716 0.368285 0.437945 0.221028
H7    H     H_    0.779231 0.630831 0.562447 0.263872
H8    H     H_    0.222253 0.368565 0.562509 0.221906
F9    F     F_    0.449056 0.060360 0.370210 -0.506499
F10   F     F_    0.648104 0.939507 0.553151 -0.504680
F11   F     F_    0.550894 0.060144 0.629842 -0.506183
F12   F     F_    0.351862 0.939601 0.446920 -0.504637
F13   F     F_    0.439987 0.251180 0.375783 -0.528279
F14   F     F_    0.640734 0.748331 0.560145 -0.549175
F15   F     F_    0.559886 0.250998 0.624256 -0.527802
F16   F     F_    0.359239 0.748444 0.439896 -0.547023

loop_
_geom_bond_atom_site_label_1
_geom_bond_atom_site_label_2
_geom_bond_distance
_ccdc_geom_bond_type
C1    C27   1.435133 S    
C38   F16   1.353373 S    
O3    C2    1.286659 A    
C24   H6    1.083722 S    
C23   H5    1.082788 S    
C37   N1    1.366952 A    
C9    F1    1.358145 S    
O5    C3    1.290234 A    
C4    C13   1.451800 S    
O1    C1    1.286605 A    
C7    C16   1.392134 A    
C22   C26   1.381423 A    
C26   C27   1.398333 A    
C11   F3    1.358180 S    
C12   F4    1.358084 S    
C5    C15   1.392715 A    
Zn2   N1    2.006915 S    
C19   C23   1.381078 A    
C3    C14   1.451549 S    
C32   F10   1.357310 S    
C21   C30   1.399807 A    
C35   F13   1.353576 S    
C32   C36   1.406933 A    
C22   C29   1.399833 A    
O7    Zn1   1.985283 S    
C5    C9    1.385950 A    
C10   C14   1.406651 A    
O6    Zn2   1.985875 S    
C2    C28   1.435352 S    
C35   N1    1.366984 A    
C7    H3    1.084024 S    
O3    Zn1   1.998016 S    
C6    C10   1.385881 A    
C34   C40   1.410276 A    
C38   N2    1.365696 A    
C24   C28   1.398403 A    
O2    C2    1.285928 A    
C8    C15   1.392073 A    
C6    C16   1.392735 A    
C19   F5    1.358224 S    
C20   C24   1.381428 A    
C39   C40   1.511594 S    
C21   F7    1.358238 S    
C25   C28   1.397908 A    
C22   F8    1.358183 S    
O8    Zn2   1.985285 S    
C29   C30   1.439407 S    
C23   C27   1.397865 A    
C9    C13   1.406800 A    
C25   H7    1.082760 S    
O6    C4    1.290310 A    
C19   C29   1.399825 A    
C20   C30   1.399799 A    
C20   F6    1.358191 S    
C21   C25   1.381074 A    
O1    Zn1   1.997997 S    
C10   F2    1.358017 S    
C5    H1    1.084079 S    
C36   F14   1.353360 S    
C31   F9    1.357346 S    
C33   F11   1.357336 S    
C8    C12   1.385747 A    
O4    C1    1.285879 A    
C26   H8    1.083727 S    
C8    H4    1.084033 S    
C15   C17   1.406891 S    
C36   N2    1.365696 A    
C16   C18   1.406885 S    
C37   F15   1.353610 S    
C33   C39   1.409722 A    
C34   F12   1.357309 S    
O4    Zn2   1.998019 S    
O2    Zn2   1.997994 S    
O7    C4    1.290536 A    
C6    H2    1.084077 S    
O8    C3    1.290478 A    
Zn1   N2    2.006915 S    
O5    Zn1   1.985876 S    
C11   C14   1.407537 A    
C17   C18   1.186178 T    
C31   C35   1.406954 A    
C12   C13   1.407620 A    
C33   C37   1.407009 A    
C31   C39   1.409689 A    
C34   C38   1.406928 A    
C32   C40   1.410259 A    
C7    C11   1.385833 A    
