data_mof_unit_25240.cif
_audit_creation_date              2012-12-10T18:55:59-0500
_audit_creation_method            fapswitch 2.2
_symmetry_space_group_name_H-M    P1
_symmetry_Int_Tables_number       1
_space_group_crystal_system       triclinic
_cell_length_a                    10.63541
_cell_length_b                    9.989536
_cell_length_c                    14.996068
_cell_angle_alpha                 89.978251
_cell_angle_beta                  92.446382
_cell_angle_gamma                 89.646378
_cell_volume                      1591.74171386

loop_
_atom_site_label
_atom_site_type_symbol
_atom_type_description
_atom_site_fract_x
_atom_site_fract_y
_atom_site_fract_z
_atom_type_partial_charge
C1    C     C_R   0.260909 0.500490 0.500617 0.980641
C2    C     C_R   0.931692 0.554063 0.425409 0.289026
C3    C     C_R   0.937808 0.442011 0.572399 0.417791
C4    C     C_R   0.062381 0.557926 0.428456 0.426011
C5    C     C_R   0.569077 0.604519 0.096854 0.338355
C6    C     C_R   0.585601 0.416044 0.907729 0.416261
C7    C     C_R   0.418600 0.589046 0.902417 0.401663
C8    C     C_R   0.436716 0.403398 0.089897 0.387062
C9    C     C_R   0.565446 0.602815 0.188907 0.592868
C10   C     C_R   0.582073 0.414448 0.815466 0.605985
C11   C     C_R   0.419700 0.587428 0.810215 0.584526
C12   C     C_R   0.739178 0.499479 0.499892 0.968618
C13   C     C_R   0.435879 0.402188 0.182863 0.482792
C14   C     C_R   0.500436 0.501434 0.231904 -0.462630
C15   C     C_R   0.500433 0.500258 0.767225 -0.522491
C16   C     C_R   0.503637 0.504234 0.047759 -0.274265
C17   C     C_R   0.502836 0.503433 0.951463 -0.249227
C18   C     C_R   0.871839 0.497651 0.498433 -0.312629
C19   C     C_R   0.128374 0.502173 0.502363 -0.298313
C20   C     C_R   0.499496 0.500211 0.328076 1.015835
C21   C     C_R   0.500375 0.499998 0.671604 1.032670
C22   C     C_R   0.577172 0.070308 0.558557 0.408689
C23   C     C_R   0.422909 0.929620 0.441380 0.435839
C24   C     C_R   0.422674 0.071257 0.441534 0.419922
C25   C     C_R   0.576995 0.928658 0.558719 0.436728
C26   C     C_R   0.068593 0.445342 0.575350 0.305930
F1    F     F_    0.628195 0.699278 0.236320 -0.556681
F2    F     F_    0.662196 0.332295 0.772905 -0.547156
F3    F     F_    0.338905 0.668536 0.762333 -0.567611
F4    F     F_    0.369272 0.307495 0.225155 -0.600702
H1    H     H_    0.656081 0.227611 0.608870 0.419553
H2    H     H_    0.780623 0.565543 0.346512 0.357494
H3    H     H_    0.928819 0.352357 0.688536 0.427722
H4    H     H_    0.071192 0.648423 0.312587 0.415299
H5    H     H_    0.344567 0.772172 0.390369 0.399210
H6    H     H_    0.343893 0.229517 0.390688 0.407537
H7    H     H_    0.655211 0.770271 0.610335 0.382942
H8    H     H_    0.639250 0.692084 0.993117 0.355080
H9    H     H_    0.673337 0.348262 0.016636 0.354921
H10   H     H_    0.335769 0.662643 0.006390 0.360043
H11   H     H_    0.331633 0.244088 0.077297 0.411216
H12   H     H_    0.221165 0.428525 0.653034 0.353190
N1    N     N_R   0.500000 0.857200 0.500000 -0.279872
N2    N     N_R   0.500000 0.142800 0.500000 -0.292869
O1    O     O_R   0.316770 0.614620 0.499990 -0.605669
O2    O     O_3   0.341978 0.868817 0.380117 -0.630305
O3    O     O_3   0.340825 0.132893 0.380818 -0.605346
O4    O     O_3   0.657823 0.866949 0.620175 -0.642622
O5    O     O_3   0.637201 0.705235 0.058354 -0.618337
O6    O     O_3   0.671234 0.331483 0.951669 -0.619934
O7    O     O_3   0.334201 0.675165 0.941001 -0.622002
O8    O     O_3   0.373246 0.308670 0.038219 -0.663000
O9    O     O_3   0.133915 0.394744 0.649999 -0.702355
O10   O     O_3   0.866296 0.603475 0.350530 -0.680688
O11   O     O_3   0.870732 0.389904 0.641533 -0.679505
O12   O     O_R   0.683230 0.385380 0.500010 -0.620803
O13   O     O_3   0.129353 0.610116 0.359264 -0.720431
O14   O     O_R   0.683230 0.614620 0.500010 -0.631154
O15   O     O_R   0.316770 0.385380 0.499990 -0.645838
O16   O     O_R   0.499990 0.614660 0.369060 -0.592339
O17   O     O_R   0.500010 0.385340 0.630940 -0.603819
O18   O     O_R   0.500010 0.614660 0.630940 -0.602660
O19   O     O_R   0.499990 0.385340 0.369060 -0.599518
O20   O     O_3   0.658490 0.131081 0.619503 -0.593675
Zn1   Zn    Zn3+2 0.500000 0.653120 0.500000 1.035884
Zn2   Zn    Zn3+2 0.500000 0.346880 0.500000 1.017142

loop_
_geom_bond_atom_site_label_1
_geom_bond_atom_site_label_2
_ccdc_geom_bond_type
C4    O13   S    
C6    C10   A    
H4    O13   S    
C2    C4    A    
C23   C24   A    
C5    C9    A    
C8    C13   A    
C10   F2    S    
C20   O16   A    
H10   O7    S    
C8    O8    S    
O14   Zn1   S    
C21   O17   A    
N1    Zn1   S    
C9    C14   A    
C5    O5    S    
C25   N1    A    
C20   O19   A    
O19   Zn2   S    
C7    O7    S    
H3    O11   S    
C8    C16   A    
C23   O2    S    
C13   C14   A    
C6    O6    S    
H7    O4    S    
C7    C11   A    
C4    C19   A    
C25   O4    S    
C1    O1    A    
C21   O18   A    
C12   O12   A    
C3    O11   S    
C12   O14   A    
H6    O3    S    
O12   Zn2   S    
N2    Zn2   S    
H1    O20   S    
H2    O10   S    
O16   Zn1   S    
C10   C15   A    
C1    O15   A    
H12   O9    S    
O1    Zn1   S    
C24   N2    A    
C1    C19   S    
C2    C18   A    
C11   F3    S    
C22   O20   S    
O15   Zn2   S    
C26   O9    S    
C14   C20   S    
C13   F4    S    
C15   C21   S    
H9    O6    S    
C23   N1    A    
C9    F1    S    
C3    C18   A    
C2    O10   S    
C12   C18   S    
C6    C17   A    
C19   C26   A    
C5    C16   A    
H11   O8    S    
O18   Zn1   S    
H8    O5    S    
C24   O3    S    
C11   C15   A    
O17   Zn2   S    
C3    C26   A    
C22   N2    A    
C16   C17   S    
C7    C17   A    
C22   C25   A    
H5    O2    S    
