data_mof_unit_53620.cif
_audit_creation_date              2012-12-10T17:33:02-0500
_audit_creation_method            fapswitch 2.2
_symmetry_space_group_name_H-M    P1
_symmetry_Int_Tables_number       1
_space_group_crystal_system       triclinic
_cell_length_a                    12.381413
_cell_length_b                    13.408756
_cell_length_c                    14.373198
_cell_angle_alpha                 93.939622
_cell_angle_beta                  108.052582
_cell_angle_gamma                 117.37532
_cell_volume                      1950.63968449

loop_
_atom_site_label
_atom_site_type_symbol
_atom_type_description
_atom_site_fract_x
_atom_site_fract_y
_atom_site_fract_z
_atom_type_partial_charge
C1    C     C_R   0.652362 0.714102 0.510412 0.791167
C2    C     C_R   0.844796 0.501516 0.922832 0.039792
C3    C     C_R   0.827493 0.559851 0.998103 0.014997
C4    C     C_R   0.930225 0.455838 0.951070 -0.036757
C5    C     C_R   0.023904 0.497067 0.052461 -0.078848
C6    C     C_R   0.003822 0.554597 0.125937 -0.123624
C7    C     C_R   0.902220 0.579298 0.100234 0.484320
C8    C     C_R   0.920370 0.365492 0.884488 0.357731
C9    C     C_R   0.012012 0.329711 0.914168 -0.225197
C10   C     C_R   0.112694 0.378569 0.009787 0.049066
C11   C     C_R   0.123901 0.466615 0.079409 0.028937
C12   C     C_R   0.620461 0.519420 0.686588 0.790784
C13   C     C_R   0.198208 0.334979 0.038030 -0.169942
C14   C     C_R   0.289766 0.372432 0.136521 -0.260364
C15   C     C_R   0.232253 0.516570 0.174162 0.309601
C16   C     C_R   0.172901 0.963558 0.402674 0.378429
C17   C     C_R   0.265223 0.164321 0.483476 -0.121886
C18   C     C_R   0.737833 0.920962 0.581968 -0.157182
C19   C     C_R   0.836853 0.036422 0.611440 -0.129286
C20   C     C_R   0.945218 0.070294 0.584893 -0.186666
C21   C     C_R   0.954079 0.989151 0.523444 0.097227
C22   C     C_R   0.846706 0.873284 0.486108 0.089747
C23   C     C_R   0.349500 0.286586 0.490679 0.818644
C24   C     C_R   0.064208 0.019403 0.495702 0.021930
C25   C     C_R   0.065006 0.934126 0.431440 0.059020
C26   C     C_R   0.954692 0.823532 0.391609 -0.177226
C27   C     C_R   0.844895 0.795944 0.413326 -0.213385
C28   C     C_R   0.171389 0.132993 0.526232 -0.264316
C29   C     C_R   0.270623 0.079038 0.426791 -0.209232
C30   C     C_R   0.743437 0.837725 0.522119 -0.093979
C31   C     C_R   0.260493 0.710719 0.633292 -0.269975
C32   C     C_R   0.650847 0.346004 0.359675 0.025399
C33   C     C_R   0.725799 0.329069 0.313089 -0.382014
C34   C     C_R   0.381407 0.483252 0.313576 0.835580
C35   C     C_R   0.865226 0.398943 0.355695 0.501272
C36   C     C_R   0.926770 0.472345 0.454820 -0.055549
C37   C     C_R   0.844941 0.498351 0.491068 0.215844
C38   C     C_R   0.067940 0.534389 0.512545 -0.040980
C39   C     C_R   0.123604 0.639508 0.584867 0.105018
C40   C     C_R   0.042124 0.669476 0.612881 -0.233394
C41   C     C_R   0.906201 0.596031 0.571929 -0.153585
C42   C     C_R   0.155108 0.491713 0.511546 0.672449
C43   C     C_R   0.342418 0.674922 0.614771 0.021211
C44   C     C_R   0.690054 0.533059 0.793774 -0.066521
C45   C     C_R   0.304430 0.460666 0.205841 -0.121833
C46   C     C_R   0.737734 0.599641 0.969732 -0.149425
C47   C     C_R   0.666451 0.582855 0.868303 -0.206774
C48   C     C_R   0.783236 0.497989 0.821843 -0.126908
Cu1   Cu    Cu3+1 0.416420 0.526630 0.522910 0.994681
Cu2   Cu    Cu3+1 0.583580 0.473370 0.477090 0.938788
H1    H     H_    0.188681 0.266518 0.985578 0.148659
H2    H     H_    0.347050 0.102435 0.396985 0.190158
H3    H     H_    0.950294 0.758609 0.339981 0.245466
H4    H     H_    0.179270 0.201499 0.576436 0.186607
H5    H     H_    0.659217 0.896276 0.609464 0.164700
H6    H     H_    0.019277 0.160817 0.613456 0.160103
H7    H     H_    0.831989 0.099698 0.658380 0.195084
H8    H     H_    0.757881 0.713470 0.370029 0.179143
H9    H     H_    0.448134 0.731899 0.649373 0.140746
H10   H     H_    0.084238 0.747436 0.671257 0.154916
H11   H     H_    0.303967 0.793705 0.685470 0.160317
H12   H     H_    0.544480 0.296533 0.323155 0.150101
H13   H     H_    0.672281 0.267562 0.240122 0.156002
H14   H     H_    0.851774 0.620969 0.603191 0.195533
H15   H     H_    0.346530 0.330060 0.159258 0.163315
H16   H     H_    0.000875 0.258965 0.863189 0.166773
H17   H     H_    0.723335 0.645406 0.025341 0.174565
H18   H     H_    0.596831 0.613070 0.848454 0.162076
H19   H     H_    0.811445 0.472415 0.764672 0.201847
H20   H     H_    0.057609 0.571094 0.205555 0.258806
N1    N     N_R   0.290690 0.566960 0.557640 -0.217299
N2    N     N_R   0.709100 0.433710 0.442970 -0.201398
O1    O     O_R   0.545970 0.684450 0.528810 -0.570240
O2    O     O_R   0.687130 0.639470 0.490120 -0.613543
O3    O     O_R   0.519670 0.535100 0.660030 -0.582917
O4    O     O_R   0.660830 0.490120 0.621340 -0.587630
O5    O     O_R   0.312870 0.360530 0.509880 -0.554091
O6    O     O_R   0.454030 0.315550 0.471190 -0.578387
O7    O     O_R   0.339170 0.509880 0.378660 -0.547596
O8    O     O_R   0.480330 0.464900 0.339970 -0.605729
O9    O     O_3   0.886012 0.632420 0.176549 -0.559974
C49   C     C_3   0.768728 0.554680 0.188220 -0.325448
H21   H     H_    0.793755 0.549324 0.267917 0.199081
H22   H     H_    0.713506 0.464867 0.138972 0.143999
H23   H     H_    0.701842 0.590413 0.173444 0.171613
Cl1   Cl    Cl    0.185120 0.860765 0.329621 -0.545693
Cl2   Cl    Cl    0.300775 0.660517 0.243877 -0.560648
O10   O     O_3   0.109321 0.375051 0.509067 -0.605263
C50   C     C_3   0.056817 0.305593 0.410681 -0.207410
H24   H     H_    0.077150 0.234121 0.412914 0.163843
H25   H     H_    0.100068 0.352677 0.359030 0.193377
H26   H     H_    0.948228 0.258804 0.382129 0.173126
O11   O     O_3   0.942579 0.414419 0.298783 -0.599506
C51   C     C_3   0.878942 0.328323 0.206838 -0.394595
H27   H     H_    0.806628 0.341936 0.149312 0.184308
H28   H     H_    0.831367 0.238887 0.217104 0.163822
H29   H     H_    0.954235 0.335454 0.177335 0.193527
Cl3   Cl    Cl    0.779888 0.272913 0.773617 -0.671031

loop_
_geom_bond_atom_site_label_1
_geom_bond_atom_site_label_2
_ccdc_geom_bond_type
O11   C51   S    
C40   H10   S    
C17   C29   A    
C31   H11   S    
C35   C36   A    
C48   H19   S    
C4    C8    A    
O9    C49   S    
C32   N2    A    
C19   H7    S    
C26   C27   A    
C17   C23   S    
C31   C43   A    
C1    O2    A    
C36   C37   A    
C5    C11   A    
C3    C7    A    
Cu2   O2    S    
C5    C6    A    
C18   C19   A    
Cu2   N2    S    
C9    H16   S    
C42   N1    A    
C8    Cl3   S    
C34   O8    A    
C13   H1    S    
C11   C15   A    
C19   C20   A    
C31   C39   A    
C8    C9    A    
Cu1   O3    S    
C18   C30   A    
C50   H25   S    
C9    C10   A    
C44   C47   A    
C43   H9    S    
C21   C22   A    
C16   Cl1   S    
Cu2   O6    S    
C14   C45   A    
C35   O11   S    
C24   C25   A    
C39   C40   A    
C28   H4    S    
C51   H29   S    
C2    C48   A    
C16   C29   A    
C10   C13   A    
Cu1   O7    S    
C2    C4    A    
Cu2   O4    S    
C34   O7    A    
C33   H13   S    
C20   C21   A    
C34   C45   S    
C23   O5    A    
C50   H26   S    
C51   H28   S    
C18   H5    S    
C40   C41   A    
C7    O9    S    
Cu1   Cu2   S    
C49   H22   S    
C22   C27   A    
C12   O4    A    
Cu1   O1    S    
C21   C24   A    
C42   O10   S    
C15   C45   A    
C26   H3    S    
C47   H18   S    
C15   Cl2   S    
C16   C25   A    
C6    H20   S    
C46   C47   A    
C43   N1    A    
C22   C30   A    
C17   C28   A    
C24   C28   A    
C4    C5    A    
C27   H8    S    
Cu2   O8    S    
C38   C42   A    
C6    C7    A    
C49   H23   S    
C3    C46   A    
C1    O1    A    
C32   C33   A    
C36   C38   A    
C2    C3    A    
C25   C26   A    
C32   H12   S    
C46   H17   S    
C12   C44   S    
C38   C39   A    
C1    C30   S    
C33   C35   A    
C14   H15   S    
Cu1   O5    S    
C20   H6    S    
C23   O6    A    
C37   C41   A    
C51   H27   S    
C10   C11   A    
C12   O3    A    
O10   C50   S    
C49   H21   S    
Cu1   N1    S    
C37   N2    A    
C41   H14   S    
C50   H24   S    
C13   C14   A    
C44   C48   A    
C29   H2    S    
