data_mof_unit_55065.cif
_audit_creation_date              2012-12-10T17:50:30-0500
_audit_creation_method            fapswitch 2.2
_symmetry_space_group_name_H-M    P1
_symmetry_Int_Tables_number       1
_space_group_crystal_system       triclinic
_cell_length_a                    15.679249
_cell_length_b                    10.650426
_cell_length_c                    9.937791
_cell_angle_alpha                 92.542883
_cell_angle_beta                  89.454869
_cell_angle_gamma                 90.059726
_cell_volume                      1657.80899548

loop_
_atom_site_label
_atom_site_type_symbol
_atom_type_description
_atom_site_fract_x
_atom_site_fract_y
_atom_site_fract_z
_atom_type_partial_charge
C1    C     C_R   0.507140 0.260461 0.497254 0.939358
C2    C     C_R   0.610649 0.074877 0.827034 -0.352221
C3    C     C_R   0.565072 0.968100 0.860032 -0.030660
C4    C     C_R   0.338146 0.500178 0.500543 0.869722
C5    C     C_R   0.519331 0.902120 0.759241 -0.158734
C6    C     C_R   0.515901 0.945180 0.626425 0.005629
C7    C     C_R   0.546543 0.065577 0.604171 0.003197
C8    C     C_R   0.514136 0.126575 0.492349 -0.134310
C9    C     C_R   0.466834 0.062328 0.392979 -0.227154
C10   C     C_R   0.449348 0.936097 0.402875 -0.023408
C11   C     C_R   0.480608 0.875005 0.515179 -0.183356
C12   C     C_3   0.083089 0.500545 0.500481 0.176918
C13   C     C_R   0.372621 0.368009 0.128905 -0.290749
C14   C     C_R   0.294999 0.341204 0.060749 0.480560
C15   C     C_R   0.280213 0.402919 0.941702 -0.191174
C16   C     C_R   0.492290 0.740142 0.504095 0.848163
C17   C     C_R   0.343858 0.478120 0.885674 -0.054498
C18   C     C_R   0.428032 0.465573 0.930928 0.040740
C19   C     C_R   0.435177 0.442616 0.069502 0.118708
C20   C     C_R   0.565335 0.549825 0.074372 -0.008947
C21   C     C_R   0.566777 0.548040 0.930905 0.027226
C22   C     C_R   0.661939 0.500592 0.499395 0.943908
C23   C     C_3   0.972772 0.589848 0.417748 -0.164289
C24   C     C_3   0.970453 0.525172 0.625744 -0.252696
C25   C     C_3   0.027425 0.411722 0.580889 -0.183681
C26   C     C_1   0.249268 0.500623 0.501734 -0.143399
C27   C     C_1   0.750975 0.501054 0.497826 -0.189091
C28   C     C_3   0.027428 0.612501 0.544364 0.038248
C29   C     C_2   0.566468 0.926496 0.000064 0.455566
C30   C     C_2   0.391738 0.872456 0.302838 0.487672
C31   C     C_3   0.240698 0.224342 0.238633 0.080230
C32   C     C_3   0.160654 0.155229 0.283496 -0.321391
C33   C     C_3   0.169106 0.112600 0.427389 -0.885013
C34   C     C_3   0.917345 0.500741 0.498424 0.188302
C35   C     C_2   0.317263 0.601320 0.835537 0.513387
C36   C     C_2   0.635898 0.617838 0.865996 0.427534
C37   C     C_2   0.059866 0.737773 0.595186 0.421910
C38   C     C_3   0.739717 0.213188 0.687931 0.033970
C39   C     C_3   0.768349 0.309998 0.796982 -0.280114
C40   C     C_3   0.860834 0.288734 0.836215 -0.959373
C41   C     C_3   0.029724 0.476201 0.373469 -0.175463
C42   C     C_3   0.972347 0.387199 0.453887 -0.165891
C43   C     C_1   0.173937 0.500515 0.501569 -0.003025
C44   C     C_1   0.826410 0.500966 0.497525 -0.068028
C45   C     C_R   0.604703 0.122539 0.697672 0.522931
H1    H     H_    0.052188 0.338967 0.646943 0.150547
H2    H     H_    0.439536 0.112491 0.311230 0.177956
H3    H     H_    0.649002 0.122992 0.903095 0.142451
H4    H     H_    0.604384 0.977368 0.075354 0.060963
H5    H     H_    0.363771 0.781819 0.322598 0.080395
H6    H     H_    0.251434 0.304855 0.311353 0.134122
H7    H     H_    0.295324 0.157852 0.238300 0.172132
H8    H     H_    0.104611 0.218578 0.278417 0.218918
H9    H     H_    0.149684 0.071803 0.214612 0.249993
H10   H     H_    0.223762 0.046957 0.434447 0.280923
H11   H     H_    0.109849 0.063512 0.457309 0.288203
H12   H     H_    0.482095 0.822707 0.788954 0.195897
H13   H     H_    0.178874 0.194938 0.498194 0.246886
H14   H     H_    0.364698 0.673375 0.818879 0.076283
H15   H     H_    0.623546 0.669423 0.777062 0.117875
H16   H     H_    0.043064 0.773193 0.695950 0.073673
H17   H     H_    0.774852 0.231695 0.593230 0.157311
H18   H     H_    0.758649 0.116439 0.714767 0.132731
H19   H     H_    0.762006 0.405949 0.759174 0.255765
H20   H     H_    0.727228 0.304787 0.888080 0.222807
H21   H     H_    0.867331 0.197023 0.884147 0.264364
H22   H     H_    0.881397 0.364678 0.908976 0.277950
H23   H     H_    0.616546 0.594091 0.131351 0.181365
H24   H     H_    0.902903 0.289359 0.745882 0.266856
H25   H     H_    0.385514 0.330081 0.224713 0.178663
H26   H     H_    0.216231 0.402646 0.901350 0.193684
H27   H     H_    0.944159 0.545811 0.728484 0.163966
H28   H     H_    0.947445 0.294488 0.416850 0.136664
H29   H     H_    0.056180 0.456038 0.270753 0.158144
H30   H     H_    0.948492 0.663007 0.351760 0.151635
N1    N     N_R   0.499210 0.498800 0.142780 -0.126405
N2    N     N_R   0.499180 0.498720 0.857170 -0.166675
O1    O     O_R   0.500000 0.316780 0.614690 -0.567755
O2    O     O_2   0.373235 0.921716 0.198363 -0.559743
O3    O     O_3   0.228252 0.267463 0.108046 -0.634983
O4    O     O_2   0.242505 0.623996 0.812998 -0.593985
O5    O     O_2   0.707080 0.623063 0.914759 -0.622220
O6    O     O_2   0.105427 0.800201 0.523699 -0.574463
O7    O     O_3   0.651404 0.227662 0.663181 -0.639335
O8    O     O_R   0.499990 0.316750 0.385360 -0.655610
O9    O     O_R   0.376780 0.500000 0.614650 -0.626786
O10   O     O_R   0.376770 0.499980 0.385310 -0.638033
O11   O     O_R   0.500010 0.683250 0.614640 -0.668974
O12   O     O_R   0.500000 0.683220 0.385310 -0.602314
O13   O     O_R   0.623230 0.500020 0.614690 -0.617423
O14   O     O_R   0.623220 0.500000 0.385350 -0.618172
O15   O     O_2   0.524912 0.835893 0.033534 -0.578830
Zn1   Zn    Zn3+2 0.500010 0.500020 0.653130 0.954155
Zn2   Zn    Zn3+2 0.499990 0.499980 0.346870 0.951217

loop_
_geom_bond_atom_site_label_1
_geom_bond_atom_site_label_2
_ccdc_geom_bond_type
C33   H10   S    
C33   H13   S    
C1    C8    S    
C41   C42   S    
C34   C42   S    
C31   H7    S    
C35   O4    D    
C31   O3    S    
C21   C36   S    
C29   H4    S    
C39   H19   S    
C12   C28   S    
C7    C45   A    
C19   N1    A    
C12   C43   S    
C38   C39   S    
C4    O9    A    
C13   H25   S    
O1    Zn1   S    
O10   Zn2   S    
C20   N1    A    
C35   H14   S    
C18   C19   A    
O8    Zn2   S    
O12   Zn2   S    
C3    C29   S    
N1    Zn2   S    
C41   H29   S    
C27   C44   T    
C36   O5    D    
C8    C9    A    
C40   H22   S    
C22   O14   A    
C14   O3    S    
C9    C10   A    
C33   H11   S    
C30   H5    S    
C16   O12   A    
C40   H21   S    
C13   C14   A    
C1    O1    A    
C39   H20   S    
C32   H9    S    
C26   C43   T    
C2    C45   A    
C1    O8    A    
C40   H24   S    
C13   C19   A    
C7    C8    A    
C34   C44   S    
C24   C25   S    
C31   H6    S    
C6    C11   A    
C4    O10   A    
C2    H3    S    
C24   C34   S    
C12   C41   S    
O9    Zn1   S    
C11   C16   S    
C10   C30   S    
C4    C26   S    
C31   C32   S    
C23   C34   S    
C17   C18   A    
C22   O13   A    
C23   C28   S    
C30   O2    D    
C9    H2    S    
C22   C27   S    
C45   O7    S    
C3    C5    A    
C32   H8    S    
C39   C40   S    
C24   H27   S    
O13   Zn1   S    
C38   H18   S    
C15   C17   A    
O11   Zn1   S    
C42   H28   S    
C38   O7    S    
C20   H23   S    
C24   C28   S    
C23   H30   S    
C36   H15   S    
C25   C42   S    
C37   H16   S    
C6    C7    A    
C15   H26   S    
C23   C41   S    
C5    H12   S    
C12   C25   S    
C32   C33   S    
C2    C3    A    
O14   Zn2   S    
C5    C6    A    
C28   C37   S    
C18   N2    A    
N2    Zn1   S    
C10   C11   A    
C20   C21   A    
C21   N2    A    
C16   O11   A    
C14   C15   A    
C37   O6    D    
C17   C35   S    
C25   H1    S    
C29   O15   D    
C38   H17   S    
