data_mof_unit_39530.cif
_audit_creation_date              2012-12-11T15:50:25-0500
_audit_creation_method            fapswitch 2.2
_symmetry_space_group_name_H-M    P1
_symmetry_Int_Tables_number       1
_space_group_crystal_system       triclinic
_cell_length_a                    19.279705
_cell_length_b                    11.29437
_cell_length_c                    18.747809
_cell_angle_alpha                 90.069483
_cell_angle_beta                  89.434171
_cell_angle_gamma                 88.994392
_cell_volume                      4081.54346871

loop_
_atom_site_label
_atom_site_type_symbol
_atom_type_description
_atom_site_fract_x
_atom_site_fract_y
_atom_site_fract_z
_atom_type_partial_charge
C1    C     C_R   0.290214 0.997783 0.860450 0.541373
C2    C     C_R   0.711247 0.999614 0.138475 0.562272
C3    C     C_R   0.789596 0.499111 0.860544 0.546524
C4    C     C_R   0.211889 0.500938 0.138454 0.562975
C5    C     C_3   0.521911 0.738726 0.967123 0.037507
C6    C     C_3   0.473989 0.729748 0.033585 0.045140
C7    C     C_3   0.020907 0.240638 0.967212 0.042294
C8    C     C_3   0.973287 0.229873 0.033830 0.051704
C9    C     C_R   0.221640 0.519019 0.060253 0.016015
C10   C     C_R   0.781803 0.517138 0.938773 0.005200
C11   C     C_R   0.719316 0.014566 0.059449 0.009658
C12   C     C_R   0.283620 0.013267 0.939287 -0.010295
C13   C     C_R   0.264554 0.444171 0.015677 -0.085203
C14   C     C_R   0.740286 0.445237 0.983276 -0.087636
C15   C     C_R   0.764057 0.942497 0.015276 -0.076581
C16   C     C_R   0.239418 0.944529 0.983145 -0.074450
C17   C     C_R   0.273870 0.476024 0.943795 0.024438
C18   C     C_R   0.727133 0.477626 0.055094 0.010331
C19   C     C_R   0.773913 0.975264 0.943560 0.033964
C20   C     C_R   0.225982 0.977767 0.055085 0.023788
C21   C     C_R   0.179679 0.614582 0.952164 -0.121825
C22   C     C_R   0.802226 0.639609 0.040850 -0.072001
C23   C     C_R   0.676829 0.107603 0.950232 -0.109826
C24   C     C_R   0.300538 0.139929 0.040173 -0.066208
C25   C     C_R   0.178849 0.603805 0.025667 0.197924
C26   C     C_R   0.816493 0.611680 0.971283 0.221326
C27   C     C_R   0.674002 0.094675 0.023967 0.201578
C28   C     C_R   0.318312 0.107770 0.972133 0.224231
C29   C     C_3   0.342116 0.426939 0.021544 -0.241909
C30   C     C_3   0.665703 0.423824 0.972929 -0.223316
C31   C     C_3   0.841573 0.927968 0.022077 -0.240364
C32   C     C_3   0.164307 0.931665 0.971163 -0.222096
C33   C     C_3   0.350085 0.467825 0.945456 0.105298
C34   C     C_3   0.651136 0.457668 0.049795 0.108116
C35   C     C_3   0.850101 0.970355 0.946281 0.104108
C36   C     C_3   0.149472 0.965618 0.047877 0.105106
C37   C     C_R   0.235255 0.566269 0.912272 -0.009476
C38   C     C_R   0.758888 0.575583 0.083881 -0.002125
C39   C     C_R   0.734533 0.064027 0.911591 -0.013239
C40   C     C_R   0.258684 0.074828 0.083917 -0.006135
C41   C     C_R   0.484916 0.825450 0.417287 0.000653
C42   C     C_R   0.482522 0.824338 0.568156 -0.008308
C43   C     C_R   0.992269 0.329562 0.420987 -0.009867
C44   C     C_R   0.990555 0.321883 0.571726 0.000045
C45   C     C_R   0.444181 0.818749 0.862371 0.560819
C46   C     C_R   0.535305 0.821760 0.142809 0.559094
C47   C     C_R   0.943234 0.318849 0.862397 0.560509
C48   C     C_R   0.034874 0.321870 0.143030 0.562847
C49   C     C_R   0.470290 0.720700 0.455396 0.020933
C50   C     C_R   0.471223 0.721331 0.529056 0.024695
C51   C     C_R   0.970162 0.227148 0.457082 0.031666
C52   C     C_R   0.971704 0.224042 0.530840 0.033983
C53   C     C_R   0.483835 0.931116 0.529934 -0.095423
C54   C     C_R   0.476465 0.931859 0.455052 -0.096314
C55   C     C_R   0.006373 0.426458 0.536048 -0.093387
C56   C     C_R   0.000471 0.432767 0.461649 -0.116526
C57   C     C_3   0.501514 0.598171 0.453968 -0.273833
C58   C     C_3   0.507141 0.604190 0.534185 -0.277927
C59   C     C_3   0.994310 0.100243 0.452639 -0.272717
C60   C     C_3   0.003541 0.102988 0.532323 -0.282920
C61   C     C_R   0.243998 0.586065 0.422156 -0.009305
C62   C     C_R   0.761215 0.573872 0.574504 -0.000644
C63   C     C_R   0.744844 0.087794 0.421298 -0.003884
C64   C     C_R   0.258142 0.084738 0.578436 -0.000010
C65   C     C_R   0.188724 0.626970 0.463719 0.122076
C66   C     C_R   0.817841 0.603927 0.533138 0.134349
C67   C     C_R   0.690977 0.127871 0.464139 0.125369
C68   C     C_R   0.313563 0.121397 0.537366 0.131756
C69   C     C_R   0.198804 0.657664 0.532773 -0.008415
C70   C     C_R   0.814492 0.613553 0.461334 -0.015668
C71   C     C_R   0.700507 0.158490 0.531940 -0.000889
C72   C     C_R   0.308314 0.137635 0.466231 -0.020995
C73   C     C_R   0.319466 0.601635 0.522890 -0.176312
C74   C     C_R   0.695572 0.553994 0.467644 -0.179548
C75   C     C_R   0.819785 0.100254 0.523347 -0.178218
C76   C     C_R   0.188579 0.081704 0.474298 -0.182446
C77   C     C_R   0.309228 0.568396 0.452341 -0.189584
C78   C     C_R   0.699953 0.543230 0.540970 -0.187581
C79   C     C_R   0.808976 0.065143 0.452677 -0.184543
C80   C     C_R   0.195316 0.061214 0.546460 -0.201463
C81   C     C_3   0.136565 0.725631 0.451391 0.237613
C82   C     C_3   0.872363 0.694843 0.540997 0.239041
C83   C     C_3   0.623637 0.196206 0.457169 0.243203
C84   C     C_3   0.362661 0.220567 0.547738 0.235374
C85   C     C_3   0.148274 0.759693 0.528822 -0.216298
C86   C     C_3   0.868053 0.708453 0.460343 -0.195571
C87   C     C_3   0.635094 0.234339 0.534885 -0.215208
C88   C     C_3   0.356501 0.240443 0.467925 -0.193645
C89   C     C_R   0.258016 0.632234 0.848750 0.561437
C90   C     C_R   0.740946 0.633327 0.151193 0.534427
C91   C     C_R   0.757934 0.132060 0.848763 0.561985
C92   C     C_R   0.240921 0.133139 0.151234 0.537714
C93   C     C_R   0.264603 0.651282 0.562626 -0.008058
C94   C     C_R   0.751232 0.595569 0.427063 -0.000362
C95   C     C_R   0.765459 0.153487 0.562790 -0.004080
C96   C     C_R   0.244274 0.121377 0.433529 -0.003722
C97   C     C_R   0.272344 0.045316 0.647924 0.544085
C98   C     C_R   0.727485 0.044566 0.353036 0.551675
C99   C     C_R   0.772999 0.543368 0.646587 0.544754
C100  C     C_R   0.227437 0.544489 0.353171 0.545204
C101  C     C_R   0.466597 0.821729 0.644920 0.541272
C102  C     C_R   0.527290 0.822487 0.351109 0.554241
C103  C     C_R   0.969025 0.321492 0.646594 0.542721
C104  C     C_R   0.028489 0.322897 0.351788 0.540854
C105  C     C_R   0.273143 0.684868 0.636101 0.556202
C106  C     C_R   0.739527 0.640799 0.356690 0.550507
C107  C     C_R   0.773396 0.185826 0.636324 0.562331
C108  C     C_R   0.234373 0.158632 0.361781 0.550042
C109  C     C_3   0.461960 0.922042 0.035668 0.201220
C110  C     C_3   0.509294 0.930426 0.969689 0.210457
C111  C     C_3   0.960266 0.421708 0.036689 0.206711
C112  C     C_3   0.007028 0.431642 0.970559 0.211170
C113  C     C_3   0.421991 0.821048 0.000765 -0.136655
C114  C     C_3   0.561217 0.841780 0.002997 -0.150725
C115  C     C_3   0.920564 0.320674 0.001543 -0.134436
C116  C     C_3   0.059753 0.344009 0.003316 -0.160541
C117  C     C_3   0.470572 0.828907 0.935079 0.053685
C118  C     C_3   0.511892 0.831654 0.068901 0.042002
C119  C     C_3   0.968775 0.329959 0.935568 0.055847
C120  C     C_3   0.010869 0.332031 0.069329 0.041556
Cr1   Cr    Cr6+3 0.229640 0.835880 0.747370 0.991595
Cr2   Cr    Cr6+3 0.770360 0.835880 0.252630 0.999297
Cr3   Cr    Cr6+3 0.729640 0.335880 0.747370 0.994728
Cr4   Cr    Cr6+3 0.270360 0.335880 0.252630 0.995928
Cr5   Cr    Cr6+3 0.387390 0.989720 0.750850 1.048401
Cr6   Cr    Cr6+3 0.612610 0.989720 0.249150 1.057684
Cr7   Cr    Cr6+3 0.887390 0.489720 0.750850 1.052744
Cr8   Cr    Cr6+3 0.112610 0.489720 0.249150 1.055352
Cr9   Cr    Cr6+3 0.385770 0.677220 0.749340 1.000373
Cr10  Cr    Cr6+3 0.614230 0.677220 0.250660 1.004236
Cr11  Cr    Cr6+3 0.885770 0.177220 0.749340 1.001780
Cr12  Cr    Cr6+3 0.114230 0.177220 0.250660 1.006024
H1    H     H_    0.364699 0.820072 0.999913 0.101559
H2    H     H_    0.618472 0.849180 0.005087 0.099030
H3    H     H_    0.863280 0.320167 0.001401 0.101366
H4    H     H_    0.116945 0.353131 0.005082 0.096300
H5    H     H_    0.495108 0.010492 0.558491 0.217589
H6    H     H_    0.469163 0.013246 0.425236 0.165094
H7    H     H_    0.024598 0.501293 0.565997 0.187873
H8    H     H_    0.008115 0.514840 0.434061 0.218783
H9    H     H_    0.041177 0.084174 0.421398 0.161760
H10   H     H_    0.974121 0.035412 0.561985 0.126039
H11   H     H_    0.551302 0.594484 0.426381 0.172094
H12   H     H_    0.477364 0.535261 0.562578 0.127568
H13   H     H_    0.465090 0.529727 0.435663 0.114970
H14   H     H_    0.560639 0.615502 0.553300 0.139333
H15   H     H_    0.954006 0.038587 0.436389 0.114333
H16   H     H_    0.057797 0.108983 0.548733 0.134988
H17   H     H_    0.368372 0.586077 0.547110 0.147444
H18   H     H_    0.648848 0.530946 0.442363 0.131673
H19   H     H_    0.867413 0.079369 0.548698 0.148435
H20   H     H_    0.140161 0.068834 0.450507 0.131172
H21   H     H_    0.351186 0.528645 0.421536 0.129233
H22   H     H_    0.656250 0.512347 0.571870 0.122862
H23   H     H_    0.848124 0.016125 0.423314 0.127647
H24   H     H_    0.153034 0.025043 0.577458 0.124747
H25   H     H_    0.175235 0.843495 0.535795 0.119311
H26   H     H_    0.847489 0.796280 0.442806 0.123153
H27   H     H_    0.646504 0.329501 0.540742 0.107079
H28   H     H_    0.330848 0.325229 0.452529 0.123389
H29   H     H_    0.102086 0.746366 0.563786 0.145704
H30   H     H_    0.916095 0.678004 0.431183 0.153483
H31   H     H_    0.595375 0.198415 0.572703 0.155568
H32   H     H_    0.405198 0.219579 0.437098 0.130355
H33   H     H_    0.143476 0.673952 0.927279 0.150772
H34   H     H_    0.821495 0.718143 0.061256 0.159792
H35   H     H_    0.639852 0.165504 0.924803 0.160024
H36   H     H_    0.315338 0.222343 0.058875 0.157706
H37   H     H_    0.873110 0.847334 0.023953 0.132078
H38   H     H_    0.145664 0.844896 0.958668 0.126724
H39   H     H_    0.373092 0.345520 0.023873 0.141344
H40   H     H_    0.651860 0.334017 0.961491 0.134740
H41   H     H_    0.355872 0.475951 0.068241 0.139003
H42   H     H_    0.651038 0.482861 0.930654 0.156891
H43   H     H_    0.854386 0.977188 0.069021 0.139586
H44   H     H_    0.153308 0.992972 0.928772 0.156009
H45   H     H_    0.372059 0.400787 0.908042 0.199386
H46   H     H_    0.633485 0.384423 0.084129 0.214402
H47   H     H_    0.873661 0.905074 0.908690 0.199463
H48   H     H_    0.128390 0.894447 0.081516 0.210822
O1    O     O_R   0.214300 0.709080 0.827500 -0.533369
O2    O     O_R   0.785700 0.709080 0.172500 -0.527739
O3    O     O_R   0.714300 0.209080 0.827500 -0.534794
O4    O     O_R   0.285700 0.209080 0.172500 -0.525161
O5    O     O_R   0.445900 0.919370 0.676500 -0.483357
O6    O     O_R   0.554100 0.919370 0.323500 -0.472034
O7    O     O_R   0.945900 0.419370 0.676500 -0.476473
O8    O     O_R   0.054100 0.419370 0.323500 -0.491962
O9    O     O_R   0.456660 0.717710 0.669820 -0.526997
O10   O     O_R   0.543340 0.717710 0.330180 -0.534376
O11   O     O_R   0.956660 0.217710 0.669820 -0.530576
O12   O     O_R   0.043340 0.217710 0.330180 -0.532405
O13   O     O_R   0.320590 0.625770 0.672930 -0.519920
O14   O     O_R   0.679410 0.625770 0.327070 -0.524299
O15   O     O_R   0.820590 0.125770 0.672930 -0.519485
O16   O     O_R   0.179410 0.125770 0.327070 -0.520967
O17   O     O_3   0.334270 0.834280 0.749190 -0.324539
O18   O     O_3   0.665730 0.834280 0.250810 -0.293723
O19   O     O_3   0.834270 0.334280 0.749190 -0.326314
O20   O     O_3   0.165730 0.334280 0.250810 -0.299153
O21   O     O_R   0.236190 0.958390 0.823150 -0.516058
O22   O     O_R   0.763810 0.958390 0.176850 -0.531609
O23   O     O_R   0.736190 0.458390 0.823150 -0.518299
O24   O     O_R   0.263810 0.458390 0.176850 -0.529835
O25   O     O_R   0.332090 0.075280 0.831290 -0.473075
O26   O     O_R   0.667910 0.075280 0.168710 -0.443535
O27   O     O_R   0.832090 0.575280 0.831290 -0.458278
O28   O     O_R   0.167910 0.575280 0.168710 -0.441001
O29   O     O_R   0.446280 0.918040 0.826620 -0.473605
O30   O     O_R   0.553720 0.918040 0.173380 -0.497782
O31   O     O_R   0.946280 0.418040 0.826620 -0.471666
O32   O     O_R   0.053720 0.418040 0.173380 -0.498206
O33   O     O_R   0.457080 0.716270 0.831760 -0.514207
O34   O     O_R   0.542920 0.716270 0.168240 -0.516644
O35   O     O_R   0.957080 0.216270 0.831760 -0.517491
O36   O     O_R   0.042920 0.216270 0.168240 -0.511903
O37   O     O_R   0.320980 0.624440 0.823040 -0.461964
O38   O     O_R   0.679020 0.624440 0.176960 -0.482476
O39   O     O_R   0.820980 0.124440 0.823040 -0.460659
O40   O     O_R   0.179020 0.124440 0.176960 -0.475919
O41   O     O_R   0.213880 0.710510 0.665560 -0.517974
O42   O     O_R   0.786120 0.710510 0.334440 -0.520350
O43   O     O_R   0.713880 0.210510 0.665560 -0.515889
O44   O     O_R   0.286120 0.210510 0.334440 -0.521867
O45   O     O_R   0.235800 0.959720 0.673040 -0.526518
O46   O     O_R   0.764200 0.959720 0.326960 -0.515746
O47   O     O_R   0.735800 0.459720 0.673040 -0.524097
O48   O     O_R   0.264200 0.459720 0.326960 -0.520364
O49   O     O_R   0.331670 0.076720 0.669350 -0.493716
O50   O     O_R   0.668330 0.076720 0.330650 -0.495639
O51   O     O_R   0.831670 0.576720 0.669350 -0.495456
O52   O     O_R   0.168330 0.576720 0.330650 -0.494795
O53   O     O_3   0.069932 0.681655 0.442299 -0.724207
H49   H     H_    0.036505 0.749619 0.445600 0.309695
O54   O     O_3   0.935280 0.638678 0.560841 -0.708253
H50   H     H_    0.962445 0.691428 0.591496 0.313912
O55   O     O_3   0.568243 0.118147 0.452609 -0.701201
H51   H     H_    0.525100 0.167970 0.458983 0.313985
O56   O     O_3   0.428706 0.173749 0.565373 -0.741611
H52   H     H_    0.454294 0.231027 0.594505 0.311829
C121  C     C_3   0.153189 0.818751 0.392846 -0.225695
C122  C     C_3   0.229906 0.849740 0.382776 -0.429712
H53   H     H_    0.254460 0.869135 0.434697 0.155446
H54   H     H_    0.259262 0.778807 0.354636 0.146923
H55   H     H_    0.233342 0.926591 0.346655 0.167746
H56   H     H_    0.133251 0.788553 0.340443 0.188923
H57   H     H_    0.121377 0.898753 0.404915 0.106325
C123  C     C_3   0.854474 0.806650 0.586790 -0.262089
C124  C     C_3   0.779185 0.850669 0.584160 -0.429603
H58   H     H_    0.762667 0.866952 0.528532 0.160867
H59   H     H_    0.743560 0.788628 0.610316 0.149276
H60   H     H_    0.774135 0.933354 0.615495 0.178791
H61   H     H_    0.867166 0.789458 0.643529 0.173366
H62   H     H_    0.889473 0.878437 0.569047 0.107620
C125  C     C_3   0.618398 0.296325 0.399910 -0.233143
C126  C     C_3   0.688102 0.337225 0.368171 -0.432221
H63   H     H_    0.727034 0.350729 0.410845 0.151075
H64   H     H_    0.710149 0.274507 0.328257 0.167444
H65   H     H_    0.678022 0.418835 0.337253 0.164144
H66   H     H_    0.586289 0.266187 0.354163 0.174959
H67   H     H_    0.587609 0.371066 0.423642 0.090127
C127  C     C_3   0.338687 0.322957 0.598543 -0.250373
C128  C     C_3   0.262705 0.362793 0.592669 -0.430159
H68   H     H_    0.249055 0.384895 0.536845 0.156083
H69   H     H_    0.226890 0.295398 0.613399 0.145559
H70   H     H_    0.253835 0.441454 0.627107 0.178653
H71   H     H_    0.348123 0.297081 0.654845 0.176763
H72   H     H_    0.373280 0.399044 0.588196 0.118149
O57   O     O_3   0.430395 0.013562 0.075080 -0.694658
H73   H     H_    0.451061 0.088237 0.057861 0.316464
O58   O     O_3   0.527924 0.029859 0.930344 -0.698824
H74   H     H_    0.521194 0.098713 0.963120 0.284569
O59   O     O_3   0.929201 0.513575 0.076130 -0.697966
H75   H     H_    0.949420 0.587985 0.057796 0.314872
O60   O     O_3   0.023683 0.534496 0.933843 -0.702830
H76   H     H_    0.035152 0.592255 0.971363 0.289042
C129  C     C_3   0.564357 0.656138 0.917309 -0.192347
C130  C     C_3   0.531821 0.534180 0.903614 -0.356064
H77   H     H_    0.525873 0.483294 0.953784 0.178340
H78   H     H_    0.481735 0.537933 0.877323 0.238565
H79   H     H_    0.563818 0.482766 0.864568 0.098319
H80   H     H_    0.573645 0.699859 0.865221 0.168914
H81   H     H_    0.617271 0.652397 0.937841 0.125278
C131  C     C_3   0.449498 0.624410 0.077091 -0.235771
C132  C     C_3   0.384461 0.662522 0.121813 -0.424389
H82   H     H_    0.392169 0.749667 0.148092 0.181366
H83   H     H_    0.338102 0.671399 0.087414 0.148646
H84   H     H_    0.373703 0.597482 0.164541 0.159199
H85   H     H_    0.444737 0.552980 0.039381 0.179054
H86   H     H_    0.487169 0.579462 0.111566 0.216620
C133  C     C_3   0.063463 0.159335 0.917022 -0.187617
C134  C     C_3   0.031698 0.036359 0.904578 -0.357316
H87   H     H_    0.026880 0.986205 0.955120 0.172023
H88   H     H_    0.980847 0.038918 0.879746 0.236630
H89   H     H_    0.063408 0.985015 0.865254 0.099871
H90   H     H_    0.072031 0.202559 0.864685 0.166027
H91   H     H_    0.116660 0.158811 0.936489 0.123831
C135  C     C_3   0.949695 0.123882 0.077442 -0.232378
C136  C     C_3   0.885389 0.161411 0.123474 -0.424109
H92   H     H_    0.893491 0.248148 0.150070 0.180100
H93   H     H_    0.838433 0.170971 0.089962 0.144966
H94   H     H_    0.875278 0.095690 0.165990 0.158434
H95   H     H_    0.944266 0.052367 0.039917 0.175250
H96   H     H_    0.988205 0.078975 0.110966 0.213486
O61   O     O_3   0.141317 0.686598 0.065222 -0.699129
H97   H     H_    0.092594 0.687191 0.046312 0.290826
O62   O     O_3   0.859377 0.686744 0.935431 -0.717596
H98   H     H_    0.905326 0.643825 0.933507 0.355179
O63   O     O_3   0.631969 0.172255 0.062778 -0.701712
H99   H     H_    0.583960 0.164796 0.043324 0.302602
O64   O     O_3   0.365462 0.177950 0.938477 -0.729027
H100  H     H_    0.405536 0.125371 0.926921 0.359642
O65   O     O_3   0.381038 0.577923 0.939592 -0.726787
H101  H     H_    0.352575 0.636555 0.966592 0.326029
O66   O     O_3   0.607751 0.558176 0.057287 -0.716543
H102  H     H_    0.634736 0.631426 0.051253 0.333080
O67   O     O_3   0.879306 0.082024 0.941391 -0.728722
H103  H     H_    0.849692 0.138513 0.968707 0.323931
O68   O     O_3   0.109478 0.069979 0.055581 -0.716324
H104  H     H_    0.138596 0.140518 0.048500 0.328724

loop_
_geom_bond_atom_site_label_1
_geom_bond_atom_site_label_2
_ccdc_geom_bond_type
C83   O55   S    
C57   H13   S    
C83   C87   S    
C133  C134  S    
C2    O22   A    
C73   C93   A    
C75   C95   A    
C48   C120  S    
C102  O6    A    
C53   H5    S    
C131  C132  S    
C63   C98   S    
C101  O9    A    
C5    C6    S    
C20   C40   A    
Cr3   O47   S    
O58   H74   S    
C104  O12   A    
C126  H65   S    
C29   C33   S    
C55   H7    S    
Cr7   O27   S    
Cr3   O3    S    
C72   C88   S    
C11   C15   A    
C12   C16   A    
C122  H54   S    
Cr12  O36   S    
C73   H17   S    
C96   C108  S    
C131  H86   S    
C59   C60   S    
Cr8   O52   S    
C113  H1    S    
C82   O54   S    
C84   C127  S    
C41   C49   A    
C109  C118  S    
C4    O28   A    
C25   O61   S    
C122  H55   S    
Cr11  O35   S    
C51   C52   A    
C7    C119  S    
C103  O7    A    
C62   C66   A    
C46   O30   A    
Cr3   O43   S    
C89   O1    A    
C66   C82   S    
C11   C27   A    
C68   C72   A    
Cr9   O9    S    
C23   H35   S    
C64   C97   S    
C8    C135  S    
C10   C14   A    
C81   O53   S    
C135  C136  S    
C128  H69   S    
C121  H57   S    
Cr11  O15   S    
C84   C88   S    
C99   O51   A    
Cr3   O23   S    
C36   O68   S    
C38   C90   S    
C69   C93   A    
C82   C123  S    
C3    O27   A    
C134  H88   S    
C18   C38   A    
Cr1   O21   S    
C132  H83   S    
C19   C35   S    
C76   C96   A    
C44   C55   A    
C66   C70   A    
C56   H8    S    
Cr5   O25   S    
C28   O64   S    
C87   H27   S    
Cr10  O34   S    
C88   H28   S    
C79   H23   S    
C62   C99   S    
C72   C96   A    
C61   C65   A    
C71   C95   A    
Cr2   O42   S    
C73   C77   A    
Cr8   O28   S    
C75   C79   A    
C30   H42   S    
Cr9   O17   S    
Cr10  O10   S    
C59   H15   S    
C129  H80   S    
C67   C83   S    
C47   O31   A    
C111  C112  S    
C112  O60   S    
Cr1   O45   S    
C7    C8    S    
C106  O14   A    
C53   C54   A    
C124  H58   S    
C64   C68   A    
Cr3   O19   S    
Cr4   O4    S    
Cr5   O49   S    
C42   C53   A    
Cr12  O20   S    
C49   C57   S    
C41   C102  S    
Cr5   O5    S    
C121  C122  S    
Cr10  O38   S    
C43   C104  S    
C9    C13   A    
C52   C60   S    
C77   H21   S    
C98   O50   A    
Cr4   O44   S    
C61   C77   A    
C126  H64   S    
C109  O57   S    
C2    O26   A    
O53   H49   S    
C110  C114  S    
Cr6   O18   S    
C129  C130  S    
C1    C12   S    
C101  O5    A    
C2    C11   S    
C44   C103  S    
C35   H47   S    
C104  O8    A    
C30   C34   S    
C33   H45   S    
C48   O32   A    
C92   O4    A    
C127  H71   S    
Cr5   O29   S    
C123  H61   S    
C17   C37   A    
C88   H32   S    
C45   O29   A    
C116  C120  S    
Cr12  O40   S    
C22   H34   S    
C7    C116  S    
C18   C34   S    
Cr7   O7    S    
C114  H2    S    
C29   H39   S    
C30   H40   S    
C42   C50   A    
C113  C117  S    
C115  C119  S    
C136  H93   S    
C22   C26   A    
C84   O56   S    
C103  O11   A    
C42   C101  S    
C112  C116  S    
C69   C85   S    
C45   C117  S    
C21   C25   A    
C125  H66   S    
C124  H60   S    
C62   C78   A    
C76   C80   A    
Cr7   O19   S    
C15   C31   S    
C127  C128  S    
C16   C32   S    
C60   H16   S    
C13   C17   A    
C57   C58   S    
C115  H3    S    
C105  O41   A    
C135  H95   S    
Cr9   O33   S    
C136  H94   S    
C90   O38   A    
C61   C100  S    
C108  O44   A    
C58   H12   S    
C59   H9    S    
C49   C50   A    
C130  H77   S    
C4    C9    S    
C81   C85   S    
C22   C38   A    
C97   O45   A    
C55   C56   A    
C91   O3    A    
C3    O23   A    
C74   C94   A    
O56   H52   S    
C36   H48   S    
C1    O21   A    
C9    C25   A    
C128  H68   S    
C15   C19   A    
C17   C33   S    
C12   C28   A    
C13   C29   S    
C70   C94   A    
C76   H20   S    
Cr2   O46   S    
C21   H33   S    
C46   C118  S    
C81   C121  S    
C100  O48   A    
Cr9   O37   S    
C60   H10   S    
C7    C133  S    
C130  H79   S    
C47   O35   A    
O54   H50   S    
C27   O63   S    
C108  O16   A    
O66   H102  S    
O57   H73   S    
C64   C80   A    
C85   H25   S    
C110  C117  S    
C121  H56   S    
C68   C84   S    
C24   C28   A    
Cr6   O6    S    
C78   H22   S    
C63   C79   A    
C31   H37   S    
C82   C86   S    
O62   H98   S    
C83   C125  S    
C50   C58   S    
C136  H92   S    
Cr8   O20   S    
C132  H82   S    
C65   C81   S    
C122  H53   S    
C95   C107  S    
C71   C87   S    
C131  H85   S    
Cr11  O11   S    
C31   C35   S    
C34   H46   S    
C32   H38   S    
C32   C36   S    
C123  C124  S    
Cr1   O1    S    
Cr6   O50   S    
Cr8   O8    S    
Cr10  O14   S    
C112  C119  S    
C116  H4    S    
Cr4   O20   S    
C37   C89   S    
Cr2   O22   S    
C133  H90   S    
C109  C110  S    
Cr8   O32   S    
C43   C51   A    
O65   H101  S    
Cr6   O26   S    
C65   C69   A    
C34   O66   S    
C102  O10   A    
C67   C71   A    
O68   H104  S    
C20   C36   S    
C21   C37   A    
O61   H97   S    
C74   C78   A    
Cr1   O41   S    
C106  O42   A    
C128  H70   S    
C87   H31   S    
O64   H100  S    
C48   O36   A    
C5    C114  S    
C14   C18   A    
C107  O15   A    
C45   O33   A    
C35   O67   S    
C31   H43   S    
O63   H99   S    
C105  O13   A    
C32   H44   S    
Cr4   O24   S    
C134  H87   S    
C24   H36   S    
C132  H84   S    
C127  H72   S    
C110  O58   S    
C123  H62   S    
C4    O24   A    
Cr11  O39   S    
C92   O40   A    
C85   H29   S    
C8    C115  S    
C93   C105  S    
C97   O49   A    
C90   O2    A    
C46   O34   A    
C33   O65   S    
C86   H30   S    
C23   C27   A    
C1    O25   A    
C16   C20   A    
C10   C26   A    
C47   C119  S    
C129  H81   S    
Cr5   O17   S    
C26   O62   S    
C14   C30   S    
Cr4   O48   S    
C80   H24   S    
C107  O43   A    
C63   C67   A    
C124  H59   S    
C57   H11   S    
C125  H67   S    
C100  O52   A    
C5    C129  S    
Cr6   O30   S    
C75   H19   S    
C5    C117  S    
C111  C120  S    
Cr11  O19   S    
C6    C113  S    
C126  H63   S    
Cr7   O51   S    
O59   H75   S    
C135  H96   S    
C40   C92   S    
C86   H26   S    
Cr1   O17   S    
C114  C118  S    
C19   C39   A    
Cr7   O31   S    
O60   H76   S    
C130  H78   S    
C51   C59   S    
C125  C126  S    
C70   C86   S    
C8    C120  S    
Cr12  O12   S    
C94   C106  S    
C39   C91   S    
C134  H89   S    
C6    C131  S    
C29   H41   S    
Cr9   O13   S    
C58   H14   S    
C109  C113  S    
C3    C10   S    
Cr10  O18   S    
Cr2   O18   S    
C44   C52   A    
C54   H6    S    
C23   C39   A    
C24   C40   A    
C111  O59   S    
C91   O39   A    
O67   H103  S    
C133  H91   S    
C99   O47   A    
C41   C54   A    
C89   O37   A    
C43   C56   A    
Cr2   O2    S    
Cr12  O16   S    
C74   H18   S    
C111  C115  S    
O55   H51   S    
C6    C118  S    
C98   O46   A    
