data_mof_unit_6195.cif
_audit_creation_date              2012-12-10T17:36:36-0500
_audit_creation_method            fapswitch 2.2
_symmetry_space_group_name_H-M    P1
_symmetry_Int_Tables_number       1
_space_group_crystal_system       triclinic
_cell_length_a                    12.188163
_cell_length_b                    12.881221
_cell_length_c                    15.699215
_cell_angle_alpha                 92.762384
_cell_angle_beta                  86.284887
_cell_angle_gamma                 93.302551
_cell_volume                      2453.04114225

loop_
_atom_site_label
_atom_site_type_symbol
_atom_type_description
_atom_site_fract_x
_atom_site_fract_y
_atom_site_fract_z
_atom_type_partial_charge
C1    C     C_R   0.521620 0.700008 0.498852 0.870097
C2    C     C_R   0.552083 0.026094 0.503857 0.186062
C3    C     C_R   0.955013 0.411147 0.412423 -0.307529
C4    C     C_R   0.044987 0.588853 0.587577 -0.307537
C5    C     C_R   0.840433 0.418184 0.420610 0.301612
C6    C     C_R   0.159567 0.581816 0.579390 0.301607
C7    C     C_R   0.858595 0.539774 0.538846 0.266573
C8    C     C_R   0.141404 0.460226 0.461154 0.266583
C9    C     C_R   0.975610 0.532559 0.531918 0.008345
C10   C     C_R   0.024390 0.467441 0.468081 0.008347
C11   C     C_R   0.500040 0.500317 0.661733 0.897862
C12   C     C_R   0.478379 0.299992 0.501148 0.870094
C13   C     C_R   0.499960 0.499683 0.338267 0.897863
C14   C     C_3   0.538669 0.595064 0.029619 -0.320584
C15   C     C_3   0.461332 0.404933 0.970381 -0.320692
C16   C     C_3   0.600975 0.519518 0.967490 0.582488
C17   C     C_3   0.399027 0.480479 0.032510 0.582479
C18   C     C_1   0.499753 0.500116 0.750742 -0.181800
C19   C     C_1   0.500247 0.499883 0.249258 -0.181797
C20   C     C_3   0.434069 0.574816 0.978449 -0.322345
C21   C     C_3   0.565932 0.425181 0.021551 -0.322449
C22   C     C_3   0.498358 0.499664 0.917132 0.074771
C23   C     C_R   0.646693 0.970681 0.508236 -0.220856
C24   C     C_3   0.501642 0.500333 0.082867 0.074771
C25   C     C_1   0.499055 0.499878 0.826147 0.004431
C26   C     C_1   0.500945 0.500121 0.173853 0.004432
C27   C     C_R   0.465842 0.188491 0.501399 -0.048355
C28   C     C_R   0.534157 0.811509 0.498601 -0.048355
C29   C     C_3   0.785306 0.555241 0.986623 0.100660
C30   C     C_3   0.897239 0.578633 0.940895 -0.830376
C31   C     C_3   0.214718 0.444628 0.013371 0.100691
C32   C     C_3   0.102732 0.421551 0.059119 -0.830420
C33   C     C_3   0.189803 0.383921 0.395063 -0.851059
C34   C     C_R   0.353307 0.029319 0.491765 -0.220856
C35   C     C_3   0.810197 0.616079 0.604937 -0.851047
C36   C     C_3   0.224654 0.638883 0.647143 -0.829886
C37   C     C_3   0.775346 0.361116 0.352857 -0.829892
C38   C     C_R   0.637749 0.863035 0.505611 -0.203653
C39   C     C_R   0.362250 0.136965 0.494390 -0.203657
C40   C     C_R   0.439861 0.866971 0.493179 -0.282762
C41   C     C_R   0.560139 0.133029 0.506821 -0.282765
C42   C     C_R   0.447916 0.973906 0.496143 0.186062
H1    H     H_    0.571164 0.671479 0.055829 0.155167
H2    H     H_    0.273110 0.989579 0.485971 0.140866
H3    H     H_    0.989060 0.362737 0.360263 0.169543
H4    H     H_    0.010940 0.637263 0.639737 0.169550
H5    H     H_    0.790384 0.484219 0.023564 0.135312
H6    H     H_    0.766616 0.622535 0.031336 0.136278
H7    H     H_    0.894865 0.649044 0.903045 0.258724
H8    H     H_    0.960695 0.592802 0.988399 0.206570
H9    H     H_    0.919998 0.511679 0.897373 0.255591
H10   H     H_    0.233345 0.377133 0.968859 0.136334
H11   H     H_    0.209762 0.515491 0.976209 0.135249
H12   H     H_    0.428837 0.328518 0.944169 0.155131
H13   H     H_    0.080055 0.488702 0.102450 0.255581
H14   H     H_    0.039291 0.407269 0.011615 0.206568
H15   H     H_    0.104973 0.351296 0.097175 0.258725
H16   H     H_    0.276998 0.373665 0.399227 0.289958
H17   H     H_    0.149553 0.305232 0.403620 0.199588
H18   H     H_    0.177661 0.409442 0.329924 0.234138
H19   H     H_    0.723002 0.626335 0.600773 0.289957
H20   H     H_    0.822339 0.590558 0.670076 0.234140
H21   H     H_    0.850447 0.694768 0.596380 0.199591
H22   H     H_    0.175579 0.698118 0.683647 0.192520
H23   H     H_    0.620313 0.365624 0.041315 0.153966
H24   H     H_    0.246686 0.583464 0.694222 0.244164
H25   H     H_    0.297990 0.682118 0.620022 0.264053
H26   H     H_    0.824422 0.301882 0.316353 0.192514
H27   H     H_    0.702012 0.317879 0.379980 0.264051
H28   H     H_    0.753311 0.416534 0.305779 0.244168
H29   H     H_    0.379683 0.634370 0.958688 0.153999
H30   H     H_    0.640401 0.172698 0.512934 0.166265
H31   H     H_    0.359599 0.827302 0.487066 0.166267
H32   H     H_    0.288859 0.179524 0.490029 0.164972
H33   H     H_    0.711141 0.820476 0.509972 0.164972
H34   H     H_    0.726890 0.010421 0.514030 0.140865
N1    N     N_R   0.207800 0.519340 0.515560 -0.102656
N2    N     N_R   0.792200 0.480660 0.484440 -0.102656
O1    O     O_R   0.421700 0.658830 0.504150 -0.630316
O2    O     O_3   0.294598 0.460361 0.074450 -0.604162
O3    O     O_R   0.578300 0.341170 0.495850 -0.630316
O4    O     O_R   0.609310 0.646410 0.494170 -0.634803
O5    O     O_R   0.390690 0.353590 0.505830 -0.634804
O6    O     O_R   0.406210 0.506220 0.628210 -0.618451
O7    O     O_R   0.593790 0.493780 0.371790 -0.618451
O8    O     O_R   0.593830 0.493800 0.618230 -0.610481
O9    O     O_R   0.406170 0.506200 0.381770 -0.610479
O10   O     O_3   0.705400 0.539664 0.925552 -0.604162
Zn1   Zn    Zn3+2 0.374730 0.508290 0.506660 0.939622
Zn2   Zn    Zn3+2 0.625270 0.491710 0.493340 0.939621

loop_
_geom_bond_atom_site_label_1
_geom_bond_atom_site_label_2
_ccdc_geom_bond_type
C30   H9    S    
C11   C18   S    
C33   H16   S    
C37   H27   S    
C34   C42   A    
C23   H34   S    
C36   H25   S    
C31   O2    S    
C4    H4    S    
N2    Zn2   S    
N1    Zn1   S    
C16   C21   S    
C29   H5    S    
C24   C26   S    
C5    C37   S    
C36   H24   S    
C28   C40   A    
C2    C41   A    
C37   H26   S    
C17   C20   S    
C40   H31   S    
C7    C9    A    
C39   H32   S    
C14   C24   S    
C19   C26   T    
C29   O10   S    
C15   C22   S    
C27   C39   A    
C22   C25   S    
C1    C28   S    
C20   H29   S    
C9    C10   A    
C31   H10   S    
C32   H13   S    
C40   C42   A    
C30   H8    S    
C33   H17   S    
C37   H28   S    
C18   C25   T    
C32   H15   S    
C38   H33   S    
O5    Zn1   S    
C17   C24   S    
C13   C19   S    
C29   H6    S    
C34   C39   A    
C15   H12   S    
C14   C20   S    
C34   H2    S    
C4    C6    A    
O8    Zn2   S    
C6    N1    A    
C12   C27   S    
C1    O4    A    
C3    H3    S    
C17   O2    S    
C12   O5    A    
C29   C30   S    
C27   C41   A    
C31   C32   S    
C28   C38   A    
C13   O9    A    
C35   H19   S    
C31   H11   S    
C41   H30   S    
O3    Zn2   S    
C30   H7    S    
C20   C22   S    
C33   H18   S    
C7    N2    A    
C8    N1    A    
C1    O1    A    
C14   C16   S    
O6    Zn1   S    
C15   C17   S    
C16   C22   S    
C21   H23   S    
C7    C35   S    
C3    C5    A    
O7    Zn2   S    
C11   O6    A    
C23   C38   A    
O4    Zn2   S    
O9    Zn1   S    
C4    C9    A    
C3    C10   A    
C2    C42   A    
C6    C36   S    
C12   O3    A    
C35   H20   S    
C8    C33   S    
O1    Zn1   S    
C15   C21   S    
C8    C10   A    
C21   C24   S    
C13   O7    A    
C2    C23   A    
C16   O10   S    
C35   H21   S    
C11   O8    A    
C5    N2    A    
C36   H22   S    
C32   H14   S    
C14   H1    S    
