data_mof_unit_13009.cif
_audit_creation_date              2012-12-10T20:02:24-0500
_audit_creation_method            fapswitch 2.2
_symmetry_space_group_name_H-M    P1
_symmetry_Int_Tables_number       1
_space_group_crystal_system       triclinic
_cell_length_a                    10.797358
_cell_length_b                    14.865357
_cell_length_c                    14.130061
_cell_angle_alpha                 88.702432
_cell_angle_beta                  91.85582
_cell_angle_gamma                 90.347618
_cell_volume                      2266.16464829

loop_
_atom_site_label
_atom_site_type_symbol
_atom_type_description
_atom_site_fract_x
_atom_site_fract_y
_atom_site_fract_z
_atom_type_partial_charge
C1    C     C_R   0.502754 0.326696 0.501045 0.892317
C2    C     C_R   0.499768 0.672609 0.498901 0.896498
C3    C     C_R   0.872642 0.500343 0.504172 -0.079441
C4    C     C_R   0.127274 0.498040 0.495682 -0.085683
C5    C     C_R   0.944343 0.505082 0.588989 0.038993
C6    C     C_R   0.055371 0.493495 0.410645 0.048837
C7    C     C_R   0.520815 0.081286 0.573138 -0.260345
C8    C     C_R   0.477227 0.915453 0.430125 -0.254061
C9    C     C_R   0.492112 0.171892 0.578361 0.172095
C10   C     C_R   0.446350 0.824809 0.435218 0.171358
C11   C     C_R   0.523857 0.229834 0.501897 -0.090996
C12   C     C_R   0.518102 0.768440 0.496333 -0.071352
C13   C     C_R   0.581824 0.195128 0.422862 -0.265561
C14   C     C_R   0.615354 0.802807 0.552822 -0.282460
C15   C     C_R   0.606309 0.103796 0.416504 0.184136
C16   C     C_R   0.643305 0.894278 0.550529 0.186143
C17   C     C_R   0.576746 0.047197 0.493877 0.078468
C18   C     C_R   0.574062 0.950295 0.486724 0.073949
C19   C     C_R   0.415607 0.446513 0.105144 -0.270424
C20   C     C_R   0.547573 0.572621 0.894465 -0.265747
C21   C     C_R   0.417110 0.447732 0.204258 0.050023
C22   C     C_R   0.549626 0.570822 0.795285 0.063747
C23   C     C_R   0.259684 0.499021 0.498242 0.878422
C24   C     C_R   0.740278 0.500806 0.501708 0.889081
C25   C     C_R   0.585083 0.550307 0.205545 0.015874
C26   C     C_R   0.445707 0.430775 0.795432 -0.001453
C27   C     C_R   0.587807 0.550142 0.106338 -0.287249
C28   C     C_R   0.447265 0.427709 0.894675 -0.291014
C29   C     C_R   0.500900 0.498640 0.053657 0.129994
C30   C     C_R   0.499088 0.499358 0.946684 0.134404
C31   C     C_R   0.161039 0.578405 0.174289 -0.198108
C32   C     C_R   0.821452 0.444184 0.828723 -0.177324
C33   C     C_R   0.148793 0.570014 0.271955 -0.152100
C34   C     C_R   0.848692 0.440044 0.733179 -0.137895
C35   C     C_R   0.101955 0.490518 0.312776 0.069106
C36   C     C_R   0.895537 0.515843 0.685104 0.063689
C37   C     C_R   0.069332 0.417562 0.253853 0.099766
C38   C     C_R   0.915172 0.596999 0.734081 0.127003
C39   C     C_R   0.074421 0.428385 0.154039 0.183974
C40   C     C_R   0.891318 0.599990 0.831985 0.185708
C41   C     C_R   0.121541 0.509063 0.115573 -0.192541
C42   C     C_R   0.844276 0.523022 0.878157 -0.200157
C43   C     C_R   0.928770 0.495436 0.416818 -0.204872
C44   C     C_R   0.070916 0.501914 0.583297 -0.205813
H1    H     H_    0.126194 0.518741 0.039540 0.152788
H2    H     H_    0.825294 0.523942 0.952928 0.137311
H3    H     H_    0.346200 0.406046 0.069874 0.145348
H4    H     H_    0.582739 0.631558 0.929524 0.127946
H5    H     H_    0.351091 0.407388 0.242826 0.144407
H6    H     H_    0.590029 0.626649 0.756498 0.130373
H7    H     H_    0.651756 0.590326 0.245232 0.127937
H8    H     H_    0.399724 0.378108 0.756636 0.134427
H9    H     H_    0.658803 0.589369 0.072012 0.130733
H10   H     H_    0.408225 0.369090 0.929381 0.132566
H11   H     H_    0.196471 0.640391 0.143629 0.150899
H12   H     H_    0.785297 0.385378 0.865263 0.148507
H13   H     H_    0.170906 0.626980 0.315611 0.150945
H14   H     H_    0.835839 0.377075 0.696903 0.141259
H15   H     H_    0.873811 0.493344 0.351205 0.175184
H16   H     H_    0.125405 0.504814 0.649069 0.180576
H17   H     H_    0.492357 0.035093 0.629015 0.141499
H18   H     H_    0.419628 0.960873 0.386902 0.145355
H19   H     H_    0.606891 0.239522 0.364559 0.178461
H20   H     H_    0.668898 0.757780 0.599516 0.169364
N1    N     N_R   0.500000 0.499980 0.252470 -0.099584
N2    N     N_R   0.500000 0.500020 0.747530 -0.092493
O1    O     O_R   0.500010 0.369070 0.579480 -0.627514
O2    O     O_R   0.499990 0.630930 0.420520 -0.628276
O3    O     O_R   0.500010 0.369060 0.420520 -0.621639
O4    O     O_R   0.499990 0.630940 0.579480 -0.625823
O5    O     O_R   0.316760 0.500010 0.579480 -0.624873
O6    O     O_R   0.683240 0.499990 0.420520 -0.632606
O7    O     O_R   0.316760 0.500000 0.420520 -0.618785
O8    O     O_R   0.683240 0.500000 0.579480 -0.616594
Zn1   Zn    Zn3+2 0.500000 0.500010 0.606140 0.948071
Zn2   Zn    Zn3+2 0.500000 0.499990 0.393860 0.946172
C45   C     C_3   0.654768 0.069029 0.324387 -0.419801
C46   C     C_3   0.786353 0.032964 0.335554 -0.829723
H21   H     H_    0.848248 0.083228 0.370184 0.280228
H22   H     H_    0.787208 0.968922 0.377218 0.262007
H23   H     H_    0.822305 0.019055 0.264641 0.250582
H24   H     H_    0.592649 0.015804 0.295797 0.201830
H25   H     H_    0.655200 0.123647 0.269298 0.209862
C47   C     C_3   0.740004 0.929833 0.621021 -0.412829
C48   C     C_3   0.855446 0.965777 0.573430 -0.813206
H26   H     H_    0.891497 0.915394 0.524551 0.272863
H27   H     H_    0.834548 0.029721 0.534549 0.261354
H28   H     H_    0.928570 0.979821 0.628271 0.256523
H29   H     H_    0.700291 0.983219 0.664204 0.198365
H30   H     H_    0.769843 0.875638 0.671993 0.221335
I1    I     I_    0.013359 0.292695 0.318463 -0.475408
I2    I     I_    0.984949 0.712823 0.659548 -0.507730
C49   C     C_3   0.020857 0.359405 0.086637 -0.391492
C50   C     C_3   0.121589 0.310314 0.035432 -0.878889
H31   H     H_    0.169112 0.357287 0.986175 0.245912
H32   H     H_    0.189898 0.280332 0.087315 0.269338
H33   H     H_    0.079019 0.255489 0.993103 0.253983
H34   H     H_    0.962305 0.309006 0.123108 0.237593
H35   H     H_    0.958564 0.393768 0.033300 0.195894
C51   C     C_3   0.922885 0.681933 0.889707 -0.395934
C52   C     C_3   0.822803 0.753855 0.878951 -0.852965
H36   H     H_    0.795970 0.766677 0.803482 0.269198
H37   H     H_    0.739679 0.732504 0.917583 0.238796
H38   H     H_    0.857814 0.817571 0.909715 0.252742
H39   H     H_    0.934213 0.663036 0.966110 0.190669
H40   H     H_    0.013547 0.710317 0.868684 0.231915
C53   C     C_3   0.425188 0.201622 0.664788 -0.415880
C54   C     C_3   0.291746 0.230003 0.640473 -0.823776
H41   H     H_    0.245379 0.248479 0.706238 0.234433
H42   H     H_    0.287951 0.288821 0.590871 0.261579
H43   H     H_    0.239716 0.173287 0.607843 0.263868
H44   H     H_    0.420634 0.146021 0.718589 0.194037
H45   H     H_    0.478991 0.255173 0.700430 0.211893
C55   C     C_3   0.331141 0.792548 0.381466 -0.461134
C56   C     C_3   0.226261 0.771749 0.448890 -0.808452
H46   H     H_    0.248600 0.711958 0.494596 0.257731
H47   H     H_    0.210017 0.830310 0.494291 0.277427
H48   H     H_    0.139356 0.757729 0.407614 0.245510
H49   H     H_    0.297724 0.845101 0.329672 0.205675
H50   H     H_    0.351442 0.732763 0.339249 0.223148

loop_
_geom_bond_atom_site_label_1
_geom_bond_atom_site_label_2
_ccdc_geom_bond_type
C38   C40   A    
C49   C50   S    
C27   C29   A    
C53   H44   S    
C1    C11   S    
O6    Zn2   S    
C2    C12   S    
C21   H5    S    
C55   C56   S    
C39   C41   A    
C20   C30   A    
C45   C46   S    
C54   H41   S    
C3    C43   A    
C51   H39   S    
C52   H36   S    
N1    Zn2   S    
C35   C37   A    
C2    O2    A    
C19   H3    S    
C45   H25   S    
C56   H46   S    
C5    C36   S    
C38   I2    S    
C16   C47   S    
C6    C35   S    
O3    Zn2   S    
C15   C17   A    
C42   H2    S    
C53   H45   S    
C33   C35   A    
C7    H17   S    
C56   H47   S    
C53   C54   S    
C31   C33   A    
C49   H35   S    
C55   H49   S    
C10   C55   S    
C43   H15   S    
C22   H6    S    
C40   C42   A    
C52   H37   S    
C3    C24   S    
C47   H30   S    
C23   O7    A    
C39   C49   S    
C48   H27   S    
C32   C42   A    
O8    Zn1   S    
C37   I1    S    
C26   N2    A    
C23   O5    A    
C25   N1    A    
C47   C48   S    
C4    C6    A    
C4    C23   S    
C28   H10   S    
C46   H21   S    
C4    C44   A    
C50   H33   S    
C7    C17   A    
C48   H26   S    
C1    O3    A    
C32   C34   A    
C25   H7    S    
C29   C30   S    
C26   H8    S    
C13   H19   S    
C56   H48   S    
C14   H20   S    
C17   C18   S    
C46   H22   S    
O2    Zn2   S    
C50   H32   S    
C9    C11   A    
C20   H4    S    
C10   C12   A    
C16   C18   A    
C5    C44   A    
C12   C14   A    
C52   H38   S    
C6    C43   A    
C13   C15   A    
O7    Zn2   S    
C14   C16   A    
C25   C27   A    
C47   H29   S    
C19   C29   A    
C24   O6    A    
C48   H28   S    
C7    C9    A    
C33   H13   S    
C31   C41   A    
C21   N1    A    
C51   H40   S    
C20   C22   A    
C3    C5    A    
C40   C51   S    
C27   H9    S    
C22   N2    A    
C9    C53   S    
C26   C28   A    
C54   H43   S    
C28   C30   A    
C37   C39   A    
O5    Zn1   S    
C11   C13   A    
C46   H23   S    
C24   O8    A    
C15   C45   S    
C45   H24   S    
C44   H16   S    
N2    Zn1   S    
C36   C38   A    
C51   C52   S    
C1    O1    A    
C54   H42   S    
C34   C36   A    
C50   H31   S    
C8    C18   A    
O1    Zn1   S    
C8    C10   A    
O4    Zn1   S    
C34   H14   S    
C41   H1    S    
C31   H11   S    
C2    O4    A    
C49   H34   S    
C32   H12   S    
C55   H50   S    
C8    H18   S    
C19   C21   A    
