data_mof_unit_38088.cif
_audit_creation_date              2013-03-05T16:11:55-0500
_audit_creation_method            fapswitch 2.2
_symmetry_space_group_name_H-M    P1
_symmetry_Int_Tables_number       1
_space_group_crystal_system       triclinic
_cell_length_a                    15.705533
_cell_length_b                    10.715416
_cell_length_c                    9.934737
_cell_angle_alpha                 90.002311
_cell_angle_beta                  90.85007
_cell_angle_gamma                 90.476213
_cell_volume                      1671.68822357

loop_
_atom_site_label
_atom_site_type_symbol
_atom_site_description
_atom_site_fract_x
_atom_site_fract_y
_atom_site_fract_z
_atom_type_partial_charge
O1    O     O_R   0.499990 0.316750 0.614620 -0.646494
O2    O     O_R   0.500010 0.683250 0.385380 -0.587748
O3    O     O_R   0.500000 0.316780 0.385290 -0.637754
O4    O     O_R   0.500000 0.683220 0.614710 -0.605118
C1    C     C_R   0.500630 0.260159 0.499979 0.819019
C2    C     C_R   0.500471 0.739824 0.500053 0.859351
O5    O     O_R   0.376780 0.499970 0.614640 -0.552570
O6    O     O_R   0.623220 0.500030 0.385360 -0.595567
O7    O     O_R   0.376780 0.500000 0.385310 -0.563306
O8    O     O_R   0.623220 0.500000 0.614690 -0.568467
C3    C     C_R   0.338147 0.499484 0.499103 0.867908
C4    C     C_R   0.661844 0.499796 0.500915 0.900449
Zn1   Zn    Zn3+2 0.500000 0.499980 0.653120 1.008704
Zn2   Zn    Zn3+2 0.500000 0.500020 0.346880 1.009589
C5    C     C_3   0.971716 0.388312 0.561420 -0.263235
C6    C     C_3   0.027930 0.601596 0.444062 -0.259844
C7    C     C_3   0.026565 0.394659 0.432040 -0.250959
C8    C     C_3   0.973182 0.595153 0.573426 -0.264736
H1    H     H_    0.049485 0.314465 0.372224 0.184882
H2    H     H_    0.950159 0.675330 0.633158 0.188525
H3    H     H_    0.947524 0.302729 0.611464 0.179673
H4    H     H_    0.052079 0.687369 0.394318 0.192524
C9    C     C_1   0.249293 0.497611 0.497450 -0.111260
C10   C     C_1   0.750649 0.497980 0.502994 -0.191220
C11   C     C_3   0.029329 0.488705 0.626832 0.375350
C12   C     C_3   0.970427 0.501086 0.378853 0.399801
C13   C     C_3   0.083222 0.494963 0.500540 0.019656
C14   C     C_3   0.916661 0.494930 0.504902 0.038898
C15   C     C_1   0.174017 0.496046 0.497971 0.058519
C16   C     C_1   0.825895 0.496308 0.504290 0.013361
C17   C     C_R   0.514879 0.064033 0.379397 -0.205845
C18   C     C_R   0.490212 0.935941 0.621212 -0.169350
H5    H     H_    0.525423 0.112618 0.285467 0.150777
H6    H     H_    0.480359 0.887426 0.715471 0.168527
C19   C     C_R   0.514593 0.936159 0.379330 -0.170259
C20   C     C_R   0.490638 0.063692 0.621238 -0.207760
H7    H     H_    0.524640 0.887698 0.285228 0.183031
H8    H     H_    0.481556 0.111841 0.715589 0.144197
C21   C     C_R   0.501681 0.872419 0.500134 -0.019961
C22   C     C_R   0.502059 0.127538 0.500155 -0.004623
C23   C     C_R   0.567824 0.548437 0.074912 0.351367
C24   C     C_R   0.430820 0.456821 0.926865 0.377975
C25   C     C_R   0.570996 0.536092 0.931151 0.360968
C26   C     C_R   0.432186 0.452497 0.070328 0.373586
N1    N     N_R   0.499980 0.499970 0.857200 -0.211097
N2    N     N_R   0.500020 0.500030 0.142800 -0.202946
N3    N     N_R   0.935317 0.506499 0.242496 0.210347
O9    O     O_R   0.951729 0.601639 0.165592 -0.357922
O10   O     O_R   0.888358 0.415063 0.196490 -0.407855
N4    N     N_R   0.061115 0.481639 0.765212 0.212544
O11   O     O_R   0.007576 0.477069 0.863711 -0.322723
O12   O     O_R   0.142459 0.479100 0.791307 -0.348346
O13   O     O_3   0.621570 0.631003 0.143508 -0.582941
C27   C     C_3   0.706461 0.589425 0.147812 -0.076516
H9    H     H_    0.740603 0.616357 0.055281 0.210374
H10   H     H_    0.711172 0.487778 0.168993 0.153326
H11   H     H_    0.740016 0.638069 0.231955 0.175802
O14   O     O_3   0.357066 0.423031 0.858448 -0.509754
C28   C     C_3   0.355647 0.293021 0.834017 -0.120409
H12   H     H_    0.295070 0.253759 0.872089 0.174672
H13   H     H_    0.409320 0.239942 0.880766 0.055193
H14   H     H_    0.355308 0.276127 0.723994 0.168065
O15   O     O_3   0.646965 0.555746 0.866983 -0.561001
C29   C     C_3   0.690038 0.439905 0.862895 -0.235868
H15   H     H_    0.750447 0.452964 0.807950 0.209675
H16   H     H_    0.651744 0.366506 0.809873 0.164973
H17   H     H_    0.706642 0.404170 0.964409 0.124331
O16   O     O_3   0.360355 0.412395 0.136640 -0.528189
C30   C     C_3   0.366251 0.283496 0.165465 -0.162748
H18   H     H_    0.351682 0.268364 0.273144 0.177736
H19   H     H_    0.429396 0.240907 0.145111 0.089361
H20   H     H_    0.316780 0.232154 0.106648 0.151360

loop_
_geom_bond_atom_site_label_1
_geom_bond_atom_site_label_2
_geom_bond_distance
_ccdc_geom_bond_type
C30   H20   1.107780 S    
N4    O12   1.300311 A    
C23   N2    1.367519 A    
C17   H5    1.082794 S    
C27   H10   1.112194 S    
C5    C7    1.559080 S    
C11   N4    1.457814 S    
C11   C13   1.525036 S    
C25   N1    1.379153 A    
C4    C10   1.394869 S    
C19   C21   1.397483 A    
N3    O9    1.300389 A    
O6    C4    1.290456 A    
O7    Zn2   1.978086 S    
C29   H15   1.109436 S    
C24   O14   1.380036 S    
C6    C13   1.541618 S    
C20   H8    1.081810 S    
N4    O11   1.300294 A    
Zn2   N2    2.027486 S    
C25   O15   1.375768 S    
C28   H12   1.108706 S    
N3    O10   1.300290 A    
C8    C11   1.537222 S    
O13   C27   1.409295 S    
C27   H11   1.109293 S    
O5    C3    1.290342 A    
C23   C25   1.435972 A    
C23   O13   1.389293 S    
C5    C14   1.539545 S    
O2    C2    1.290371 A    
O3    Zn2   2.000245 S    
C24   C26   1.425869 A    
C12   N3    1.456347 S    
O6    Zn2   1.967059 S    
O1    C1    1.290487 A    
C7    C12   1.536238 S    
O8    C4    1.290724 A    
C14   C16   1.425655 S    
C18   C21   1.396808 A    
C19   H7    1.083625 S    
C26   N2    1.371499 A    
C8    H2    1.110170 S    
O7    C3    1.290932 A    
C6    C12   1.536766 S    
C30   H18   1.108916 S    
O2    Zn2   2.000277 S    
C17   C19   1.370190 A    
C26   O16   1.380368 S    
C10   C16   1.181947 T    
C13   C15   1.426543 S    
C9    C15   1.182306 T    
C7    C13   1.541493 S    
C29   H17   1.107079 S    
C18   C20   1.368866 A    
O1    Zn1   2.000277 S    
C5    H3    1.110118 S    
C8    C14   1.539788 S    
C17   C22   1.397235 A    
Zn1   N1    2.027486 S    
C5    C11   1.537731 S    
C6    C8    1.558089 S    
O4    C2    1.290617 A    
C28   H13   1.116323 S    
C3    C9    1.395333 S    
O4    Zn1   2.000245 S    
C30   H19   1.116307 S    
C2    C21   1.420784 S    
C7    H1    1.110220 S    
C20   C22   1.397020 A    
C6    H4    1.110231 S    
O5    Zn1   1.967062 S    
C27   H9    1.108131 S    
C28   H14   1.107861 S    
O14   C28   1.414020 S    
C1    C22   1.421454 S    
C12   C14   1.521842 S    
C24   N1    1.373528 A    
O15   C29   1.419445 S    
C29   H16   1.113754 S    
O16   C30   1.414096 S    
O3    C1    1.290844 A    
O8    Zn1   1.978085 S    
C18   H6    1.083567 S    
