data_mof_unit_61861.cif
_audit_creation_date              2013-03-05T16:02:56-0500
_audit_creation_method            fapswitch 2.2
_symmetry_space_group_name_H-M    P1
_symmetry_Int_Tables_number       1
_space_group_crystal_system       triclinic
_cell_length_a                    18.357022
_cell_length_b                    18.356922
_cell_length_c                    60.038385
_cell_angle_alpha                 89.999926
_cell_angle_beta                  90.00001
_cell_angle_gamma                 90.000927
_cell_volume                      20231.6401744

loop_
_atom_site_label
_atom_site_type_symbol
_atom_site_description
_atom_site_fract_x
_atom_site_fract_y
_atom_site_fract_z
_atom_type_partial_charge
Zn1   Zn    Zn3+2 0.586770 0.000000 0.731050 1.054248
Zn2   Zn    Zn3+2 0.413230 0.000000 0.268950 1.054385
Zn3   Zn    Zn3+2 0.000000 0.586770 0.731050 1.054445
Zn4   Zn    Zn3+2 1.000000 0.413230 0.268950 1.054231
Zn5   Zn    Zn3+2 0.413230 0.000000 0.731050 1.054248
Zn6   Zn    Zn3+2 0.586770 0.000000 0.268950 1.054390
Zn7   Zn    Zn3+2 0.000000 0.413230 0.731050 1.054428
Zn8   Zn    Zn3+2 0.000000 0.586770 0.268950 1.054231
Zn9   Zn    Zn3+2 0.086770 0.500000 0.231050 1.054243
Zn10  Zn    Zn3+2 0.913230 0.500000 0.768950 1.054420
Zn11  Zn    Zn3+2 0.500000 0.086770 0.231050 1.054467
Zn12  Zn    Zn3+2 0.500000 0.913230 0.768950 1.054210
Zn13  Zn    Zn3+2 0.913230 0.500000 0.231050 1.054243
Zn14  Zn    Zn3+2 0.086770 0.500000 0.768950 1.054442
Zn15  Zn    Zn3+2 0.500000 0.913230 0.231050 1.054461
Zn16  Zn    Zn3+2 0.500000 0.086770 0.768950 1.054210
O1    O     O_3   0.500000 0.000000 0.750000 -0.524080
O2    O     O_3   0.500000 0.000000 0.250000 -0.524027
O3    O     O_3   0.000000 0.500000 0.750000 -0.524022
O4    O     O_3   0.000000 0.500000 0.250000 -0.524077
O5    O     O_R   0.500000 0.060550 0.799700 -0.604095
O6    O     O_R   0.500000 0.939450 0.200300 -0.604201
O7    O     O_R   0.939450 0.500000 0.799700 -0.604318
O8    O     O_R   0.060550 0.500000 0.200300 -0.604049
O9    O     O_R   0.500000 0.939450 0.799700 -0.604095
O10   O     O_R   0.500000 0.060550 0.200300 -0.604197
O11   O     O_R   0.060550 0.500000 0.799700 -0.604306
O12   O     O_R   0.939450 0.500000 0.200300 -0.604050
O13   O     O_R   0.000000 0.560550 0.299700 -0.604027
O14   O     O_R   0.000000 0.439450 0.700300 -0.604336
O15   O     O_R   0.439450 0.000000 0.299700 -0.604411
O16   O     O_R   0.560550 0.000000 0.700300 -0.603959
O17   O     O_R   0.000000 0.439450 0.299700 -0.604028
O18   O     O_R   0.000000 0.560550 0.700300 -0.604329
O19   O     O_R   0.560550 0.000000 0.299700 -0.604408
O20   O     O_R   0.439450 0.000000 0.700300 -0.603959
O21   O     O_R   0.585450 0.853690 0.762850 -0.642856
O22   O     O_R   0.414550 0.146310 0.237150 -0.630204
O23   O     O_R   0.146310 0.585450 0.762850 -0.642894
O24   O     O_R   0.853690 0.414550 0.237150 -0.630189
O25   O     O_R   0.414550 0.146310 0.762850 -0.642857
O26   O     O_R   0.585450 0.853690 0.237150 -0.630203
O27   O     O_R   0.853690 0.414550 0.762850 -0.642904
O28   O     O_R   0.146310 0.585450 0.237150 -0.630189
O29   O     O_R   0.585450 0.146310 0.237150 -0.642819
O30   O     O_R   0.414550 0.853690 0.762850 -0.630236
O31   O     O_R   0.146310 0.414550 0.237150 -0.642811
O32   O     O_R   0.853690 0.585450 0.762850 -0.630283
O33   O     O_R   0.414550 0.853690 0.237150 -0.642822
O34   O     O_R   0.585450 0.146310 0.762850 -0.630236
O35   O     O_R   0.853690 0.585450 0.237150 -0.642811
O36   O     O_R   0.146310 0.414550 0.762850 -0.630286
O37   O     O_R   0.085450 0.353690 0.262850 -0.642816
O38   O     O_R   0.914550 0.646310 0.737150 -0.630285
O39   O     O_R   0.646310 0.085450 0.262850 -0.642965
O40   O     O_R   0.353690 0.914550 0.737150 -0.630144
O41   O     O_R   0.914550 0.646310 0.262850 -0.642816
O42   O     O_R   0.085450 0.353690 0.737150 -0.630283
O43   O     O_R   0.353690 0.914550 0.262850 -0.642968
O44   O     O_R   0.646310 0.085450 0.737150 -0.630143
O45   O     O_R   0.085450 0.646310 0.737150 -0.642897
O46   O     O_R   0.914550 0.353690 0.262850 -0.630198
O47   O     O_R   0.646310 0.914550 0.737150 -0.642762
O48   O     O_R   0.353690 0.085450 0.262850 -0.630355
O49   O     O_R   0.914550 0.353690 0.737150 -0.642903
O50   O     O_R   0.085450 0.646310 0.262850 -0.630199
O51   O     O_R   0.353690 0.085450 0.737150 -0.642762
O52   O     O_R   0.646310 0.914550 0.262850 -0.630355
C1    C     C_R   0.500000 1.000000 0.810417 0.949297
C2    C     C_R   0.500000 0.000000 0.189584 0.949527
C3    C     C_R   1.000000 0.500001 0.810414 0.950413
C4    C     C_R   1.000000 0.500000 0.189581 0.948892
C5    C     C_R   1.000000 0.500000 0.310419 0.948757
C6    C     C_R   0.000001 0.500000 0.689586 0.950543
C7    C     C_R   0.500000 0.000000 0.310412 0.951223
C8    C     C_R   0.500000 1.000000 0.689579 0.948208
C9    C     C_R   0.640300 0.859700 0.750000 0.811895
C10   C     C_R   0.359705 0.140295 0.250000 0.835890
C11   C     C_R   0.140299 0.640299 0.750000 0.812168
C12   C     C_R   0.859705 0.359705 0.250000 0.835393
C13   C     C_R   0.359700 0.140299 0.750000 0.811895
C14   C     C_R   0.640295 0.859705 0.250000 0.835891
C15   C     C_R   0.859701 0.359700 0.750000 0.812157
C16   C     C_R   0.140295 0.640295 0.250000 0.835391
C17   C     C_R   0.640299 0.140299 0.250000 0.812151
C18   C     C_R   0.359705 0.859705 0.750000 0.835369
C19   C     C_R   0.140300 0.359700 0.250000 0.811906
C20   C     C_R   0.859705 0.640295 0.750000 0.835926
C21   C     C_R   0.359701 0.859700 0.250000 0.812148
C22   C     C_R   0.640295 0.140294 0.750000 0.835367
C23   C     C_R   0.859700 0.640299 0.250000 0.811906
C24   C     C_R   0.140295 0.359705 0.750000 0.835919
C25   C     C_R   0.755933 0.190651 0.735510 -0.130127
C26   C     C_R   0.244040 0.809341 0.264485 -0.146983
C27   C     C_R   0.809348 0.755934 0.735510 -0.130105
C28   C     C_R   0.190657 0.244037 0.264485 -0.146887
C29   C     C_R   0.244067 0.809349 0.735510 -0.130125
C30   C     C_R   0.755960 0.190659 0.264485 -0.146981
C31   C     C_R   0.190651 0.244066 0.735510 -0.130102
C32   C     C_R   0.809343 0.755963 0.264485 -0.146888
C33   C     C_R   0.755934 0.809350 0.264489 -0.130139
C34   C     C_R   0.244038 0.190658 0.735515 -0.146853
C35   C     C_R   0.809347 0.244068 0.264490 -0.130157
C36   C     C_R   0.190658 0.755961 0.735515 -0.146944
C37   C     C_R   0.244066 0.190650 0.264489 -0.130138
C38   C     C_R   0.755961 0.809342 0.735515 -0.146853
C39   C     C_R   0.190652 0.755932 0.264490 -0.130158
C40   C     C_R   0.809342 0.244039 0.735515 -0.146949
C41   C     C_R   0.255932 0.690652 0.235510 -0.130118
C42   C     C_R   0.744039 0.309341 0.764485 -0.146954
C43   C     C_R   0.309350 0.255936 0.235511 -0.130088
C44   C     C_R   0.690659 0.744038 0.764485 -0.146904
C45   C     C_R   0.744068 0.309348 0.235510 -0.130117
C46   C     C_R   0.255960 0.690658 0.764485 -0.146945
C47   C     C_R   0.690649 0.744064 0.235511 -0.130087
C48   C     C_R   0.309341 0.255961 0.764485 -0.146904
C49   C     C_R   0.255933 0.309348 0.764490 -0.130121
C50   C     C_R   0.744037 0.690656 0.235516 -0.146879
C51   C     C_R   0.309348 0.744067 0.764490 -0.130152
C52   C     C_R   0.690659 0.255961 0.235514 -0.146902
C53   C     C_R   0.744067 0.690651 0.764490 -0.130119
C54   C     C_R   0.255963 0.309344 0.235516 -0.146879
C55   C     C_R   0.690652 0.255933 0.764490 -0.130153
C56   C     C_R   0.309341 0.744039 0.235515 -0.146904
H1    H     H_    0.761319 0.145081 0.724167 0.191595
H2    H     H_    0.238631 0.854927 0.275820 0.184783
H3    H     H_    0.854919 0.761321 0.724167 0.191425
H4    H     H_    0.145069 0.238626 0.275819 0.184913
H5    H     H_    0.238681 0.854919 0.724167 0.191596
H6    H     H_    0.761368 0.145073 0.275820 0.184784
H7    H     H_    0.145081 0.238679 0.724167 0.191423
H8    H     H_    0.854931 0.761374 0.275819 0.184914
H9    H     H_    0.761323 0.854921 0.275832 0.191350
H10   H     H_    0.238629 0.145071 0.724180 0.184973
H11   H     H_    0.854917 0.238682 0.275834 0.191532
H12   H     H_    0.145072 0.761370 0.724180 0.184848
H13   H     H_    0.238677 0.145078 0.275832 0.191349
H14   H     H_    0.761371 0.854929 0.724180 0.184974
H15   H     H_    0.145083 0.761318 0.275833 0.191531
H16   H     H_    0.854928 0.238629 0.724180 0.184844
H17   H     H_    0.261317 0.645082 0.224166 0.191561
H18   H     H_    0.738630 0.354928 0.775820 0.184826
H19   H     H_    0.354922 0.261324 0.224168 0.191497
H20   H     H_    0.645072 0.738629 0.775820 0.184895
H21   H     H_    0.738683 0.354918 0.224166 0.191561
H22   H     H_    0.261369 0.645072 0.775820 0.184832
H23   H     H_    0.645078 0.738676 0.224168 0.191496
H24   H     H_    0.354928 0.261371 0.775820 0.184895
H25   H     H_    0.261320 0.354919 0.775833 0.191412
H26   H     H_    0.738626 0.645068 0.224182 0.184946
H27   H     H_    0.354918 0.738681 0.775833 0.191505
H28   H     H_    0.645073 0.261369 0.224180 0.184908
H29   H     H_    0.738680 0.645081 0.775833 0.191407
H30   H     H_    0.261374 0.354932 0.224182 0.184946
H31   H     H_    0.645082 0.261319 0.775833 0.191504
H32   H     H_    0.354927 0.738631 0.224180 0.184906
C57   C     C_R   0.803649 0.303648 0.750000 -0.015653
C58   C     C_R   0.196338 0.696338 0.250000 -0.019297
C59   C     C_R   0.696352 0.803649 0.750000 -0.015731
C60   C     C_R   0.303662 0.196339 0.250000 -0.019242
C61   C     C_R   0.196351 0.696352 0.750000 -0.015659
C62   C     C_R   0.803662 0.303662 0.250000 -0.019297
C63   C     C_R   0.303648 0.196351 0.750000 -0.015731
C64   C     C_R   0.696338 0.803661 0.250000 -0.019242
C65   C     C_R   0.803648 0.696351 0.250000 -0.015727
C66   C     C_R   0.196338 0.303661 0.750000 -0.019241
C67   C     C_R   0.696351 0.196352 0.250000 -0.015663
C68   C     C_R   0.303662 0.803662 0.750000 -0.019298
C69   C     C_R   0.196352 0.303649 0.250000 -0.015727
C70   C     C_R   0.803662 0.696338 0.750000 -0.019241
C71   C     C_R   0.303649 0.803648 0.250000 -0.015661
C72   C     C_R   0.696338 0.196338 0.750000 -0.019296
C73   C     C_R   0.486603 0.063479 0.582666 0.666015
C74   C     C_R   0.484764 0.936936 0.417292 0.666018
C75   C     C_R   0.936850 0.485139 0.582700 0.666016
C76   C     C_R   0.063404 0.486247 0.417325 0.666019
C77   C     C_R   0.513395 0.936522 0.582666 0.666015
C78   C     C_R   0.515231 0.063066 0.417292 0.666021
C79   C     C_R   0.063159 0.514851 0.582700 0.666029
C80   C     C_R   0.936598 0.513745 0.417326 0.666020
C81   C     C_R   0.986136 0.563383 0.082677 0.666031
C82   C     C_R   0.985250 0.436831 0.917302 0.666003
C83   C     C_R   0.436735 0.985629 0.082691 0.666057
C84   C     C_R   0.563314 0.985843 0.917314 0.666051
C85   C     C_R   0.013859 0.436624 0.082677 0.666033
C86   C     C_R   0.014745 0.563191 0.917303 0.666028
C87   C     C_R   0.563269 0.014368 0.082690 0.666063
C88   C     C_R   0.436685 0.014151 0.917314 0.666050
O53   O     O_2   0.467258 0.123059 0.594397 -0.439140
O54   O     O_2   0.463765 0.877931 0.405555 -0.439069
O55   O     O_2   0.877723 0.464483 0.594436 -0.439076
O56   O     O_2   0.122878 0.466592 0.405592 -0.439137
O57   O     O_2   0.532740 0.876942 0.594397 -0.439141
O58   O     O_2   0.536231 0.122071 0.405555 -0.439064
O59   O     O_2   0.122287 0.535509 0.594435 -0.439063
O60   O     O_2   0.877123 0.533401 0.405593 -0.439135
O61   O     O_2   0.966382 0.622823 0.094411 -0.439119
O62   O     O_2   0.964689 0.377669 0.905567 -0.439103
O63   O     O_2   0.377451 0.965427 0.094427 -0.439098
O64   O     O_2   0.622665 0.965836 0.905579 -0.439114
O65   O     O_2   0.033613 0.377183 0.094409 -0.439120
O66   O     O_2   0.035309 0.622353 0.905568 -0.439078
O67   O     O_2   0.622553 0.034570 0.094426 -0.439091
O68   O     O_2   0.377333 0.034159 0.905579 -0.439114
N1    N     N_R   0.499999 0.000000 0.593797 -0.321688
N2    N     N_R   0.499998 0.000001 0.406164 -0.321739
N3    N     N_R   0.000005 0.499996 0.593828 -0.321735
N4    N     N_R   0.000001 0.499996 0.406196 -0.321691
N5    N     N_R   0.999998 0.500003 0.093807 -0.321701
N6    N     N_R   0.999998 0.500011 0.906174 -0.321728
N7    N     N_R   0.500002 0.999998 0.093818 -0.321714
N8    N     N_R   0.499999 0.999997 0.906186 -0.321703
C89   C     C_R   0.443997 0.963988 0.629518 0.235311
C90   C     C_R   0.444876 0.037354 0.370446 0.235528
C91   C     C_R   0.037076 0.444687 0.629547 0.235497
C92   C     C_R   0.963750 0.444149 0.370476 0.235339
C93   C     C_R   0.556002 0.036012 0.629518 0.235311
C94   C     C_R   0.555123 0.962650 0.370447 0.235528
C95   C     C_R   0.962938 0.555312 0.629546 0.235500
C96   C     C_R   0.036250 0.555848 0.370476 0.235339
C97   C     C_R   0.944197 0.463677 0.129526 0.235365
C98   C     C_R   0.944645 0.537014 0.870455 0.235463
C99   C     C_R   0.536656 0.944413 0.129536 0.235426
C100  C     C_R   0.463498 0.944311 0.870468 0.235390
C101  C     C_R   0.055800 0.536326 0.129526 0.235366
C102  C     C_R   0.055359 0.463011 0.870456 0.235469
C103  C     C_R   0.463349 0.055587 0.129536 0.235428
C104  C     C_R   0.536501 0.055686 0.870468 0.235391
C105  C     C_R   0.444528 0.962970 0.652979 0.171692
C106  C     C_R   0.445382 0.038286 0.346984 0.171297
C107  C     C_R   0.038026 0.445199 0.653009 0.171379
C108  C     C_R   0.962748 0.444675 0.347014 0.171638
C109  C     C_R   0.555471 0.037030 0.652979 0.171693
C110  C     C_R   0.554618 0.961718 0.346984 0.171298
C111  C     C_R   0.961987 0.554802 0.653008 0.171382
C112  C     C_R   0.037251 0.555323 0.347014 0.171638
C113  C     C_R   0.944722 0.462680 0.152988 0.171610
C114  C     C_R   0.945157 0.537969 0.846993 0.171396
C115  C     C_R   0.537627 0.944928 0.152998 0.171535
C116  C     C_R   0.462517 0.944830 0.847006 0.171585
C117  C     C_R   0.055277 0.537321 0.152988 0.171610
C118  C     C_R   0.054846 0.462054 0.846994 0.171402
C119  C     C_R   0.462379 0.055072 0.152998 0.171536
C120  C     C_R   0.537482 0.055168 0.847006 0.171586
C121  C     C_R   0.499999 0.000000 0.617827 -0.012795
C122  C     C_R   0.499999 0.000001 0.382136 -0.012821
C123  C     C_R   0.000006 0.499998 0.617857 -0.012826
C124  C     C_R   0.000000 0.499998 0.382166 -0.012782
C125  C     C_R   0.999999 0.500002 0.117836 -0.012792
C126  C     C_R   0.000000 0.500012 0.882145 -0.012818
C127  C     C_R   0.500002 0.999999 0.117847 -0.012793
C128  C     C_R   0.499999 0.999998 0.882158 -0.012777
C129  C     C_R   0.499998 0.000000 0.547339 -0.101511
C130  C     C_R   0.499997 0.000001 0.452621 -0.101436
C131  C     C_R   0.000004 0.499993 0.547371 -0.101459
C132  C     C_R   0.000002 0.499993 0.452653 -0.101476
C133  C     C_R   0.999996 0.500005 0.047349 -0.101482
C134  C     C_R   0.999995 0.500009 0.952631 -0.101455
C135  C     C_R   0.500001 0.999997 0.047362 -0.101446
C136  C     C_R   0.500000 0.999997 0.952643 -0.101443
C137  C     C_R   0.491853 0.066253 0.559210 -0.138030
C138  C     C_R   0.489864 0.934020 0.440750 -0.138047
C139  C     C_R   0.933963 0.490266 0.559242 -0.138037
C140  C     C_R   0.066205 0.491460 0.440782 -0.138040
C141  C     C_R   0.508143 0.933748 0.559210 -0.138030
C142  C     C_R   0.510130 0.065982 0.440750 -0.138050
C143  C     C_R   0.066046 0.509720 0.559242 -0.138042
C144  C     C_R   0.933798 0.508528 0.440782 -0.138040
C145  C     C_R   0.991339 0.566193 0.059221 -0.138034
C146  C     C_R   0.990391 0.433951 0.940760 -0.138038
C147  C     C_R   0.433888 0.990779 0.059233 -0.138037
C148  C     C_R   0.566145 0.991012 0.940771 -0.138042
C149  C     C_R   0.008654 0.433816 0.059220 -0.138033
C150  C     C_R   0.009600 0.566069 0.940760 -0.138046
C151  C     C_R   0.566115 0.009217 0.059233 -0.138039
C152  C     C_R   0.433855 0.008981 0.940772 -0.138043
C153  C     C_R   0.487005 0.132427 0.547243 0.331905
C154  C     C_R   0.482966 0.868031 0.452719 0.331956
C155  C     C_R   0.867932 0.483784 0.547274 0.331938
C156  C     C_R   0.132347 0.486202 0.452749 0.331922
C157  C     C_R   0.512990 0.867574 0.547243 0.331904
C158  C     C_R   0.517029 0.131971 0.452719 0.331955
C159  C     C_R   0.132077 0.516201 0.547274 0.331936
C160  C     C_R   0.867657 0.513783 0.452749 0.331921
C161  C     C_R   0.985954 0.632324 0.047253 0.331923
C162  C     C_R   0.984038 0.367906 0.952727 0.331945
C163  C     C_R   0.367809 0.984802 0.047266 0.331930
C164  C     C_R   0.632245 0.985278 0.952739 0.331927
C165  C     C_R   0.014039 0.367686 0.047252 0.331923
C166  C     C_R   0.015952 0.632113 0.952728 0.331942
C167  C     C_R   0.632193 0.015193 0.047265 0.331929
C168  C     C_R   0.367755 0.014715 0.952739 0.331929
C169  C     C_R   0.500000 1.000000 0.664853 -0.331842
C170  C     C_R   0.500000 0.000001 0.335122 -0.331444
C171  C     C_R   0.000004 0.500000 0.664873 -0.331526
C172  C     C_R   0.999999 0.499999 0.335142 -0.331777
C173  C     C_R   1.000000 0.500000 0.164859 -0.331761
C174  C     C_R   0.000000 0.500007 0.835128 -0.331535
C175  C     C_R   0.500002 0.000000 0.164866 -0.331653
C176  C     C_R   0.499999 0.999999 0.835137 -0.331724
C177  C     C_R   0.003714 0.566723 0.988168 0.028804
C178  C     C_R   0.002748 0.433245 0.011812 0.028795
C179  C     C_R   0.433254 0.003105 0.988180 0.028804
C180  C     C_R   0.566736 0.003347 0.011825 0.028811
C181  C     C_R   0.996275 0.433293 0.988167 0.028803
C182  C     C_R   0.997243 0.566769 0.011813 0.028794
C183  C     C_R   0.566747 0.996887 0.988179 0.028804
C184  C     C_R   0.433266 0.996647 0.011825 0.028811
C185  C     C_R   0.504255 0.066684 0.488158 0.028807
C186  C     C_R   0.502215 0.933219 0.511803 0.028784
C187  C     C_R   0.933236 0.502617 0.488189 0.028787
C188  C     C_R   0.066711 0.503839 0.511834 0.028808
C189  C     C_R   0.495739 0.933318 0.488158 0.028806
C190  C     C_R   0.497780 0.066783 0.511803 0.028784
C191  C     C_R   0.066770 0.497367 0.488189 0.028787
C192  C     C_R   0.933296 0.496145 0.511834 0.028808
C193  C     C_R   0.999995 0.500008 0.976366 0.098589
C194  C     C_R   0.999996 0.500006 0.023614 0.098596
C195  C     C_R   0.500000 0.999996 0.976378 0.098585
C196  C     C_R   0.500001 0.999997 0.023626 0.098586
C197  C     C_R   0.499997 0.000001 0.476357 0.098586
C198  C     C_R   0.499997 0.000001 0.523604 0.098600
C199  C     C_R   0.000002 0.499993 0.476388 0.098593
C200  C     C_R   0.000004 0.499992 0.523636 0.098589
C201  C     C_R   0.013984 0.631484 0.975929 -0.224321
C202  C     C_R   0.012075 0.368342 0.024051 -0.224325
C203  C     C_R   0.368402 0.012766 0.975940 -0.224297
C204  C     C_R   0.631553 0.013244 0.024064 -0.224331
C205  C     C_R   0.986005 0.368533 0.975928 -0.224322
C206  C     C_R   0.987916 0.631671 0.024052 -0.224325
C207  C     C_R   0.631599 0.987226 0.975940 -0.224299
C208  C     C_R   0.368449 0.986750 0.024065 -0.224332
C209  C     C_R   0.515054 0.131358 0.475920 -0.224333
C210  C     C_R   0.511022 0.868244 0.524042 -0.224319
C211  C     C_R   0.868316 0.511819 0.475950 -0.224292
C212  C     C_R   0.131451 0.514232 0.524073 -0.224354
C213  C     C_R   0.484940 0.868644 0.475920 -0.224333
C214  C     C_R   0.488972 0.131758 0.524042 -0.224320
C215  C     C_R   0.131689 0.488165 0.475950 -0.224293
C216  C     C_R   0.868556 0.485751 0.524073 -0.224355
H33   H     H_    0.021402 0.683418 0.983960 0.190488
H34   H     H_    0.018731 0.316305 0.016020 0.190527
H35   H     H_    0.316399 0.019702 0.983970 0.190499
H36   H     H_    0.683529 0.020371 0.016035 0.190493
H37   H     H_    0.978586 0.316598 0.983959 0.190488
H38   H     H_    0.981259 0.683709 0.016022 0.190527
H39   H     H_    0.683601 0.980289 0.983969 0.190499
H40   H     H_    0.316472 0.979623 0.016035 0.190494
H41   H     H_    0.522901 0.183229 0.483951 0.190464
H42   H     H_    0.517253 0.816154 0.516011 0.190558
H43   H     H_    0.816266 0.518374 0.483982 0.190530
H44   H     H_    0.183371 0.521752 0.516042 0.190486
H45   H     H_    0.477093 0.816773 0.483951 0.190464
H46   H     H_    0.482741 0.183847 0.516011 0.190558
H47   H     H_    0.183739 0.481609 0.483980 0.190530
H48   H     H_    0.816636 0.478230 0.516043 0.190486
N9    N     N_R   0.611328 0.076240 0.664660 0.259828
O69   O     O_R   0.594178 0.130264 0.677677 -0.349616
O70   O     O_R   0.679613 0.060411 0.661447 -0.286410
N10   N     N_R   0.609595 0.921320 0.335286 0.259413
O71   O     O_R   0.591215 0.868224 0.322070 -0.351214
O72   O     O_R   0.678230 0.935220 0.338632 -0.286104
N11   N     N_R   0.921843 0.609971 0.664703 0.259504
O73   O     O_R   0.868541 0.591853 0.677874 -0.350926
O74   O     O_R   0.936167 0.678536 0.661387 -0.286121
N12   N     N_R   0.076666 0.611031 0.335330 0.259761
O75   O     O_R   0.130534 0.593667 0.322279 -0.349835
O76   O     O_R   0.061163 0.679380 0.338564 -0.286417
N13   N     N_R   0.388671 0.923759 0.664661 0.259829
O77   O     O_R   0.405822 0.869735 0.677677 -0.349617
O78   O     O_R   0.320387 0.939589 0.661448 -0.286409
N14   N     N_R   0.390409 0.078689 0.335285 0.259410
O79   O     O_R   0.408794 0.131779 0.322068 -0.351222
O80   O     O_R   0.321771 0.064800 0.338633 -0.286102
N15   N     N_R   0.078181 0.390039 0.664704 0.259496
O81   O     O_R   0.131465 0.408171 0.677881 -0.350952
O82   O     O_R   0.063895 0.321470 0.661382 -0.286109
N16   N     N_R   0.923331 0.388969 0.335329 0.259760
O83   O     O_R   0.869465 0.406335 0.322278 -0.349838
O84   O     O_R   0.938831 0.320619 0.338564 -0.286416
N17   N     N_R   0.110937 0.576802 0.164673 0.259739
O85   O     O_R   0.093505 0.630619 0.177735 -0.349996
O86   O     O_R   0.179305 0.561404 0.161432 -0.286306
N18   N     N_R   0.110059 0.421969 0.835300 0.259527
O87   O     O_R   0.092002 0.368615 0.822140 -0.350789
O88   O     O_R   0.178606 0.436397 0.838607 -0.286195
N19   N     N_R   0.422620 0.110525 0.164687 0.259648
O89   O     O_R   0.369013 0.092804 0.177794 -0.350404
O90   O     O_R   0.437581 0.178978 0.161418 -0.286230
N20   N     N_R   0.577109 0.110720 0.835319 0.259694
O91   O     O_R   0.630817 0.093137 0.822234 -0.350129
O92   O     O_R   0.561939 0.179133 0.838574 -0.286341
N21   N     N_R   0.889062 0.423199 0.164673 0.259740
O93   O     O_R   0.906495 0.369381 0.177735 -0.349996
O94   O     O_R   0.820694 0.438597 0.161432 -0.286305
N22   N     N_R   0.889958 0.578071 0.835298 0.259512
O95   O     O_R   0.908036 0.631391 0.822128 -0.350837
O96   O     O_R   0.821404 0.563709 0.838618 -0.286169
N23   N     N_R   0.577392 0.889480 0.164688 0.259644
O97   O     O_R   0.630990 0.907208 0.177797 -0.350417
O98   O     O_R   0.562449 0.821025 0.161416 -0.286225
N24   N     N_R   0.422889 0.889279 0.835318 0.259694
O99   O     O_R   0.369182 0.906863 0.822233 -0.350129
O100  O     O_R   0.438059 0.820866 0.838573 -0.286339
N25   N     N_R   0.612748 0.072904 0.617467 0.259586
O101  O     O_R   0.646654 0.040261 0.601262 -0.319043
O102  O     O_R   0.629224 0.140094 0.622191 -0.224250
N26   N     N_R   0.610875 0.924283 0.382499 0.259612
O103  O     O_R   0.645573 0.955996 0.398720 -0.319045
O104  O     O_R   0.625594 0.856693 0.377767 -0.224514
N27   N     N_R   0.924884 0.611280 0.617494 0.259603
O105  O     O_R   0.956796 0.645806 0.601275 -0.319040
O106  O     O_R   0.857380 0.626384 0.622226 -0.224563
N28   N     N_R   0.073407 0.612421 0.382527 0.259581
O107  O     O_R   0.040932 0.646460 0.398738 -0.319058
O108  O     O_R   0.140665 0.628597 0.377798 -0.224243
N29   N     N_R   0.387250 0.927096 0.617467 0.259586
O109  O     O_R   0.353344 0.959739 0.601262 -0.319043
O110  O     O_R   0.370774 0.859906 0.622191 -0.224248
N30   N     N_R   0.389126 0.075723 0.382498 0.259612
O111  O     O_R   0.354422 0.044011 0.398719 -0.319041
O112  O     O_R   0.374416 0.143316 0.377768 -0.224509
N31   N     N_R   0.075138 0.388725 0.617495 0.259603
O113  O     O_R   0.043227 0.354181 0.601279 -0.319029
O114  O     O_R   0.142653 0.373652 0.622222 -0.224551
N32   N     N_R   0.926593 0.387575 0.382526 0.259580
O115  O     O_R   0.959069 0.353532 0.398736 -0.319057
O116  O     O_R   0.859333 0.371402 0.377798 -0.224241
N33   N     N_R   0.112318 0.573566 0.117475 0.259583
O117  O     O_R   0.146401 0.541145 0.101263 -0.319035
O118  O     O_R   0.128397 0.640848 0.122205 -0.224385
N34   N     N_R   0.111381 0.425037 0.882508 0.259605
O119  O     O_R   0.145867 0.457000 0.898726 -0.319040
O120  O     O_R   0.126579 0.357553 0.877776 -0.224421
N35   N     N_R   0.425747 0.111862 0.117484 0.259572
O121  O     O_R   0.457933 0.146123 0.101263 -0.319048
O122  O     O_R   0.358377 0.127533 0.122222 -0.224554
N36   N     N_R   0.573937 0.112072 0.882520 0.259568
O123  O     O_R   0.541646 0.146247 0.898738 -0.319063
O124  O     O_R   0.641265 0.127938 0.877784 -0.224405
N37   N     N_R   0.887679 0.426438 0.117475 0.259583
O125  O     O_R   0.853596 0.458861 0.101263 -0.319035
O126  O     O_R   0.871600 0.359156 0.122204 -0.224384
N38   N     N_R   0.888634 0.575005 0.882506 0.259609
O127  O     O_R   0.854123 0.543044 0.898720 -0.319023
O128  O     O_R   0.873487 0.642506 0.877783 -0.224400
N39   N     N_R   0.574263 0.888141 0.117485 0.259573
O129  O     O_R   0.542077 0.853872 0.101265 -0.319043
O130  O     O_R   0.641638 0.872483 0.122220 -0.224548
N40   N     N_R   0.426061 0.887924 0.882519 0.259568
O131  O     O_R   0.458353 0.853748 0.898737 -0.319061
O132  O     O_R   0.358734 0.872059 0.877784 -0.224402
N41   N     N_R   0.484711 0.201852 0.558197 0.256043
O133  O     O_R   0.539959 0.222768 0.570182 -0.232293
O134  O     O_R   0.435875 0.249619 0.552418 -0.277451
N42   N     N_R   0.478482 0.798709 0.441769 0.256059
O135  O     O_R   0.533107 0.775983 0.429826 -0.232494
O136  O     O_R   0.428066 0.752572 0.447519 -0.277623
N43   N     N_R   0.798583 0.479749 0.558225 0.256055
O137  O     O_R   0.776224 0.534510 0.570175 -0.232629
O138  O     O_R   0.752109 0.429649 0.552470 -0.277478
N44   N     N_R   0.201757 0.483473 0.441796 0.256047
O139  O     O_R   0.223044 0.538611 0.429825 -0.232179
O140  O     O_R   0.249195 0.434304 0.447565 -0.277585
N45   N     N_R   0.515283 0.798149 0.558197 0.256043
O141  O     O_R   0.460036 0.777234 0.570182 -0.232292
O142  O     O_R   0.564118 0.750381 0.552418 -0.277452
N46   N     N_R   0.521513 0.201294 0.441769 0.256057
O143  O     O_R   0.466888 0.224020 0.429826 -0.232490
O144  O     O_R   0.571929 0.247430 0.447519 -0.277622
N47   N     N_R   0.201426 0.520235 0.558224 0.256055
O145  O     O_R   0.223783 0.465476 0.570175 -0.232621
O146  O     O_R   0.247901 0.570333 0.552468 -0.277476
N48   N     N_R   0.798246 0.516512 0.441797 0.256047
O147  O     O_R   0.776961 0.461375 0.429825 -0.232177
O148  O     O_R   0.750806 0.565677 0.447567 -0.277585
N49   N     N_R   0.983087 0.701730 0.058206 0.256043
O149  O     O_R   0.038187 0.723131 0.070174 -0.232424
O150  O     O_R   0.933816 0.749065 0.052440 -0.277457
N50   N     N_R   0.980143 0.298550 0.941776 0.256054
O151  O     O_R   0.034942 0.276311 0.929822 -0.232410
O152  O     O_R   0.930147 0.251968 0.947534 -0.277604
N51   N     N_R   0.298431 0.981317 0.058216 0.256049
O153  O     O_R   0.276508 0.036254 0.070166 -0.232577
O154  O     O_R   0.251563 0.931585 0.052463 -0.277458
N52   N     N_R   0.701635 0.982050 0.941787 0.256052
O155  O     O_R   0.723348 0.037060 0.929833 -0.232335
O156  O     O_R   0.748692 0.932501 0.947544 -0.277568
N53   N     N_R   0.016906 0.298280 0.058204 0.256044
O157  O     O_R   0.961806 0.276877 0.070173 -0.232424
O158  O     O_R   0.066176 0.250945 0.052438 -0.277457
N54   N     N_R   0.019846 0.701470 0.941778 0.256054
O159  O     O_R   0.965049 0.723707 0.929822 -0.232395
O160  O     O_R   0.069840 0.748053 0.947536 -0.277601
N55   N     N_R   0.701572 0.018680 0.058216 0.256051
O161  O     O_R   0.723496 0.963744 0.070166 -0.232574
O162  O     O_R   0.748439 0.068413 0.052462 -0.277456
N56   N     N_R   0.298364 0.017941 0.941788 0.256051
O163  O     O_R   0.276653 0.962931 0.929833 -0.232334
O164  O     O_R   0.251306 0.067488 0.947544 -0.277568

loop_
_geom_bond_atom_site_label_1
_geom_bond_atom_site_label_2
_geom_bond_distance
_ccdc_geom_bond_type
N43   O137  1.301432 A    
C91   C123  1.409471 A    
N9    O69   1.301294 A    
C163  N51   1.434706 S    
N27   O106  1.301217 A    
C104  N36   1.437769 S    
N55   O161  1.301429 A    
C75   N3    1.365573 A    
Zn5   O51   1.946608 S    
N50   O151  1.301430 A    
C141  C157  1.414113 A    
C74   O54   1.348456 S    
C79   O59   1.348460 S    
O33   C21   1.273249 A    
C77   O57   1.348461 S    
C110  C170  1.416463 A    
N30   O111  1.301200 A    
C156  C215  1.393481 A    
C191  C215  1.410218 A    
N1    C121  1.442728 S    
Zn3   O38   1.946613 S    
N44   O140  1.301141 A    
C99   C127  1.409445 A    
Zn5   O20   1.907893 S    
N14   O79   1.301303 A    
C86   O66   1.348458 S    
C160  C211  1.393476 A    
Zn5   O40   1.946580 S    
C80   C144  1.412484 A    
Zn13  O35   1.946608 S    
O34   C22   1.273191 A    
C180  C183  1.424575 A    
Zn14  O36   1.946609 S    
C92   N32   1.437767 S    
Zn2   O48   1.946607 S    
C34   C63   1.401655 A    
Zn3   O3    1.957429 S    
C212  H44   1.076997 S    
C105  N13   1.435720 S    
C80   O60   1.348462 S    
C134  C193  1.425047 A    
C81   N5    1.365595 A    
N33   O118  1.301214 A    
C132  C144  1.417553 A    
C159  N47   1.434707 S    
C149  C165  1.414111 A    
C11   C61   1.455135 S    
C204  H36   1.076987 S    
C115  C175  1.416609 A    
C179  C195  1.416531 A    
C79   N3    1.365573 A    
C108  N16   1.435749 S    
C183  C195  1.416529 A    
O44   C22   1.273184 A    
N31   O114  1.301218 A    
C184  C196  1.416532 A    
Zn1   O44   1.946579 S    
C93   C109  1.408754 A    
C162  C205  1.393466 A    
Zn2   O43   1.946581 S    
C46   C61   1.401651 A    
C162  N50   1.434708 S    
O22   C10   1.273186 A    
Zn3   O18   1.907892 S    
C97   C113  1.408754 A    
C185  C209  1.410194 A    
C43   C60   1.401614 A    
N39   O130  1.301214 A    
C77   C141  1.412481 A    
C42   C55   1.386240 A    
C74   C138  1.412504 A    
C45   C52   1.386240 A    
O40   C18   1.273183 A    
C104  C120  1.408750 A    
C132  C199  1.425035 A    
C49   C66   1.401614 A    
C47   C50   1.386251 A    
C86   C150  1.412495 A    
N56   O163  1.301430 A    
C94   C110  1.408779 A    
C42   C57   1.401654 A    
C165  C202  1.393475 A    
C9    C59   1.455156 S    
O17   C5    1.284370 A    
N34   O119  1.301197 A    
C87   N7    1.365565 A    
C167  C204  1.393448 A    
Zn7   O3    1.957432 S    
C132  C140  1.417554 A    
N17   O85   1.301294 A    
C85   N5    1.365594 A    
O9    C1    1.284313 A    
N19   O89   1.301299 A    
O11   C3    1.284221 A    
C103  C127  1.409441 A    
C129  C137  1.417539 A    
N23   O98   1.301129 A    
C130  C142  1.417592 A    
Zn13  O4    1.957438 S    
Zn14  O3    1.957437 S    
Zn15  O26   1.946611 S    
N22   O96   1.301132 A    
N3    C123  1.442626 S    
C187  C199  1.416518 A    
N15   O81   1.301302 A    
C32   H8    1.083168 S    
C33   H9    1.083213 S    
C92   C124  1.409439 A    
N21   O93   1.301292 A    
C76   N4    1.365599 A    
C112  C172  1.416701 A    
C8    C169  1.484509 S    
N49   O150  1.301139 A    
C99   C115  1.408747 A    
N25   O101  1.301202 A    
C157  N45   1.434735 S    
O38   C20   1.273184 A    
C88   N8    1.365573 A    
N48   O147  1.301438 A    
C213  H45   1.077003 S    
C78   N2    1.365567 A    
C209  H41   1.077003 S    
Zn15  O33   1.946584 S    
N52   O155  1.301431 A    
Zn16  O34   1.946582 S    
C120  N20   1.435774 S    
Zn4   O4    1.957430 S    
C192  C200  1.416524 A    
C113  N21   1.435760 S    
C74   N2    1.365567 A    
N38   O127  1.301198 A    
C49   H25   1.083215 S    
N16   O83   1.301296 A    
C91   N31   1.437726 S    
N35   O122  1.301217 A    
Zn15  O2    1.957432 S    
N40   O132  1.301214 A    
C25   C72   1.401614 A    
Zn16  O5    1.907891 S    
Zn4   O46   1.946584 S    
C134  C150  1.417576 A    
O27   C15   1.273252 A    
C90   C122  1.409485 A    
C99   N39   1.437762 S    
C81   O61   1.348461 S    
C4    C173  1.484287 S    
C164  C207  1.393454 A    
N33   O117  1.301195 A    
Zn6   O19   1.907893 S    
C211  H43   1.076997 S    
N43   O138  1.301140 A    
C14   C64   1.454938 S    
C178  C194  1.416517 A    
Zn8   O13   1.907891 S    
O46   C12   1.273188 A    
C183  C207  1.410216 A    
C7    C170  1.483585 S    
N47   O146  1.301139 A    
O14   C6    1.284208 A    
C102  C118  1.408768 A    
C37   C60   1.401617 A    
C101  N33   1.437769 S    
C85   O65   1.348457 S    
C38   C59   1.401654 A    
C19   C69   1.455157 S    
C82   N6    1.365576 A    
C50   H26   1.083169 S    
O43   C21   1.273248 A    
C177  C193  1.416524 A    
C75   C139  1.412493 A    
N36   O123  1.301197 A    
C190  C198  1.416513 A    
C77   N1    1.365618 A    
N42   O135  1.301430 A    
C84   O64   1.348455 S    
C1    C176  1.484137 S    
C2    C175  1.484035 S    
C103  N35   1.437766 S    
C102  N34   1.437740 S    
C55   C72   1.401609 A    
C43   H19   1.083213 S    
C142  C158  1.414131 A    
C53   C70   1.401618 A    
C131  C200  1.425053 A    
C43   C54   1.386251 A    
C214  H46   1.076994 S    
N10   O71   1.301303 A    
N29   O110  1.301216 A    
C81   C145  1.412486 A    
C164  N52   1.434714 S    
C26   C39   1.386240 A    
C158  C209  1.393461 A    
C83   C147  1.412487 A    
C155  C216  1.393460 A    
C17   C67   1.455135 S    
C95   C111  1.408766 A    
C18   C68   1.454914 S    
C21   C71   1.455136 S    
Zn12  O30   1.946584 S    
C16   C58   1.454916 S    
C40   C57   1.401652 A    
C88   O68   1.348458 S    
O5    C1    1.284313 A    
C32   C65   1.401655 A    
O31   C19   1.273245 A    
C13   C63   1.455157 S    
C89   C121  1.409437 A    
N4    C124  1.442692 S    
C27   C38   1.386251 A    
C150  C166  1.414117 A    
N51   O153  1.301434 A    
C179  C203  1.410220 A    
C114  N22   1.435868 S    
O37   C19   1.273252 A    
N26   O103  1.301195 A    
C95   N27   1.437736 S    
N53   O158  1.301136 A    
C12   C62   1.454916 S    
C208  H40   1.076982 S    
C98   C126  1.409470 A    
O51   C13   1.273246 A    
C28   C69   1.401655 A    
C182  C194  1.416520 A    
C181  C205  1.410208 A    
C133  C145  1.417557 A    
C202  H34   1.076993 S    
N10   O72   1.301130 A    
C135  C147  1.417580 A    
O8    C4    1.284364 A    
N24   O99   1.301294 A    
Zn4   O17   1.907892 S    
C160  N48   1.434723 S    
C36   H12   1.083169 S    
O48   C10   1.273187 A    
C23   C65   1.455157 S    
N46   O144  1.301140 A    
N19   O90   1.301127 A    
N50   O152  1.301140 A    
O16   C8    1.284427 A    
C73   N1    1.365615 A    
C78   C142  1.412499 A    
C179  C184  1.424574 A    
C29   C68   1.401611 A    
C50   C65   1.401659 A    
Zn1   O1    1.957437 S    
C188  C191  1.424571 A    
O52   C14   1.273189 A    
C206  H38   1.076994 S    
N30   O112  1.301217 A    
C44   C53   1.386251 A    
C119  N19   1.435794 S    
C192  C216  1.410203 A    
C130  C197  1.425059 A    
C163  C208  1.393453 A    
C131  C143  1.417587 A    
O45   C11   1.273246 A    
C32   C33   1.386251 A    
N45   O142  1.301138 A    
N14   O80   1.301130 A    
C39   H15   1.083209 S    
C27   C70   1.401615 A    
C178  C202  1.410216 A    
C100  C128  1.409438 A    
C37   H13   1.083210 S    
C136  C152  1.417575 A    
C137  C153  1.414110 A    
N46   O143  1.301432 A    
C130  C138  1.417593 A    
C119  C175  1.416608 A    
C41   H17   1.083212 S    
O42   C24   1.273184 A    
Zn16  O25   1.946612 S    
N6    C126  1.442644 S    
N13   O78   1.301125 A    
C87   C151  1.412482 A    
N28   O108  1.301215 A    
C28   C37   1.386251 A    
Zn4   O37   1.946611 S    
N12   O76   1.301125 A    
C48   C63   1.401657 A    
Zn6   O39   1.946579 S    
O30   C18   1.273191 A    
C165  N53   1.434720 S    
Zn11  O2    1.957429 S    
C55   H31   1.083213 S    
C78   O58   1.348459 S    
C136  C195  1.425053 A    
C120  C176  1.416641 A    
C53   H29   1.083209 S    
C5    C172  1.484335 S    
C6    C171  1.483771 S    
N2    C122  1.442614 S    
C112  N12   1.435745 S    
C190  C214  1.410224 A    
C25   C40   1.386240 A    
N37   O126  1.301215 A    
Zn5   O1    1.957438 S    
N32   O115  1.301203 A    
Zn3   O45   1.946583 S    
C101  C117  1.408754 A    
C30   C35   1.386240 A    
C87   O67   1.348456 S    
N54   O159  1.301429 A    
C28   H4    1.083168 S    
C45   H21   1.083212 S    
Zn12  O21   1.946611 S    
N41   O134  1.301139 A    
N12   O75   1.301297 A    
Zn13  O24   1.946580 S    
O35   C23   1.273246 A    
Zn14  O23   1.946579 S    
Zn15  O6    1.907891 S    
Zn16  O1    1.957431 S    
O26   C14   1.273186 A    
Zn12  O1    1.957430 S    
N56   O164  1.301137 A    
N11   O73   1.301305 A    
O32   C20   1.273189 A    
Zn13  O12   1.907893 S    
C135  C151  1.417581 A    
Zn14  O11   1.907893 S    
N8    C128  1.442626 S    
C168  C203  1.393454 A    
N34   O120  1.301218 A    
C166  N54   1.434710 S    
N9    O70   1.301126 A    
Zn7   O14   1.907891 S    
N18   O87   1.301303 A    
O12   C4    1.284363 A    
C180  C204  1.410215 A    
C100  N40   1.437771 S    
C113  C173  1.416685 A    
C20   C70   1.454936 S    
N15   O82   1.301132 A    
C177  C201  1.410208 A    
N39   O129  1.301196 A    
C84   C148  1.412481 A    
O7    C3    1.284223 A    
C117  N17   1.435760 S    
N22   O95   1.301297 A    
C189  C197  1.416521 A    
C36   C61   1.401654 A    
C48   H24   1.083171 S    
N44   O139  1.301435 A    
C117  C173  1.416685 A    
C161  C206  1.393474 A    
C188  C200  1.416523 A    
O21   C9    1.273251 A    
C109  N9    1.435718 S    
O39   C17   1.273252 A    
Zn11  O22   1.946613 S    
N47   O145  1.301433 A    
N49   O149  1.301436 A    
C26   C71   1.401652 A    
Zn7   O49   1.946584 S    
N36   O124  1.301213 A    
Zn9   O4    1.957437 S    
N48   O148  1.301138 A    
C143  C159  1.414125 A    
Zn10  O3    1.957439 S    
C54   C69   1.401658 A    
O25   C13   1.273251 A    
C30   H6    1.083169 S    
C167  N55   1.434709 S    
Zn9   O8    1.907892 S    
N52   O156  1.301136 A    
C166  C201  1.393467 A    
N26   O104  1.301217 A    
O18   C6    1.284208 A    
C82   C146  1.412492 A    
C97   C125  1.409442 A    
Zn9   O31   1.946609 S    
C118  N18   1.435848 S    
C86   N6    1.365575 A    
Zn10  O32   1.946607 S    
N28   O107  1.301198 A    
O10   C2    1.284286 A    
C95   C123  1.409473 A    
Zn11  O29   1.946583 S    
N16   O84   1.301126 A    
C90   C106  1.408773 A    
C39   C58   1.401611 A    
O6    C2    1.284286 A    
C154  N42   1.434698 S    
C102  C126  1.409470 A    
C35   C62   1.401610 A    
O41   C23   1.273251 A    
C33   C64   1.401613 A    
O28   C16   1.273186 A    
N11   O74   1.301130 A    
N20   O92   1.301128 A    
C185  C190  1.424565 A    
C147  C163  1.414102 A    
N20   O91   1.301295 A    
C186  C198  1.416512 A    
C153  N41   1.434734 S    
C188  C212  1.410204 A    
C47   H23   1.083213 S    
C182  C206  1.410217 A    
C100  C116  1.408744 A    
C151  C167  1.414105 A    
C96   C124  1.409441 A    
C75   O55   1.348460 S    
C116  C176  1.416642 A    
C56   C71   1.401652 A    
C177  C182  1.424570 A    
C210  H42   1.076995 S    
C139  C155  1.414124 A    
C109  C169  1.416755 A    
C134  C146  1.417578 A    
C25   H1    1.083209 S    
C29   C36   1.386241 A    
O49   C15   1.273247 A    
C205  H37   1.076997 S    
C27   H3    1.083210 S    
C31   C34   1.386251 A    
O13   C5    1.284370 A    
C153  C214  1.393497 A    
N42   O136  1.301138 A    
C22   C72   1.454914 S    
N27   O105  1.301198 A    
N17   O86   1.301126 A    
C158  N46   1.434695 S    
C51   C68   1.401612 A    
C107  N15   1.435873 S    
N23   O97   1.301296 A    
C52   C67   1.401654 A    
N5    C125  1.442686 S    
C104  C128  1.409438 A    
C186  C189  1.424571 A    
C79   C143  1.412491 A    
Zn8   O50   1.946582 S    
C44   C59   1.401657 A    
Zn2   O2    1.957439 S    
C82   O62   1.348457 S    
C115  N23   1.435799 S    
C133  C194  1.425041 A    
C93   N25   1.437776 S    
N29   O109  1.301197 A    
C135  C196  1.425059 A    
C161  N49   1.434718 S    
N21   O94   1.301126 A    
C178  C181  1.424571 A    
O19   C7    1.284155 A    
Zn8   O4    1.957431 S    
C144  C160  1.414113 A    
C91   C107  1.408766 A    
C94   C122  1.409484 A    
C94   N26   1.437722 S    
C180  C196  1.416531 A    
N25   O102  1.301215 A    
C103  C119  1.408747 A    
Zn8   O41   1.946612 S    
C76   O56   1.348460 S    
C90   N30   1.437718 S    
C106  N14   1.435907 S    
C83   N7    1.365565 A    
C138  C154  1.414132 A    
C48   C49   1.386251 A    
N38   O128  1.301217 A    
C73   O53   1.348461 S    
C47   C64   1.401615 A    
C42   H18   1.083167 S    
C35   H11   1.083211 S    
C111  N11   1.435859 S    
O20   C8    1.284426 A    
C191  C199  1.416517 A    
C45   C62   1.401614 A    
O15   C7    1.284157 A    
C110  N10   1.435901 S    
C15   C57   1.455135 S    
O24   C12   1.273185 A    
C136  C148  1.417577 A    
C185  C197  1.416524 A    
N53   O157  1.301436 A    
Zn7   O42   1.946611 S    
C73   C137  1.412485 A    
C30   C67   1.401650 A    
C98   N38   1.437721 S    
C207  H39   1.076983 S    
C31   C66   1.401615 A    
Zn6   O52   1.946609 S    
N40   O131  1.301197 A    
C215  H47   1.076993 S    
C187  C192  1.424571 A    
C54   H30   1.083169 S    
C41   C58   1.401612 A    
Zn1   O47   1.946609 S    
C76   C140  1.412487 A    
C146  C162  1.414119 A    
N24   O100  1.301126 A    
C26   H2    1.083171 S    
C51   H27   1.083212 S    
Zn6   O2    1.957437 S    
C52   H28   1.083170 S    
C181  C193  1.416525 A    
C157  C210  1.393491 A    
C154  C213  1.393455 A    
C46   H22   1.083170 S    
C159  C212  1.393461 A    
N31   O113  1.301199 A    
C40   H16   1.083170 S    
C88   C152  1.412482 A    
Zn11  O10   1.907892 S    
C129  C141  1.417540 A    
C97   N37   1.437768 S    
C98   C114  1.408773 A    
Zn1   O16   1.907892 S    
C83   O63   1.348456 S    
Zn2   O15   1.907892 S    
O29   C17   1.273245 A    
C34   H10   1.083170 S    
C107  C171  1.416530 A    
C85   C149  1.412493 A    
C108  C172  1.416705 A    
C187  C211  1.410219 A    
C84   N8    1.365571 A    
N45   O141  1.301437 A    
C145  C161  1.414113 A    
C216  H48   1.076998 S    
N55   O162  1.301138 A    
C93   C121  1.409437 A    
C105  C169  1.416756 A    
O23   C11   1.273250 A    
C203  H35   1.076987 S    
C114  C174  1.416545 A    
C89   C105  1.408754 A    
C96   N28   1.437772 S    
C38   H14   1.083170 S    
C116  N24   1.435777 S    
C56   H32   1.083170 S    
C201  H33   1.076996 S    
N13   O77   1.301292 A    
O47   C9    1.273246 A    
C10   C60   1.454936 S    
C118  C174  1.416539 A    
Zn9   O28   1.946579 S    
C101  C125  1.409442 A    
N51   O154  1.301135 A    
Zn10  O27   1.946581 S    
C96   C112  1.408755 A    
C46   C51   1.386240 A    
C131  C139  1.417587 A    
C184  C208  1.410215 A    
C41   C56   1.386240 A    
Zn10  O7    1.907892 S    
C148  C164  1.414104 A    
C89   N29   1.437777 S    
C133  C149  1.417558 A    
C31   H7    1.083210 S    
Zn12  O9    1.907892 S    
C168  N56   1.434710 S    
C44   H20   1.083170 S    
C3    C174  1.483819 S    
C29   H5    1.083213 S    
C106  C170  1.416466 A    
N37   O125  1.301199 A    
N32   O116  1.301213 A    
C129  C198  1.425023 A    
C155  N43   1.434707 S    
C156  N44   1.434722 S    
C140  C156  1.414114 A    
N54   O160  1.301138 A    
C189  C213  1.410194 A    
N41   O133  1.301435 A    
C111  C171  1.416526 A    
O36   C24   1.273190 A    
O50   C16   1.273188 A    
N35   O121  1.301195 A    
C152  C168  1.414100 A    
C24   C66   1.454938 S    
C92   C108  1.408756 A    
N7    C127  1.442614 S    
C80   N4    1.365603 A    
N18   O88   1.301129 A    
C186  C210  1.410226 A    
