data_mof_unit_20072.cif
_audit_creation_date              2012-12-10T17:29:18-0500
_audit_creation_method            fapswitch 2.2
_symmetry_space_group_name_H-M    P1
_symmetry_Int_Tables_number       1
_space_group_crystal_system       triclinic
_cell_length_a                    12.040785
_cell_length_b                    12.859877
_cell_length_c                    13.032389
_cell_angle_alpha                 87.918882
_cell_angle_beta                  113.099188
_cell_angle_gamma                 93.443303
_cell_volume                      1852.65782965

loop_
_atom_site_label
_atom_site_type_symbol
_atom_type_description
_atom_site_fract_x
_atom_site_fract_y
_atom_site_fract_z
_atom_type_partial_charge
C1    C     C_R   0.477952 0.299599 0.499771 0.841956
C2    C     C_R   0.556832 0.462562 0.990736 0.033664
C3    C     C_R   0.528602 0.441203 0.878201 0.041686
C4    C     C_R   0.460981 0.455430 0.027470 0.039895
C5    C     C_R   0.354850 0.394179 0.967615 0.031896
C6    C     C_R   0.337971 0.354402 0.864229 -0.196914
C7    C     C_R   0.422343 0.380447 0.818136 -0.164549
C8    C     C_R   0.463824 0.512743 0.117802 0.414500
C9    C     C_R   0.293998 0.403703 0.122455 0.421460
C10   C     C_R   0.607603 0.481460 0.829373 -0.194132
C11   C     C_R   0.536257 0.811748 0.502449 -0.048715
C12   C     C_R   0.565747 0.492280 0.708634 0.898786
C13   C     C_R   0.465618 0.188220 0.501652 -0.055618
C14   C     C_R   0.371106 0.029444 0.538344 -0.224820
C15   C     C_R   0.375580 0.137084 0.530098 -0.227440
C16   C     C_R   0.549485 0.132836 0.479186 -0.285291
C17   C     C_R   0.546286 0.026041 0.487876 0.179456
C18   C     C_R   0.456536 0.973970 0.517883 0.193123
C19   C     C_R   0.452931 0.867070 0.525865 -0.281796
C20   C     C_R   0.626547 0.863026 0.474444 -0.214060
C21   C     C_R   0.631523 0.970659 0.467090 -0.224653
C22   C     C_R   0.015351 0.609533 0.410010 -0.329018
C23   C     C_R   0.522771 0.700392 0.502060 0.878033
C24   C     C_R   0.133676 0.597561 0.416922 0.043072
C25   C     C_R   0.154453 0.451220 0.537436 -0.042858
C26   C     C_R   0.035494 0.460196 0.532852 0.100811
C27   C     C_R   0.965126 0.540640 0.468382 0.061281
C28   C     C_R   0.845909 0.549343 0.463368 -0.019418
C29   C     C_R   0.866400 0.402488 0.583169 0.030062
C30   C     C_R   0.985150 0.391077 0.590907 -0.328593
C31   C     C_R   0.433180 0.500267 0.291374 0.942200
C32   C     C_R   0.269444 0.371579 0.014111 -0.317247
C33   C     C_R   0.389805 0.477984 0.173058 -0.296743
C34   C     C_R   0.724180 0.519245 0.896889 -0.308804
C35   C     C_R   0.763732 0.513578 0.013197 0.457566
C36   C     C_R   0.679799 0.486527 0.061395 -0.067488
H1    H     H_    0.690899 0.820059 0.455780 0.156336
H2    H     H_    0.301811 0.989804 0.561024 0.139368
H3    H     H_    0.700636 0.010346 0.444177 0.144088
H4    H     H_    0.310663 0.180172 0.547785 0.152508
H5    H     H_    0.618034 0.172772 0.455491 0.171989
H6    H     H_    0.790699 0.610574 0.413349 0.130172
H7    H     H_    0.828554 0.348525 0.627905 0.128090
H8    H     H_    0.963510 0.672099 0.359148 0.151858
H9    H     H_    0.036946 0.328443 0.641676 0.134313
H10   H     H_    0.171303 0.651205 0.371745 0.132920
H11   H     H_    0.258169 0.306142 0.817696 0.130847
H12   H     H_    0.209234 0.389616 0.586862 0.112365
H13   H     H_    0.189796 0.321867 0.970922 0.157260
H14   H     H_    0.785438 0.550198 0.859484 0.171790
H15   H     H_    0.405817 0.349605 0.737052 0.148826
H16   H     H_    0.384009 0.826964 0.548924 0.159435
N1    N     N_R   0.798200 0.480260 0.519790 -0.090279
N2    N     N_R   0.201820 0.519740 0.480210 -0.098632
O1    O     O_R   0.579910 0.341070 0.505280 -0.618333
O2    O     O_R   0.388440 0.353740 0.492580 -0.640946
O3    O     O_R   0.643280 0.490550 0.663120 -0.620611
O4    O     O_R   0.451810 0.503220 0.650420 -0.611713
O5    O     O_R   0.611560 0.646260 0.507420 -0.627846
O6    O     O_R   0.420090 0.658930 0.494720 -0.630050
O7    O     O_R   0.548190 0.496780 0.349580 -0.547059
O8    O     O_R   0.356720 0.509450 0.336880 -0.600073
Zn1   Zn    Zn3+2 0.627850 0.491540 0.508480 0.968536
Zn2   Zn    Zn3+2 0.372150 0.508460 0.491520 0.940787
O9    O     O_3   0.225909 0.360687 0.178749 -0.666375
C37   C     C_3   0.275575 0.266749 0.232958 0.125073
H17   H     H_    0.251261 0.256540 0.306610 0.178901
H18   H     H_    0.376331 0.269002 0.264799 0.124981
C38   C     C_3   0.221518 0.172071 0.157795 -0.408770
H19   H     H_    0.121412 0.173537 0.121149 0.238058
H20   H     H_    0.254096 0.173908 0.089051 0.224157
C39   C     C_3   0.258042 0.070179 0.223065 -0.922712
H21   H     H_    0.357934 0.066043 0.258960 0.274985
H22   H     H_    0.218277 0.003350 0.166377 0.261172
H23   H     H_    0.224368 0.063885 0.291211 0.270691
O10   O     O_3   0.546751 0.596081 0.158661 -0.651963
C40   C     C_3   0.487472 0.690801 0.127009 0.046416
H24   H     H_    0.541742 0.750141 0.189136 0.171027
H25   H     H_    0.395431 0.686557 0.128948 0.118197
C41   C     C_3   0.481411 0.726965 0.011607 -0.350477
H26   H     H_    0.573769 0.730350 0.011321 0.234462
H27   H     H_    0.423758 0.670432 0.947643 0.217210
C42   C     C_3   0.428981 0.834215 0.980757 -0.941540
H28   H     H_    0.335899 0.832099 0.979039 0.262818
H29   H     H_    0.425335 0.857951 0.896757 0.265824
H30   H     H_    0.486551 0.892898 0.042019 0.265869
C43   C     C_2   0.728141 0.466620 0.183843 0.485694
H31   H     H_    0.809562 0.508703 0.237753 0.098016
O11   O     O_2   0.681576 0.399195 0.224655 -0.584236
O12   O     O_3   0.883657 0.536008 0.081905 -0.683468
C44   C     C_3   0.960345 0.465630 0.064074 0.115614
H32   H     H_    0.054088 0.489574 0.120206 0.189864
H33   H     H_    0.959376 0.474491 0.978491 0.141970
C45   C     C_3   0.935057 0.350966 0.093136 -0.347678
H34   H     H_    0.017284 0.319921 0.158337 0.237856
H35   H     H_    0.865773 0.344309 0.129378 0.222510
C46   C     C_3   0.894093 0.281226 0.991225 -0.927242
H36   H     H_    0.808372 0.307715 0.926360 0.273624
H37   H     H_    0.878659 0.199809 0.015852 0.258382
H38   H     H_    0.964555 0.282732 0.956004 0.253854

loop_
_geom_bond_atom_site_label_1
_geom_bond_atom_site_label_2
_ccdc_geom_bond_type
C37   H18   S    
C43   H31   S    
C14   C18   A    
C30   H9    S    
C35   C36   A    
C4    C8    A    
C46   H36   S    
C40   H24   S    
C23   O5    A    
C11   C19   A    
C26   C27   A    
C29   N1    A    
C1    O2    A    
C18   C19   A    
C3    C7    A    
C39   H23   S    
C5    C6    A    
C37   C38   S    
C14   H2    S    
C24   N2    A    
C8    O10   S    
C38   H20   S    
C34   C35   A    
C11   C23   S    
O7    Zn1   S    
C31   O7    A    
O8    Zn2   S    
C9    C32   A    
C19   H16   S    
C22   H8    S    
C16   C17   A    
O1    Zn1   S    
O2    Zn2   S    
C5    C32   A    
C12   O4    A    
C37   H17   S    
C29   H7    S    
C9    C33   A    
C31   O8    A    
C45   H34   S    
C41   C42   S    
C46   H37   S    
O3    Zn1   S    
C40   H25   S    
C36   C43   S    
O4    Zn2   S    
C23   O6    A    
C15   H4    S    
C11   C20   A    
C34   H14   S    
C6    H11   S    
C25   N2    A    
C39   H22   S    
C44   H32   S    
C39   H21   S    
C45   C46   S    
C25   C26   A    
C17   C21   A    
C38   C39   S    
C2    C4    A    
C29   C30   A    
C44   H33   S    
C42   H28   S    
C21   H3    S    
C31   C33   S    
C17   C18   A    
C10   C34   A    
O10   C40   S    
C45   H35   S    
C25   H12   S    
C10   C12   S    
C12   O3    A    
C41   H27   S    
C42   H29   S    
C26   C30   A    
C22   C27   A    
C13   C15   A    
C22   C24   A    
C1    C13   S    
C46   H38   S    
C40   C41   S    
C2    C36   A    
C41   H26   S    
C28   N1    A    
C6    C7    A    
O5    Zn1   S    
O6    Zn2   S    
C24   H10   S    
C43   O11   D    
C2    C3    A    
C1    O1    A    
C7    H15   S    
C3    C10   A    
C44   C45   S    
C20   H1    S    
N1    Zn1   S    
O12   C44   S    
N2    Zn2   S    
C28   H6    S    
C8    C33   A    
C38   H19   S    
C9    O9    S    
C32   H13   S    
C35   O12   S    
C4    C5    A    
C42   H30   S    
C20   C21   A    
O9    C37   S    
C13   C16   A    
C27   C28   A    
C14   C15   A    
C16   H5    S    
