data_mof_unit_33874.cif
_audit_creation_date              2012-10-26T18:59:41-0400
_audit_creation_method            fapswitch 2.2
_symmetry_space_group_name_H-M    P1
_symmetry_Int_Tables_number       1
_space_group_crystal_system       triclinic
_cell_length_a                    23.511546
_cell_length_b                    10.806489
_cell_length_c                    9.56508
_cell_angle_alpha                 90.326838
_cell_angle_beta                  89.754445
_cell_angle_gamma                 90.542753
_cell_volume                      2430.09901033

loop_
_atom_site_label
_atom_site_type_symbol
_atom_type_description
_atom_site_fract_x
_atom_site_fract_y
_atom_site_fract_z
_atom_type_partial_charge
C1    C     C_R   0.501043 0.262389 0.499731 0.556443
C2    C     C_R   0.118847 0.604722 0.473377 0.403479
C3    C     C_R   0.236647 0.499705 0.381563 -0.035214
C4    C     C_R   0.390830 0.499969 0.500131 0.567453
C5    C     C_R   0.296185 0.501130 0.375333 0.256464
C6    C     C_R   0.327906 0.501109 0.501026 0.010889
C7    C     C_R   0.298768 0.503465 0.629911 -0.193188
C8    C     C_R   0.239548 0.504154 0.634400 -0.073387
C9    C     C_R   0.208376 0.502123 0.510374 0.196242
C10   C     C_R   0.760169 0.411679 0.423148 -0.046506
C11   C     C_R   0.700878 0.412933 0.420019 -0.116482
C12   C     C_R   0.969868 0.282005 0.596231 0.268844
C13   C     C_R   0.670908 0.497968 0.502390 0.012962
C14   C     C_R   0.700548 0.578623 0.592012 -0.140233
C15   C     C_R   0.759780 0.576720 0.596083 -0.046640
C16   C     C_R   0.501182 0.737621 0.500172 0.540806
C17   C     C_R   0.789928 0.493961 0.510794 0.229133
C18   C     C_R   0.506920 0.064440 0.625257 0.025585
C19   C     C_R   0.506840 0.129371 0.499470 0.016483
C20   C     C_R   0.515196 0.064065 0.373681 -0.144331
C21   C     C_R   0.515306 0.935101 0.373963 -0.154127
C22   C     C_R   0.507080 0.870827 0.500073 0.009615
C23   C     C_R   0.029469 0.286500 0.599468 -0.104974
C24   C     C_R   0.507041 0.937158 0.625562 0.017211
C25   C     C_3   0.467012 0.930280 0.747043 -0.261781
C26   C     C_3   0.466936 0.070790 0.746881 -0.264754
C27   C     C_R   0.523820 0.596092 0.072743 0.128276
C28   C     C_R   0.608787 0.499391 0.500125 0.544373
C29   C     C_R   0.469694 0.413770 0.072953 0.076701
C30   C     C_R   0.470824 0.412652 0.924340 -0.017353
C31   C     C_R   0.521246 0.599171 0.926234 0.131588
C32   C     C_3   0.578800 0.656090 0.912767 -0.267264
C33   C     C_3   0.583874 0.644966 0.071029 -0.144207
C34   C     C_R   0.059418 0.392955 0.557905 -0.018246
C35   C     C_R   0.879900 0.598243 0.470297 0.402728
C36   C     C_R   0.879077 0.390732 0.555544 0.414858
C37   C     C_R   0.939090 0.388186 0.556095 0.032706
C38   C     C_R   0.969208 0.495710 0.514254 -0.071241
C39   C     C_R   0.939436 0.601539 0.471453 0.037484
C40   C     C_3   0.945138 0.085706 0.533692 -0.072953
C41   C     C_1   0.434818 0.322554 0.141987 0.262308
C42   C     C_1   0.626950 0.552470 0.105721 0.249349
C43   C     C_3   0.322631 0.610226 0.183241 -0.098533
C44   C     C_R   0.029284 0.497812 0.514900 -0.041849
C45   C     C_R   0.059195 0.605100 0.472751 0.042909
C46   C     C_R   0.028948 0.709811 0.430850 -0.121935
C47   C     C_R   0.969709 0.708043 0.430176 -0.122656
C48   C     C_R   0.119116 0.396947 0.557216 0.410221
Cu1   Cu    Cu3+1 0.500000 0.499980 0.640670 0.938183
Cu2   Cu    Cu3+1 0.500000 0.500020 0.359330 0.989216
H1    H     H_    0.678365 0.346655 0.354834 0.144592
H2    H     H_    0.052112 0.205606 0.634515 0.176409
H3    H     H_    0.447968 0.341368 0.867093 0.115725
H4    H     H_    0.608649 0.597919 0.851202 0.164889
H5    H     H_    0.576589 0.753605 0.877014 0.111468
H6    H     H_    0.589210 0.735051 0.126232 0.103898
H7    H     H_    0.050912 0.793436 0.398291 0.164056
H8    H     H_    0.947745 0.790484 0.397158 0.152913
H9    H     H_    0.212242 0.495882 0.285817 0.137109
H10   H     H_    0.321705 0.504525 0.727872 0.142230
H11   H     H_    0.217798 0.506025 0.734405 0.146038
H12   H     H_    0.677882 0.643939 0.657432 0.113391
H13   H     H_    0.783027 0.346864 0.357539 0.142641
H14   H     H_    0.926957 0.120313 0.434079 0.133149
H15   H     H_    0.919530 0.003837 0.565778 0.169853
H16   H     H_    0.989570 0.054268 0.516895 0.099320
H17   H     H_    0.343638 0.681413 0.250625 0.127007
H18   H     H_    0.278661 0.638897 0.156893 0.122103
H19   H     H_    0.347198 0.604861 0.084114 0.137086
H20   H     H_    0.782330 0.639834 0.665057 0.144058
H21   H     H_    0.518871 0.111785 0.274737 0.142355
H22   H     H_    0.518992 0.886418 0.275087 0.130202
H23   H     H_    0.425197 0.888241 0.719038 0.147020
H24   H     H_    0.487386 0.890896 0.841305 0.134229
H25   H     H_    0.425057 0.110593 0.719015 0.146429
H26   H     H_    0.487383 0.112185 0.840956 0.137036
N1    N     N_R   0.851033 0.494273 0.512383 -0.408841
N2    N     N_R   0.147433 0.501521 0.514738 -0.393317
N3    N     N_R   0.500360 0.500930 0.147930 -0.246046
N4    N     N_R   0.500360 0.500890 0.852020 -0.235777
N5    N     N_1   0.406403 0.248962 0.196283 -0.271235
N6    N     N_1   0.661253 0.479619 0.129171 -0.296999
O1    O     O_R   0.500000 0.319640 0.618810 -0.505343
O2    O     O_R   0.582120 0.500020 0.618760 -0.504722
O3    O     O_R   0.582120 0.500060 0.381180 -0.487660
O4    O     O_2   0.850969 0.697905 0.426172 -0.497036
O5    O     O_3   0.942072 0.175809 0.640739 -0.507688
O6    O     O_3   0.322878 0.492732 0.246584 -0.541942
O7    O     O_2   0.848763 0.291446 0.598933 -0.434621
O8    O     O_2   0.148678 0.296741 0.596944 -0.485245
O9    O     O_2   0.148122 0.706660 0.433421 -0.499142
O10   O     O_R   0.500010 0.319680 0.381230 -0.502279
O11   O     O_R   0.417880 0.499940 0.618820 -0.519096
O12   O     O_R   0.417880 0.499980 0.381240 -0.443735
O13   O     O_R   0.499990 0.680320 0.618770 -0.501774
O14   O     O_R   0.500000 0.680360 0.381190 -0.517362

loop_
_geom_bond_atom_site_label_1
_geom_bond_atom_site_label_2
_ccdc_geom_bond_type
C36   O7    S    
C8    C9    A    
C28   O2    A    
C19   C20   A    
C18   C26   S    
Cu2   N3    S    
C7    C8    A    
C45   C46   A    
C27   C33   S    
C12   C23   A    
C29   C30   A    
C3    C9    A    
C43   O6    S    
Cu1   O2    S    
C36   C37   A    
C18   C19   A    
C27   N3    A    
C36   N1    A    
C38   C39   A    
C35   O4    S    
C10   C17   A    
C14   H12   S    
C25   H24   S    
C48   N2    A    
C12   C37   A    
Cu2   O3    S    
C5    O6    S    
C10   H13   S    
C43   H18   S    
C42   N6    T    
C26   H26   S    
C13   C28   S    
C32   H5    S    
C25   H23   S    
C8    H11   S    
C30   N4    A    
C33   H6    S    
C43   H19   S    
C48   O8    S    
C21   C22   A    
C32   H4    S    
C2    C45   A    
C30   H3    S    
C16   O14   A    
C1    C19   S    
C21   H22   S    
C27   C31   A    
C31   N4    A    
C34   C44   A    
C24   C25   S    
C4    C6    S    
Cu2   O12   S    
C25   C26   S    
C35   N1    A    
C35   C39   A    
C38   C44   A    
C37   C38   A    
C2    N2    A    
C31   C32   S    
C29   N3    A    
C23   C34   A    
C41   N5    T    
C17   N1    S    
C26   H25   S    
C20   H21   S    
Cu1   O13   S    
C4    O12   A    
Cu2   O10   S    
C1    O10   A    
C40   H15   S    
C46   H7    S    
C18   C24   A    
C34   C48   A    
C33   C42   S    
C7    H10   S    
C44   C45   A    
C40   O5    S    
C39   C47   A    
C15   C17   A    
C15   H20   S    
C46   C47   A    
C16   O13   A    
C16   C22   S    
C12   O5    S    
C29   C41   S    
C3    C5    A    
C6    C7    A    
C1    O1    A    
C40   H14   S    
Cu1   N4    S    
C32   C33   S    
Cu1   O1    S    
C47   H8    S    
C11   C13   A    
Cu2   O14   S    
C23   H2    S    
C5    C6    A    
C22   C24   A    
C9    N2    S    
C2    O9    S    
C11   H1    S    
C10   C11   A    
C4    O11   A    
C20   C21   A    
C43   H17   S    
Cu1   Cu2   S    
C28   O3    A    
C14   C15   A    
C40   H16   S    
Cu1   O11   S    
C13   C14   A    
C3    H9    S    
