data_mof_unit_9306.cif
_audit_creation_date              2012-12-10T18:49:20-0500
_audit_creation_method            fapswitch 2.2
_symmetry_space_group_name_H-M    P1
_symmetry_Int_Tables_number       1
_space_group_crystal_system       triclinic
_cell_length_a                    9.968307
_cell_length_b                    10.631515
_cell_length_c                    13.605385
_cell_angle_alpha                 91.953147
_cell_angle_beta                  82.498929
_cell_angle_gamma                 89.567198
_cell_volume                      1428.59999025

loop_
_atom_site_label
_atom_site_type_symbol
_atom_type_description
_atom_site_fract_x
_atom_site_fract_y
_atom_site_fract_z
_atom_type_partial_charge
C1    C     C_R   0.499696 0.738986 0.499760 0.910121
C2    C     C_R   0.500334 0.260865 0.500005 0.905394
C3    C     C_R   0.500932 0.128164 0.499916 -0.091569
C4    C     C_R   0.498946 0.871614 0.500150 -0.097137
C5    C     C_R   0.475220 0.501376 0.685631 0.860873
C6    C     C_R   0.524780 0.500096 0.314405 0.869649
C7    C     C_R   0.941271 0.418879 0.437781 0.067168
C8    C     C_R   0.058731 0.581131 0.562212 0.068361
C9    C     C_R   0.084357 0.419043 0.438579 0.416359
C10   C     C_R   0.915644 0.580967 0.561413 0.416027
C11   C     C_1   0.544052 0.500313 0.210296 -0.150273
C12   C     C_1   0.455954 0.502650 0.789793 -0.148450
C13   C     C_2   0.558582 0.501187 0.018229 -0.151902
C14   C     C_2   0.441447 0.504120 0.981920 -0.152221
C15   C     C_1   0.444365 0.503553 0.877850 0.022931
C16   C     C_1   0.555651 0.500656 0.122271 0.021550
C17   C     C_R   0.473047 0.938464 0.591768 0.146548
C18   C     C_R   0.526725 0.061040 0.408025 0.155711
C19   C     C_R   0.473716 0.069416 0.591675 0.132296
C20   C     C_R   0.525727 0.929750 0.408363 0.138098
H1    H     H_    0.344873 0.506390 0.029514 0.170153
H2    H     H_    0.655153 0.498753 0.970630 0.170434
N1    N     N_R   0.142790 0.500030 0.500020 -0.139945
N2    N     N_R   0.857210 0.499970 0.499980 -0.140136
O1    O     O_R   0.385380 0.683250 0.500010 -0.635836
O2    O     O_R   0.614620 0.316750 0.499990 -0.632862
O3    O     O_R   0.614710 0.683220 0.500000 -0.555132
O4    O     O_R   0.385290 0.316780 0.500000 -0.550706
O5    O     O_R   0.368830 0.499990 0.640350 -0.636951
O6    O     O_R   0.631170 0.500010 0.359650 -0.638508
O7    O     O_R   0.598160 0.499960 0.640350 -0.546455
O8    O     O_R   0.401840 0.500040 0.359650 -0.549873
Zn1   Zn    Zn3+2 0.346870 0.500020 0.500000 0.993998
Zn2   Zn    Zn3+2 0.653130 0.499980 0.500000 0.993317
C21   C     C_3   0.886570 0.327429 0.366369 -0.715963
H3    H     H_    0.909657 0.229551 0.385410 0.243132
H4    H     H_    0.777834 0.334562 0.365616 0.269843
H5    H     H_    0.934070 0.344322 0.289571 0.233515
C22   C     C_3   0.113437 0.672600 0.633609 -0.717385
H6    H     H_    0.090377 0.770473 0.614540 0.242194
H7    H     H_    0.065918 0.655746 0.710409 0.233974
H8    H     H_    0.222168 0.665449 0.634380 0.270021
Cl1   Cl    Cl    0.188209 0.313025 0.359221 -0.600282
Cl2   Cl    Cl    0.811795 0.687006 0.640755 -0.602130
C23   C     C_3   0.445322 0.872023 0.689707 -0.823469
H9    H     H_    0.522135 0.899095 0.738431 0.262405
H10   H     H_    0.342955 0.898413 0.727342 0.231285
H11   H     H_    0.448829 0.768175 0.682052 0.220442
C24   C     C_3   0.554099 0.127930 0.310418 -0.832090
H12   H     H_    0.476233 0.101736 0.262263 0.264251
H13   H     H_    0.551478 0.231781 0.318221 0.220894
H14   H     H_    0.656268 0.101121 0.272509 0.232667
C25   C     C_3   0.445759 0.144224 0.689740 -0.842821
H15   H     H_    0.447718 0.247150 0.682131 0.218773
H16   H     H_    0.343862 0.121532 0.727674 0.245094
H17   H     H_    0.523209 0.121003 0.738138 0.245134
C26   C     C_3   0.551900 0.848984 0.312933 -0.866134
H18   H     H_    0.462766 0.789018 0.305615 0.234126
H19   H     H_    0.571163 0.902411 0.244336 0.249393
H20   H     H_    0.641891 0.787506 0.315235 0.242103

loop_
_geom_bond_atom_site_label_1
_geom_bond_atom_site_label_2
_ccdc_geom_bond_type
C13   H2    S    
C23   H9    S    
C6    O8    A    
C3    C19   A    
C8    C22   S    
C11   C16   T    
C18   C20   A    
C21   H3    S    
C12   C15   T    
C24   H14   S    
C10   N2    A    
O8    Zn1   S    
C19   C25   S    
C25   H16   S    
C2    C3    S    
O7    Zn2   S    
C2    O2    A    
C25   H15   S    
C25   H17   S    
C1    O1    A    
C26   H18   S    
C5    O7    A    
C8    N1    A    
C4    C17   A    
C14   H1    S    
C8    C10   A    
C17   C19   A    
C17   C23   S    
O4    Zn1   S    
C22   H8    S    
C5    O5    A    
C23   H10   S    
O3    Zn2   S    
C26   H19   S    
C1    C4    S    
C9    Cl1   S    
C5    C12   S    
O6    Zn2   S    
C10   Cl2   S    
C7    N2    A    
C4    C20   A    
O5    Zn1   S    
C22   H6    S    
C21   H5    S    
C21   H4    S    
C3    C18   A    
C22   H7    S    
C24   H12   S    
C13   C16   S    
C6    C11   S    
C1    O3    A    
C7    C9    A    
C14   C15   S    
C9    N1    A    
C26   H20   S    
C2    O4    A    
C23   H11   S    
C6    O6    A    
C20   C26   S    
C13   C14   D    
C7    C21   S    
O2    Zn2   S    
N2    Zn2   S    
N1    Zn1   S    
C18   C24   S    
O1    Zn1   S    
C24   H13   S    
