data_mof_unit_51536.cif
_audit_creation_date              2012-12-11T18:11:09-0500
_audit_creation_method            fapswitch 2.2
_symmetry_space_group_name_H-M    P1
_symmetry_Int_Tables_number       1
_space_group_crystal_system       triclinic
_cell_length_a                    8.200266
_cell_length_b                    12.755453
_cell_length_c                    18.681561
_cell_angle_alpha                 99.673873
_cell_angle_beta                  90.758335
_cell_angle_gamma                 98.785622
_cell_volume                      1902.14994542

loop_
_atom_site_label
_atom_site_type_symbol
_atom_type_description
_atom_site_fract_x
_atom_site_fract_y
_atom_site_fract_z
_atom_type_partial_charge
Ba1   Ba    Ba6+2 0.852780 0.548340 0.465070 1.648346
Ba2   Ba    Ba6+2 0.337060 0.451750 0.534940 1.669784
C1    C     C_3   0.657733 0.926271 0.277797 -0.107849
C2    C     C_3   0.651227 0.820011 0.306367 0.318991
C3    C     C_3   0.476162 0.263365 0.310588 0.320452
C4    C     C_3   0.496744 0.223981 0.229891 -0.140638
C5    C     C_3   0.062576 0.248846 0.738502 0.339772
C6    C     C_3   0.111856 0.243095 0.816640 -0.269662
C7    C     C_3   0.535530 0.183461 0.703623 0.315762
C8    C     C_3   0.511497 0.081539 0.737338 0.384955
C9    C     C_R   0.986819 0.455235 0.050029 0.013024
C10   C     C_R   0.894975 0.394853 0.096961 -0.070423
C11   C     C_R   0.755447 0.428074 0.957977 -0.054153
C12   C     C_3   0.126961 0.760396 0.265474 0.336309
C13   C     C_R   0.922986 0.463579 0.980060 0.010264
C14   C     C_R   0.698407 0.428783 0.887524 0.036844
C15   C     C_R   0.806535 0.462507 0.835410 0.015592
C16   C     C_R   0.970247 0.509977 0.858062 0.001247
C17   C     C_R   0.028079 0.512109 0.930976 0.022655
C18   C     C_R   0.755853 0.451490 0.761521 0.036195
C19   C     C_R   0.867254 0.486951 0.711482 -0.319161
C20   C     C_R   0.023910 0.543341 0.733553 0.017723
C21   C     C_R   0.075332 0.556863 0.808195 -0.058345
C22   C     C_R   0.150667 0.504084 0.072721 0.029739
C23   C     C_3   0.098976 0.782617 0.189068 -0.362230
C24   C     C_R   0.211996 0.500850 0.144332 -0.002727
C25   C     C_R   0.110070 0.448562 0.192980 -0.049167
C26   C     C_R   0.956297 0.390400 0.166136 -0.016656
C27   C     C_R   0.225814 0.618616 0.835348 0.022645
C28   C     C_R   0.281722 0.622241 0.906597 -0.054682
C29   C     C_R   0.190329 0.562973 0.954131 -0.010289
C30   C     C_R   0.253591 0.556580 0.024537 0.021233
C31   C     C_R   0.419420 0.597058 0.047422 -0.112842
C32   C     C_R   0.375823 0.549198 0.167022 -0.025247
C33   C     C_R   0.478615 0.593547 0.116860 -0.095615
C34   C     C_3   0.232942 0.789663 0.620340 0.286401
C35   C     C_R   0.432269 0.551240 0.239162 0.027650
C36   C     C_R   0.325719 0.507647 0.288025 -0.274374
C37   C     C_R   0.166667 0.454993 0.266365 0.034960
C38   C     C_R   0.763886 0.183246 0.532105 -0.287153
C39   C     C_R   0.429676 0.808589 0.471169 -0.291953
C40   C     C_R   0.401603 0.985127 0.448369 -0.101843
C41   C     C_R   0.338397 0.876598 0.442855 -0.010982
C42   C     C_R   0.578308 0.849311 0.510643 0.053325
C43   C     C_R   0.641795 0.961611 0.519461 -0.066309
C44   C     C_R   0.552778 0.029524 0.486331 -0.061706
C45   C     C_3   0.169385 0.895989 0.626917 -0.328189
C46   C     C_R   0.616212 0.140439 0.492792 0.048070
C47   C     C_R   0.855409 0.117707 0.562928 -0.011518
C48   C     C_R   0.792219 0.008132 0.558590 -0.073397
C49   C     C_3   0.969132 0.209545 0.380587 0.271551
C50   C     C_3   0.029852 0.101822 0.370579 -0.331227
C51   C     C_3   0.763307 0.715565 0.681264 0.304295
C52   C     C_3   0.836187 0.769392 0.756586 0.375105
H1    H     H_    0.738082 0.833662 0.354352 0.078490
H2    H     H_    0.234766 0.954309 0.672048 0.107096
H3    H     H_    0.186621 0.928714 0.575881 0.099778
H4    H     H_    0.037298 0.883890 0.639394 0.120302
H5    H     H_    0.834732 0.196232 0.387433 -0.005459
H6    H     H_    0.031367 0.258817 0.430849 0.075425
H7    H     H_    0.961952 0.045945 0.324607 0.114305
H8    H     H_    0.012388 0.066852 0.420837 0.102200
H9    H     H_    0.162156 0.112588 0.357763 0.130118
H10   H     H_    0.865359 0.690154 0.648201 -0.060524
H11   H     H_    0.671180 0.643289 0.684875 0.046350
H12   H     H_    0.666037 0.993754 0.324545 0.073063
H13   H     H_    0.900400 0.851541 0.754478 0.066838
H14   H     H_    0.929546 0.725344 0.775113 -0.067474
H15   H     H_    0.524144 0.795138 0.323708 -0.059559
H16   H     H_    0.346905 0.276971 0.319622 -0.002030
H17   H     H_    0.562105 0.340111 0.327540 0.067441
H18   H     H_    0.416113 0.145028 0.212075 0.125165
H19   H     H_    0.627251 0.212178 0.221584 0.122564
H20   H     H_    0.769211 0.939589 0.245385 0.137066
H21   H     H_    0.136531 0.717734 0.148480 0.077937
H22   H     H_    0.122309 0.328121 0.727062 0.052256
H23   H     H_    0.926849 0.243947 0.734174 0.020944
H24   H     H_    0.241732 0.281172 0.829873 0.129534
H25   H     H_    0.033226 0.287222 0.854851 0.098992
H26   H     H_    0.098397 0.158456 0.825358 0.155219
H27   H     H_    0.667318 0.203963 0.691369 -0.076923
H28   H     H_    0.460325 0.167391 0.651926 0.023059
H29   H     H_    0.528276 0.011276 0.695660 -0.033054
H30   H     H_    0.044291 0.685063 0.271133 0.099909
H31   H     H_    0.384710 0.069056 0.757662 0.042560
H32   H     H_    0.827670 0.476288 0.654895 0.070730
H33   H     H_    0.569066 0.399445 0.874136 0.103466
H34   H     H_    0.880060 0.341073 0.198280 0.099117
H35   H     H_    0.302430 0.664958 0.801857 0.176437
H36   H     H_    0.607011 0.625776 0.130199 0.114504
H37   H     H_    0.369338 0.511767 0.343499 0.069145
H38   H     H_    0.664293 0.400376 0.994507 0.070893
H39   H     H_    0.775766 0.347474 0.080884 0.074199
H40   H     H_    0.396296 0.674384 0.923677 0.131701
H41   H     H_    0.257394 0.748943 0.272314 -0.068172
H42   H     H_    0.508754 0.630177 0.012133 0.091198
H43   H     H_    0.328564 0.033954 0.424183 0.101312
H44   H     H_    0.863306 0.960368 0.584449 0.101586
H45   H     H_    0.812924 0.267647 0.534967 0.061149
H46   H     H_    0.379892 0.723933 0.465886 0.067519
H47   H     H_    0.966536 0.786042 0.178735 0.156419
H48   H     H_    0.172535 0.860573 0.182223 0.123006
H49   H     H_    0.368774 0.804566 0.618216 0.022938
H50   H     H_    0.179172 0.739259 0.568777 0.050711
O1    O     O_2   0.873090 0.425890 0.325140 -0.466142
O2    O     O_3   0.687804 0.790037 0.650873 -0.615862
O3    O     O_3   0.091128 0.847594 0.316231 -0.608987
O4    O     O_2   0.316610 0.574140 0.674900 -0.437687
O5    O     O_3   0.067290 0.565720 0.585630 -0.502732
O6    O     O_3   0.530210 0.372990 0.631200 -0.479932
O7    O     O_3   0.191217 0.746055 0.682861 -0.624727
O8    O     O_3   0.611340 0.366290 0.463630 -0.477681
O9    O     O_3   0.108550 0.314140 0.595200 -0.487393
O10   O     O_2   0.196683 0.123720 0.555688 -0.493923
O11   O     O_3   0.112433 0.163149 0.690476 -0.591867
O12   O     O_3   0.122420 0.434370 0.414380 -0.496394
O13   O     O_3   0.578370 0.633800 0.536380 -0.480586
O14   O     O_2   0.341510 0.231850 0.465510 -0.470033
O15   O     O_3   0.512306 0.183008 0.348293 -0.665529
O16   O     O_2   0.417570 0.459483 0.756489 -0.467888
O17   O     O_3   0.479849 0.265783 0.752026 -0.602338
O18   O     O_3   0.659500 0.627100 0.368810 -0.482515
O19   O     O_2   0.773751 0.548207 0.242490 -0.487497
O20   O     O_3   0.999934 0.253792 0.317357 -0.638949
O21   O     O_3   0.700702 0.742135 0.252031 -0.619756
O22   O     O_2   0.848200 0.768190 0.534530 -0.480837
O23   O     O_3   0.081160 0.685950 0.404810 -0.486614
O24   O     O_2   0.000297 0.877875 0.450005 -0.495403
P1    P     P_3+3 0.041040 0.394770 0.336330 0.970419
P2    P     P_3+3 0.672880 0.754030 0.556100 0.985648
P3    P     P_3+3 0.129035 0.823335 0.404008 0.930735
P4    P     P_3+3 0.148670 0.605320 0.663680 0.988161
P5    P     P_3+3 0.065872 0.177364 0.600957 0.944667
P6    P     P_3+3 0.641574 0.614572 0.274837 0.948103
P7    P     P_3+3 0.523934 0.229980 0.442055 0.928951
P8    P     P_3+3 0.546613 0.389554 0.725577 0.991883
S1    S     S_3+6 0.681455 0.773539 0.822273 -0.075522
O25   O     O_2   0.536959 0.816419 0.794169 -0.249327
O26   O     O_2   0.627257 0.661387 0.836440 -0.383894
O27   O     O_3   0.760345 0.852998 0.899788 -0.492529
H51   H     H_    0.671334 0.846275 0.934835 0.364011
N1    N     N_3   0.512107 0.926983 0.232208 -0.491105
H52   H     H_    0.489939 0.855643 0.194178 0.198360
H53   H     H_    0.410749 0.929794 0.265421 0.188609
N2    N     N_3   0.455730 0.302042 0.186626 -0.532815
H54   H     H_    0.327065 0.293210 0.181571 0.170858
H55   H     H_    0.496311 0.280433 0.134168 0.191520
S2    S     S_3+6 0.652701 0.089596 0.812303 -0.044737
O28   O     O_2   0.710767 0.204239 0.846854 -0.344949
O29   O     O_2   0.567947 0.030430 0.867986 -0.224929
O30   O     O_3   0.815773 0.032684 0.782299 -0.530467
H56   H     H_    0.872811 0.021701 0.826855 0.375620

loop_
_geom_bond_atom_site_label_1
_geom_bond_atom_site_label_2
_ccdc_geom_bond_type
O21   P6    S    
O24   P3    D    
Ba2   O5    S    
C3    H17   S    
C32   C35   A    
C8    H29   S    
C46   P7    S    
O6    P8    S    
S2    O30   S    
C12   H30   S    
C17   C29   A    
C38   H45   S    
C27   H35   S    
N2    H54   S    
Ba2   O14   S    
C5    C6    S    
C8    H31   S    
C43   C44   A    
C4    H18   S    
S1    O26   D    
Ba2   O8    S    
C24   C25   A    
C27   C28   A    
C2    O21   S    
C3    O15   S    
C34   H49   S    
C21   C27   A    
C35   C36   A    
C22   C24   A    
C32   C33   A    
Ba1   P1    S    
C50   H7    S    
Ba1   O8    S    
C36   C37   A    
C51   H10   S    
C23   H48   S    
C52   S1    S    
C52   H14   S    
O22   P2    D    
C42   P2    S    
C38   C47   A    
C35   P6    S    
C8    S2    S    
C9    C22   A    
C15   C18   A    
C34   C45   S    
C38   C46   A    
Ba1   Ba2   S    
C40   C44   A    
C5    O11   S    
C1    H20   S    
Ba1   O18   S    
O18   P6    S    
Ba1   O5    S    
Ba2   O12   S    
C51   O2    S    
C24   C32   A    
O12   P1    S    
C25   C37   A    
C14   C15   A    
C26   H34   S    
C14   H33   S    
Ba2   P4    S    
O30   H56   S    
Ba1   O12   S    
C51   H11   S    
C7    C8    S    
C7    H28   S    
C5    H23   S    
C12   C23   S    
O9    P5    S    
C19   C20   A    
C6    H24   S    
C49   O20   S    
C39   C41   A    
C1    N1    S    
C9    C13   A    
O5    P4    S    
C2    H15   S    
N2    H55   S    
Ba2   O13   S    
S1    O27   S    
C44   C46   A    
C48   H44   S    
O19   P6    D    
C49   C50   S    
O27   H51   S    
O3    P3    S    
Ba1   P2    S    
C40   H43   S    
C4    N2    S    
C16   C17   A    
O1    P1    D    
C52   H13   S    
O11   P5    S    
C51   C52   S    
C36   H37   S    
O15   P7    S    
C16   C21   A    
C23   H21   S    
C13   C17   A    
C22   C30   A    
C3    H16   S    
C45   H3    S    
C7    O17   S    
C29   C30   A    
C28   C29   A    
C34   O7    S    
C15   C16   A    
C39   H46   S    
Ba1   O13   S    
Ba1   O22   S    
O13   P2    S    
C18   P8    S    
C12   O3    S    
C10   C26   A    
C11   C13   A    
C11   H38   S    
C39   C42   A    
N1    H53   S    
C10   H39   S    
C1    H12   S    
C49   H5    S    
C40   C41   A    
O8    P7    S    
C1    C2    S    
C31   H42   S    
C12   H41   S    
C42   C43   A    
C4    H19   S    
Ba2   O9    S    
O2    P2    S    
C47   P5    S    
C19   H32   S    
Ba2   O6    S    
C20   P4    S    
N1    H52   S    
Ba1   O23   S    
S2    O29   D    
C50   H9    S    
C9    C10   A    
C5    H22   S    
C37   P1    S    
S1    O25   D    
C34   H50   S    
C30   C31   A    
C41   P3    S    
C2    H1    S    
C6    H25   S    
C50   H8    S    
C45   H4    S    
C23   H47   S    
C3    C4    S    
C43   C48   A    
Ba2   O4    S    
C31   C33   A    
O10   P5    D    
O20   P1    S    
S2    O28   D    
O17   P8    S    
O23   P3    S    
O4    P4    D    
C33   H36   S    
O7    P4    S    
C18   C19   A    
C28   H40   S    
C47   C48   A    
C11   C14   A    
C7    H27   S    
C25   C26   A    
C6    H26   S    
C20   C21   A    
C49   H6    S    
O16   P8    D    
O14   P7    D    
Ba1   O1    S    
C45   H2    S    
