data_mof_unit_28316.cif
_audit_creation_date              2013-03-05T15:55:53-0500
_audit_creation_method            fapswitch 2.2
_symmetry_space_group_name_H-M    P1
_symmetry_Int_Tables_number       1
_space_group_crystal_system       triclinic
_cell_length_a                    12.312696
_cell_length_b                    13.139581
_cell_length_c                    15.87251
_cell_angle_alpha                 77.943062
_cell_angle_beta                  100.84574
_cell_angle_gamma                 116.201553
_cell_volume                      2239.71603732

loop_
_atom_site_label
_atom_site_type_symbol
_atom_site_description
_atom_site_fract_x
_atom_site_fract_y
_atom_site_fract_z
_atom_type_partial_charge
O1    O     O_R   0.972510 0.318130 0.524770 -0.539718
O2    O     O_R   0.806530 0.359650 0.491510 -0.612435
C1    C     C_R   0.854688 0.285893 0.511136 0.796516
O3    O     O_R   0.082970 0.479240 0.637550 -0.546362
O4    O     O_R   0.916990 0.520750 0.604290 -0.593256
C2    C     C_R   0.999159 0.499654 0.659822 0.823346
Cu1   Cu    Cu3+1 0.098270 0.475420 0.519690 1.080337
Cu2   Cu    Cu3+1 0.901730 0.524580 0.480310 0.972158
O5    O     O_R   0.193470 0.640350 0.508490 -0.535694
O6    O     O_R   0.027490 0.681870 0.475230 -0.591660
O7    O     O_R   0.083010 0.479250 0.395710 -0.537409
O8    O     O_R   0.917030 0.520760 0.362450 -0.597932
C3    C     C_R   0.144940 0.713577 0.491991 0.867708
C4    C     C_R   0.000778 0.500190 0.340193 0.810371
C5    C     C_3   0.028053 0.415945 0.045725 0.306463
C6    C     C_3   0.916507 0.398410 0.977230 -0.274505
H1    H     H_    0.847863 0.314714 0.958581 0.222230
C7    C     C_1   0.998101 0.499679 0.749126 -0.045712
C8    C     C_1   0.002144 0.500139 0.250925 -0.078128
C9    C     C_3   0.110080 0.515566 0.985175 0.250378
C10   C     C_3   0.000397 0.500070 0.916327 -0.079939
C11   C     C_3   0.087205 0.602170 0.023901 -0.274992
C12   C     C_3   0.002891 0.500094 0.084165 -0.039137
C13   C     C_3   0.975363 0.583896 0.955501 0.343101
C14   C     C_3   0.890534 0.484313 0.016247 -0.216031
C15   C     C_1   0.998560 0.499754 0.824589 0.159805
C16   C     C_1   0.002780 0.500126 0.175611 0.120907
C17   C     C_R   0.270099 0.029568 0.414012 0.343209
H2    H     H_    0.092830 0.889893 0.409970 0.207150
H3    H     H_    0.458686 0.210332 0.344378 0.202784
C18   C     C_R   0.226940 0.836386 0.487793 -0.193254
C19   C     C_R   0.806574 0.093934 0.601087 0.313983
C20   C     C_R   0.718418 0.006785 0.650045 -0.143534
C21   C     C_R   0.595916 0.979880 0.624899 -0.080513
C22   C     C_R   0.557083 0.029275 0.544159 0.124442
C23   C     C_R   0.645359 0.126600 0.499450 0.050928
C24   C     C_R   0.432764 0.987789 0.508031 -0.022740
C25   C     C_R   0.395013 0.061265 0.442493 0.002368
C26   C     C_R   0.483443 0.159009 0.400569 -0.128076
C27   C     C_R   0.606111 0.185700 0.424368 -0.154847
C28   C     C_R   0.347776 0.872594 0.528367 0.292150
C29   C     C_R   0.187396 0.916667 0.436642 -0.252304
C30   C     C_R   0.770717 0.163830 0.531630 -0.190617
H4    H     H_    0.669812 0.254165 0.383486 0.170241
C31   C     C_R   0.329344 0.306065 0.622017 0.269555
N1    N     N_R   0.246280 0.438200 0.549540 -0.234707
C32   C     C_R   0.759676 0.644760 0.383209 0.044228
C33   C     C_R   0.657380 0.665240 0.349559 -0.248251
C34   C     C_R   0.547396 0.601135 0.386049 0.347074
C35   C     C_R   0.544189 0.523290 0.464116 -0.078792
C36   C     C_R   0.649772 0.500843 0.492486 0.199585
C37   C     C_R   0.441332 0.465252 0.514203 -0.066261
C38   C     C_R   0.437598 0.372944 0.581263 -0.078750
C39   C     C_R   0.543303 0.353072 0.607823 0.296590
C40   C     C_R   0.645367 0.416227 0.563645 -0.203783
C41   C     C_R   0.344149 0.498720 0.503703 0.190058
C42   C     C_R   0.237467 0.344214 0.607171 0.082746
N2    N     N_R   0.754330 0.561180 0.450980 -0.197357
H5    H     H_    0.345794 0.574565 0.461141 0.181568
H6    H     H_    0.842128 0.691429 0.351707 0.160494
H7    H     H_    0.661680 0.725895 0.291037 0.206889
H8    H     H_    0.721832 0.397985 0.589479 0.220400
N3    N     N_R   0.386705 0.788636 0.580252 0.104390
O9    O     O_R   0.338421 0.731800 0.651418 -0.311992
O10   O     O_R   0.464152 0.763380 0.553311 -0.364438
N4    N     N_R   0.931447 0.112274 0.624315 0.121581
O11   O     O_R   0.973240 0.098625 0.705521 -0.289123
O12   O     O_R   0.994351 0.116875 0.565161 -0.305152
H9    H     H_    0.532833 0.919980 0.669678 0.217723
H10   H     H_    0.744672 0.959465 0.708384 0.216596
H11   H     H_    0.155727 0.296161 0.639034 0.203027
N5    N     N_R   0.555916 0.280373 0.686808 0.157989
O13   O     O_R   0.608928 0.213160 0.689135 -0.352014
O14   O     O_R   0.537334 0.298097 0.759432 -0.277089
N6    N     N_R   0.305544 0.194583 0.670792 0.181216
O15   O     O_R   0.322363 0.119893 0.638657 -0.291361
O16   O     O_R   0.247276 0.160844 0.738970 -0.224866
N7    N     N_R   0.059162 0.323354 0.093900 0.170406
O17   O     O_R   0.077651 0.257968 0.052355 -0.250749
O18   O     O_R   0.069154 0.305727 0.178147 -0.254756
N8    N     N_R   0.438990 0.604574 0.335658 0.101899
O19   O     O_R   0.347602 0.509605 0.317502 -0.285069
O20   O     O_R   0.439468 0.701695 0.295179 -0.326516
H12   H     H_    0.800213 0.473480 0.029121 0.207151
N9    N     N_R   0.945340 0.677086 0.907286 0.165323
O21   O     O_R   0.925813 0.741868 0.948781 -0.276619
O22   O     O_R   0.938096 0.696361 0.823116 -0.296381
H13   H     H_    0.156719 0.685651 0.042354 0.217337
N10   N     N_R   0.230252 0.530778 0.971102 0.173965
O23   O     O_R   0.314755 0.542401 0.036065 -0.247857
O24   O     O_R   0.254028 0.533292 0.894081 -0.281296
N11   N     N_R   0.226598 0.109829 0.360573 0.144758
O25   O     O_R   0.270935 0.214703 0.376821 -0.296368
O26   O     O_R   0.130921 0.074500 0.304362 -0.274778

loop_
_geom_bond_atom_site_label_1
_geom_bond_atom_site_label_2
_geom_bond_distance
_ccdc_geom_bond_type
N4    O12   1.301436 A    
C10   C15   1.452886 S    
N3    O10   1.301728 A    
C6    C10   1.550352 S    
C18   C29   1.398563 A    
H2    C29   1.083389 S    
C22   C23   1.415660 A    
C7    C15   1.196942 T    
N8    O19   1.301777 A    
Cu1   Cu2   2.703047 S    
C38   C39   1.409765 A    
Cu1   O7    1.933439 S    
C1    C30   1.480343 S    
C22   C24   1.425646 A    
C25   C26   1.399490 A    
O7    C4    1.298579 A    
N7    O18   1.300293 A    
C5    N7    1.457462 S    
C5    C6    1.544236 S    
C40   H8    1.060630 S    
C21   C22   1.410016 A    
C34   N8    1.435197 S    
O5    C3    1.301896 A    
Cu2   N2    2.025110 S    
C32   H6    1.081621 S    
C6    H1    1.110144 S    
C14   H12   1.110115 S    
C35   C37   1.445774 A    
C12   C16   1.451821 S    
N10   O24   1.300229 A    
C8    C16   1.196968 T    
C13   N9    1.457203 S    
C5    C12   1.531750 S    
N4    O11   1.301399 A    
C31   C38   1.421259 A    
O3    Cu1   1.928174 S    
N8    O20   1.301390 A    
C20   C21   1.385955 A    
N9    O22   1.300276 A    
C5    C9    1.526246 S    
C2    C7    1.420043 S    
Cu1   N1    2.037179 S    
C23   C27   1.408833 A    
C13   C14   1.542013 S    
O3    C2    1.297366 A    
C26   C27   1.385566 A    
N7    O17   1.300263 A    
N9    O21   1.300255 A    
O1    C1    1.307031 A    
N6    O15   1.301737 A    
C24   C25   1.423021 A    
C32   C33   1.389325 A    
C17   C25   1.412331 A    
Cu2   O8    1.928174 S    
C31   C42   1.391970 A    
N11   O26   1.301498 A    
C35   C36   1.429188 A    
C17   N11   1.439667 S    
C36   N2    1.385510 A    
C42   H11   1.079048 S    
N6    O16   1.301229 A    
C21   H9    1.078035 S    
C20   H10   1.082982 S    
N5    O14   1.301462 A    
C33   C34   1.401028 A    
O8    C4    1.297787 A    
C11   H13   1.110130 S    
N1    C42   1.349333 A    
C11   C13   1.544985 S    
C28   N3    1.436592 S    
C37   C38   1.426889 A    
C19   N4    1.433388 S    
C6    C14   1.563696 S    
Cu1   O5    1.943260 S    
C39   C40   1.388241 A    
C18   C28   1.413163 A    
O1    Cu1   1.956253 S    
C4    C8    1.420304 S    
C3    C18   1.472891 S    
O2    Cu2   1.943260 S    
C9    C11   1.546752 S    
N5    O13   1.301438 A    
O6    C3    1.305807 A    
O4    Cu2   1.933439 S    
C9    N10   1.457308 S    
C41   H5    1.075183 S    
C31   N6    1.436489 S    
C19   C20   1.393331 A    
O2    C1    1.303713 A    
C32   N2    1.355285 A    
C33   H7    1.082952 S    
O4    C2    1.298973 A    
C17   C29   1.395599 A    
N11   O25   1.301773 A    
C19   C30   1.416214 A    
H3    C26   1.082173 S    
C36   C40   1.399991 A    
C12   C14   1.548479 S    
C24   C28   1.419353 A    
N3    O9    1.302065 A    
C27   H4    1.081721 S    
C39   N5    1.437276 S    
C9    C10   1.534347 S    
Cu2   O6    1.956253 S    
C34   C35   1.427047 A    
C10   C13   1.533890 S    
N1    C41   1.362295 A    
C11   C12   1.549118 S    
C23   C30   1.422502 A    
N10   O23   1.300324 A    
C37   C41   1.418434 A    
