data_mof_unit_57079.cif
_audit_creation_date              2012-12-10T17:35:51-0500
_audit_creation_method            fapswitch 2.2
_symmetry_space_group_name_H-M    P1
_symmetry_Int_Tables_number       1
_space_group_crystal_system       triclinic
_cell_length_a                    11.102107
_cell_length_b                    12.307291
_cell_length_c                    13.892471
_cell_angle_alpha                 91.76253
_cell_angle_beta                  91.587002
_cell_angle_gamma                 82.434179
_cell_volume                      1880.27230598

loop_
_atom_site_label
_atom_site_type_symbol
_atom_type_description
_atom_site_fract_x
_atom_site_fract_y
_atom_site_fract_z
_atom_type_partial_charge
C1    C     C_R   0.504207 0.521943 0.701502 0.856099
C2    C     C_R   0.610894 0.151851 0.579907 0.306750
C3    C     C_R   0.552264 0.850705 0.532660 0.005537
C4    C     C_R   0.450158 0.149386 0.465353 0.003843
C5    C     C_R   0.544945 0.970605 0.530094 -0.069664
C6    C     C_R   0.457479 0.029438 0.467747 -0.069587
C7    C     C_R   0.742954 0.498574 0.500179 0.865154
C8    C     C_R   0.257354 0.501304 0.498828 0.873003
C9    C     C_3   0.974285 0.425312 0.557216 0.224968
C10   C     C_3   0.027055 0.573930 0.439867 0.215991
C11   C     C_3   0.042293 0.521712 0.589956 -0.273175
C12   C     C_R   0.503985 0.477949 0.298633 0.854663
C13   C     C_3   0.958779 0.477541 0.407277 -0.282778
C14   C     C_3   0.122088 0.500568 0.499041 -0.144494
C15   C     C_3   0.878810 0.499020 0.498362 -0.144793
C16   C     C_3   0.054001 0.402331 0.468506 0.023095
C17   C     C_3   0.947502 0.597170 0.528680 0.022753
C18   C     C_R   0.518323 0.464205 0.186675 -0.238452
C19   C     C_R   0.513452 0.536767 0.814209 -0.236282
C20   C     C_R   0.529670 0.648808 0.968071 0.205324
C21   C     C_R   0.552300 0.353933 0.034483 0.218675
C22   C     C_R   0.518413 0.641730 0.864693 0.183740
C23   C     C_R   0.520901 0.442725 0.872913 -0.079308
C24   C     C_R   0.538902 0.359326 0.135104 0.167560
C25   C     C_3   0.037287 0.268415 0.662072 -0.710585
C26   C     C_3   0.965151 0.735802 0.341319 -0.627090
C27   C     C_1   0.103806 0.291957 0.435425 0.207575
C28   C     C_1   0.901310 0.707984 0.562201 0.204696
C29   C     C_1   0.497765 0.666080 0.178281 0.247172
C30   C     C_1   0.511982 0.336771 0.825944 0.246019
C31   C     C_3   0.554420 0.144320 0.150646 -0.743276
C32   C     C_3   0.522271 0.851413 0.843385 -0.729915
C33   C     C_3   0.658551 0.790602 0.039862 -0.620940
C34   C     C_R   0.517036 0.559524 0.129658 -0.073335
C35   C     C_3   0.703341 0.208106 0.962898 -0.753372
C36   C     C_1   0.378713 0.214658 0.397289 0.297344
C37   C     C_1   0.627968 0.785612 0.598235 0.284648
C38   C     C_3   0.769148 0.177693 0.714752 -0.813432
C39   C     C_3   0.230351 0.823219 0.283724 -0.792544
C40   C     C_1   0.295490 0.023103 0.342467 0.187408
C41   C     C_1   0.710956 0.977255 0.652520 0.184319
C42   C     C_R   0.533719 0.449787 0.977115 -0.035736
C43   C     C_R   0.527397 0.553407 0.025615 -0.052472
C44   C     C_R   0.380154 0.966768 0.411438 -0.073330
C45   C     C_R   0.622881 0.033316 0.585837 -0.074030
C46   C     C_R   0.389679 0.848484 0.419219 0.305055
H1    H     H_    0.073664 0.538037 0.665063 0.157825
H2    H     H_    0.878423 0.689623 0.315576 0.220418
H3    H     H_    0.529286 0.264619 0.252963 0.280799
H4    H     H_    0.550048 0.088625 0.213069 0.215222
H5    H     H_    0.644353 0.116417 0.118230 0.259903
H6    H     H_    0.475694 0.131055 0.103238 0.241421
H7    H     H_    0.505922 0.736173 0.740491 0.283503
H8    H     H_    0.513389 0.909296 0.781664 0.216920
H9    H     H_    0.617884 0.846922 0.870022 0.278158
H10   H     H_    0.446998 0.883556 0.893754 0.243268
H11   H     H_    0.454340 0.805556 0.029880 0.206305
H12   H     H_    0.927502 0.461128 0.332168 0.158425
H13   H     H_    0.645897 0.834983 0.114782 0.199234
H14   H     H_    0.690922 0.865079 0.005053 0.193473
H15   H     H_    0.729345 0.716352 0.062148 0.217035
H16   H     H_    0.507264 0.207309 0.968850 0.227403
H17   H     H_    0.708520 0.117533 0.943459 0.225151
H18   H     H_    0.765464 0.213561 0.026014 0.245667
H19   H     H_    0.734594 0.256935 0.901894 0.238638
H20   H     H_    0.660967 0.297463 0.638824 0.281891
H21   H     H_    0.802441 0.248945 0.752526 0.220939
H22   H     H_    0.851769 0.119537 0.691395 0.265169
H23   H     H_    0.849725 0.335651 0.621344 0.252852
H24   H     H_    0.714171 0.139299 0.768125 0.263421
H25   H     H_    0.338958 0.703433 0.360220 0.281465
H26   H     H_    0.200808 0.751330 0.243453 0.218745
H27   H     H_    0.283089 0.862288 0.229866 0.255497
H28   H     H_    0.147331 0.881174 0.307320 0.259914
H29   H     H_    0.997659 0.214590 0.714841 0.227205
H30   H     H_    0.102962 0.317459 0.702014 0.238423
H31   H     H_    0.087440 0.217084 0.603497 0.248404
H32   H     H_    0.154541 0.656948 0.368417 0.239570
H33   H     H_    0.003739 0.780082 0.273543 0.209114
H34   H     H_    0.937002 0.799223 0.406826 0.234556
N1    N     N_R   0.523490 0.207800 0.519350 -0.181465
N2    N     N_2   0.508406 0.740943 0.810433 -0.309771
N3    N     N_2   0.537250 0.755189 0.013279 -0.290693
N4    N     N_2   0.579441 0.248246 0.990753 -0.295104
N5    N     N_1   0.326197 0.265860 0.338277 -0.191703
N6    N     N_1   0.682395 0.732741 0.655181 -0.192423
N7    N     N_2   0.694924 0.214388 0.629805 -0.293391
N8    N     N_2   0.305723 0.786316 0.368349 -0.291461
N9    N     N_1   0.232397 0.066543 0.283221 -0.195477
N10   N     N_1   0.776660 0.935658 0.710790 -0.200063
N11   N     N_R   0.476510 0.792200 0.480650 -0.180304
N12   N     N_2   0.941115 0.343281 0.619489 -0.314066
N13   N     N_2   0.060623 0.654670 0.376155 -0.311666
N14   N     N_1   0.143141 0.204326 0.409162 -0.202811
N15   N     N_1   0.864398 0.796036 0.589024 -0.201859
N16   N     N_1   0.485732 0.752371 0.216185 -0.229635
N17   N     N_1   0.503755 0.251589 0.790019 -0.214323
N18   N     N_2   0.545668 0.258526 0.185191 -0.300834
O1    O     O_R   0.506270 0.421700 0.658830 -0.637841
O2    O     O_R   0.493730 0.578300 0.341170 -0.640624
O3    O     O_R   0.491200 0.609310 0.646410 -0.640923
O4    O     O_R   0.508800 0.390690 0.353590 -0.642164
O5    O     O_R   0.693580 0.406210 0.506230 -0.647739
O6    O     O_R   0.306420 0.593790 0.493770 -0.642356
O7    O     O_R   0.678510 0.593830 0.493810 -0.620436
O8    O     O_R   0.321490 0.406170 0.506190 -0.618688
Zn1   Zn    Zn3+2 0.510060 0.374730 0.508290 0.964843
Zn2   Zn    Zn3+2 0.489940 0.625270 0.491710 0.964244

loop_
_geom_bond_atom_site_label_1
_geom_bond_atom_site_label_2
_ccdc_geom_bond_type
C4    C36   S    
C11   H1    S    
C8    O6    A    
C31   H6    S    
C1    O1    A    
C13   C16   S    
N1    Zn1   S    
C30   N17   T    
C23   C42   A    
C28   N15   T    
C24   N18   S    
C22   N2    S    
C9    C16   S    
C5    C6    A    
C11   C14   S    
C39   H28   S    
O8    Zn1   S    
C35   H19   S    
C10   C17   S    
C3    N11   A    
C31   N18   S    
C25   H31   S    
H3    N18   S    
C35   H17   S    
C27   N14   T    
C4    N1    A    
C39   H26   S    
C7    O7    A    
C35   H18   S    
C40   N9    T    
H23   N12   S    
C32   H9    S    
C26   H2    S    
O3    Zn2   S    
C7    C15   S    
C41   N10   T    
C33   H13   S    
C7    O5    A    
C39   N8    S    
C9    N12   S    
C32   H8    S    
C44   C46   A    
C46   N8    S    
C18   C34   A    
C2    C45   A    
O7    Zn2   S    
O2    Zn2   S    
C1    C19   S    
C23   C30   S    
C37   N6    T    
C2    N7    S    
C19   C22   A    
C4    C6    A    
C10   C14   S    
C31   H5    S    
H20   N7    S    
C13   H12   S    
C10   N13   S    
C5    C45   A    
C29   C34   S    
C26   H34   S    
C21   C42   A    
H7    N2    S    
C25   H29   S    
C19   C23   A    
C12   O4    A    
C9    C11   S    
C21   N4    S    
H11   N3    S    
O4    Zn1   S    
C33   N3    S    
C38   H24   S    
C20   C22   A    
C33   H14   S    
C13   C15   S    
C18   C24   A    
C20   N3    S    
C42   C43   A    
C31   H4    S    
C1    O3    A    
O6    Zn2   S    
C20   C43   A    
O1    Zn1   S    
C15   C17   S    
H16   N4    S    
C11   C17   S    
C25   N12   S    
C8    C14   S    
C17   C28   S    
N11   Zn2   S    
C34   C43   A    
C38   H22   S    
C3    C5    A    
C10   C13   S    
C8    O8    A    
C29   N16   T    
O5    Zn1   S    
C35   N4    S    
C46   N11   A    
C36   N5    T    
C32   N2    S    
C26   H33   S    
C38   N7    S    
C25   H30   S    
C9    C15   S    
C16   C27   S    
C14   C16   S    
C39   H27   S    
C12   O2    A    
C26   N13   S    
H25   N8    S    
C40   C44   S    
C38   H21   S    
C3    C37   S    
C33   H15   S    
C21   C24   A    
C12   C18   S    
C41   C45   S    
C2    N1    A    
C6    C44   A    
H32   N13   S    
C32   H10   S    
