data_mof_unit_11323.cif
_audit_creation_date              2012-12-11T14:50:34-0500
_audit_creation_method            fapswitch 2.2
_symmetry_space_group_name_H-M    P1
_symmetry_Int_Tables_number       1
_space_group_crystal_system       triclinic
_cell_length_a                    10.90126
_cell_length_b                    11.073547
_cell_length_c                    18.80442
_cell_angle_alpha                 90.274646
_cell_angle_beta                  89.483779
_cell_angle_gamma                 59.614753
_cell_volume                      1957.99610823

loop_
_atom_site_label
_atom_site_type_symbol
_atom_type_description
_atom_site_fract_x
_atom_site_fract_y
_atom_site_fract_z
_atom_type_partial_charge
C1    C     C_R   0.279294 0.629198 0.615257 0.549137
C2    C     C_3   0.695948 0.521264 0.806869 0.014464
C3    C     C_3   0.690772 0.664293 0.815962 0.057959
C4    C     C_3   0.655579 0.623510 0.682073 -0.045063
C5    C     C_3   0.776797 0.662512 0.685826 0.169012
C6    C     C_3   0.693898 0.491449 0.726942 -0.280842
C7    C     C_R   0.780067 0.167440 0.710814 -0.095378
C8    C     C_R   0.788488 0.153903 0.784715 -0.096615
C9    C     C_R   0.676143 0.157295 0.823508 0.048692
C10   C     C_R   0.553728 0.174779 0.786276 0.006886
C11   C     C_R   0.557575 0.170010 0.713295 -0.071958
C12   C     C_R   0.631102 0.592623 0.608993 0.537089
C13   C     C_R   0.663859 0.176277 0.675105 0.039023
C14   C     C_R   0.267004 0.533132 0.730761 -0.116657
C15   C     C_R   0.241723 0.547798 0.803825 -0.053135
C16   C     C_R   0.182403 0.678686 0.835678 0.080182
C17   C     C_R   0.156656 0.794615 0.795122 -0.055578
C18   C     C_R   0.179004 0.783613 0.723071 0.149559
C19   C     C_R   0.234191 0.650597 0.689484 0.055626
C20   C     C_R   0.640663 0.524490 0.256154 0.002285
C21   C     C_R   0.641597 0.555589 0.184183 0.137682
C22   C     C_R   0.646187 0.675203 0.166431 0.079995
C23   C     C_R   0.628749 0.227981 0.602732 0.552631
C24   C     C_R   0.643038 0.764544 0.220021 -0.076441
C25   C     C_R   0.628573 0.740297 0.291090 -0.077515
C26   C     C_R   0.627465 0.619576 0.310024 0.013230
C27   C     C_R   0.556625 0.107057 0.301523 -0.007235
C28   C     C_R   0.557132 0.102589 0.227083 0.076211
C29   C     C_R   0.684342 0.069615 0.189516 -0.000978
C30   C     C_R   0.805902 0.041471 0.228651 -0.147263
C31   C     C_R   0.796151 0.067587 0.301847 -0.121363
C32   C     C_R   0.665119 0.119800 0.336498 0.007189
C33   C     C_R   0.241730 0.722625 0.282947 -0.152988
C34   C     C_R   0.224808 0.648363 0.400555 0.577454
C35   C     C_R   0.232769 0.719015 0.210339 -0.026830
C36   C     C_R   0.159954 0.656845 0.180890 -0.064891
C37   C     C_R   0.116386 0.579174 0.224288 -0.020367
C38   C     C_R   0.122388 0.588087 0.298463 0.151597
C39   C     C_R   0.184565 0.661221 0.327078 -0.017031
C40   C     C_R   0.698737 0.104829 0.896683 0.597198
C41   C     C_R   0.719380 0.685056 0.890304 0.665998
C42   C     C_R   0.120208 0.706645 0.906667 0.602521
C43   C     C_R   0.699774 0.044076 0.111772 0.574799
C44   C     C_R   0.692429 0.690222 0.096230 0.585207
C45   C     C_R   0.616943 0.590347 0.385464 0.546593
C46   C     C_R   0.094966 0.706926 0.111906 0.506055
C47   C     C_R   0.624073 0.214595 0.399795 0.564243
C48   C     C_3   0.545376 0.788262 0.788007 -0.098799
C49   C     C_3   0.515392 0.744497 0.715695 -0.245901
C50   C     C_3   0.814875 0.657630 0.767104 0.193981
Cr1   Cr    Cr6+3 0.392930 0.397900 0.502230 1.120080
Cr2   Cr    Cr6+3 0.398240 0.708600 0.501260 1.119901
Cr3   Cr    Cr6+3 0.708800 0.393470 0.496460 1.103352
Cr4   Cr    Cr6+3 0.937620 0.938540 0.007640 1.104247
Cr5   Cr    Cr6+3 0.625150 0.937450 0.994520 1.125400
Cr6   Cr    Cr6+3 0.937990 0.625080 0.001190 1.101523
H1    H     H_    0.560457 0.878993 0.778880 0.177451
H2    H     H_    0.800363 0.404885 0.710207 0.129094
H3    H     H_    0.860661 0.176590 0.681719 0.182450
H4    H     H_    0.882333 0.140113 0.811323 0.155732
H5    H     H_    0.468168 0.174712 0.685995 0.205548
H6    H     H_    0.311462 0.430587 0.706487 0.151501
H7    H     H_    0.259743 0.460300 0.835476 0.161515
H8    H     H_    0.110152 0.898295 0.818622 0.165849
H9    H     H_    0.663831 0.846163 0.206625 0.115342
H10   H     H_    0.630504 0.808755 0.331530 0.185609
H11   H     H_    0.907064 0.006610 0.202107 0.186347
H12   H     H_    0.886417 0.060001 0.329546 0.193127
H13   H     H_    0.299856 0.769380 0.304992 0.188392
H14   H     H_    0.441274 0.705155 0.722907 0.139369
H15   H     H_    0.461413 0.838170 0.681382 0.213308
H16   H     H_    0.794872 0.434208 0.829223 0.199710
H17   H     H_    0.616072 0.456456 0.717169 0.136048
O1    O     O_R   0.507430 0.255570 0.581420 -0.511598
O2    O     O_R   0.524460 0.695920 0.424060 -0.475443
O3    O     O_R   0.736530 0.504260 0.414810 -0.400385
O4    O     O_R   0.691460 0.277160 0.422180 -0.487281
O5    O     O_3   0.499990 0.499990 0.499980 -0.357170
O6    O     O_R   0.089490 0.825610 0.930610 -0.502675
O7    O     O_R   0.818370 0.054540 0.929880 -0.473890
O8    O     O_R   0.605870 0.077310 0.915530 -0.531660
O9    O     O_R   0.646440 0.806700 0.917570 -0.458741
O10   O     O_R   0.837200 0.593290 0.915250 -0.463749
O11   O     O_R   0.065330 0.635370 0.931590 -0.467729
O12   O     O_R   0.280190 0.527390 0.578910 -0.461267
O13   O     O_R   0.068300 0.828790 0.091860 -0.520105
O14   O     O_R   0.798730 0.057480 0.079370 -0.463794
O15   O     O_R   0.584680 0.080480 0.076790 -0.442260
O16   O     O_R   0.626790 0.809640 0.067050 -0.496919
O17   O     O_R   0.816010 0.596460 0.076500 -0.465466
O18   O     O_R   0.045680 0.638310 0.081070 -0.530898
O19   O     O_3   0.833590 0.833690 0.001120 -0.312453
O20   O     O_R   0.260310 0.739740 0.584580 -0.446782
O21   O     O_R   0.532250 0.695150 0.573830 -0.457109
O22   O     O_R   0.744930 0.503430 0.576380 -0.513466
O23   O     O_R   0.699250 0.276390 0.571950 -0.522219
O24   O     O_R   0.499020 0.256400 0.419850 -0.473072
O25   O     O_R   0.272400 0.528160 0.429140 -0.457045
O26   O     O_R   0.251910 0.740570 0.423020 -0.516943
Br1   Br    Br    0.997737 0.483678 0.788369 -0.514231
C51   C     C_2   0.911913 0.565743 0.642683 0.387752
H18   H     H_    0.957608 0.453042 0.644456 0.135659
O27   O     O_2   0.973480 0.611301 0.607031 -0.397889
C52   C     C_2   0.418825 0.197586 0.820545 0.235830
H19   H     H_    0.387988 0.242198 0.873650 0.153557
O28   O     O_2   0.338327 0.169652 0.789301 -0.507464
C53   C     C_2   0.412597 0.848858 0.834879 0.271992
H20   H     H_    0.315922 0.937958 0.815511 0.162706
O29   O     O_2   0.410360 0.804116 0.893725 -0.439881
Br2   Br    Br    0.139205 0.957425 0.679417 -0.508090
C54   C     C_2   0.687329 0.381232 0.273623 0.270092
H21   H     H_    0.622326 0.336871 0.259469 0.101338
O30   O     O_2   0.805262 0.310275 0.298834 -0.428376
Br3   Br    Br    0.652189 0.427974 0.110576 -0.437280
C55   C     C_2   0.444758 0.094837 0.342125 0.295597
H22   H     H_    0.338945 0.134823 0.321356 0.189033
O31   O     O_2   0.471477 0.036526 0.399625 -0.464225
Br4   Br    Br    0.385515 0.131123 0.180989 -0.450909
C56   C     C_2   0.299432 0.781631 0.165977 0.274545
H23   H     H_    0.329550 0.748015 0.111084 0.157432
O32   O     O_2   0.319736 0.872514 0.190053 -0.466281
C57   C     C_2   0.071987 0.484218 0.192354 0.337043
H24   H     H_    0.128634 0.421017 0.146049 0.162208
O33   O     O_2   0.970946 0.477505 0.215814 -0.422299
Br5   Br    Br    0.046984 0.501639 0.361016 -0.334977
Br6   Br    Br    0.849409 0.809772 0.790280 -0.458467
Br7   Br    Br    0.700404 0.848689 0.640651 -0.384203
Br8   Br    Br    0.552565 0.503476 0.860511 -0.540659

loop_
_geom_bond_atom_site_label_1
_geom_bond_atom_site_label_2
_ccdc_geom_bond_type
Cr1   O24   S    
C51   H18   S    
Cr3   O22   S    
C6    H2    S    
C35   C56   S    
C54   H21   S    
Cr1   O1    S    
Cr2   O2    S    
Cr1   O12   S    
C52   O28   D    
C48   H1    S    
C29   C30   A    
Cr6   O10   S    
C45   O3    A    
C43   O15   A    
C36   C37   A    
C17   H8    S    
Cr4   O14   S    
C2    H16   S    
C48   C53   S    
C55   H22   S    
C41   O10   A    
C3    C48   S    
C23   O23   A    
C13   C23   S    
C18   C19   A    
Cr5   O15   S    
C26   C45   S    
C34   O25   A    
Cr6   O18   S    
C22   C44   S    
C35   C36   A    
C8    C9    A    
C55   O31   D    
C53   H20   S    
C40   O7    A    
C12   O22   A    
C36   C46   S    
C50   Br6   S    
Cr5   O8    S    
C9    C10   A    
C30   H11   S    
C33   H13   S    
Cr1   O25   S    
Cr6   O17   S    
C42   O6    A    
C51   O27   D    
C21   C22   A    
C29   C43   S    
Cr3   O23   S    
C53   O29   D    
C12   O21   A    
C2    C6    S    
Cr2   O5    S    
C40   O8    A    
C7    H3    S    
C52   H19   S    
C3    C50   S    
Cr6   O11   S    
Cr4   O7    S    
C56   O32   D    
C1    O12   A    
C31   H12   S    
C5    C51   S    
C1    C19   S    
C34   C39   S    
C7    C8    A    
C42   O11   A    
C24   C25   A    
C4    C6    S    
Cr4   O13   S    
C16   C17   A    
C46   O18   A    
C25   C26   A    
C9    C40   S    
Cr3   O4    S    
Cr4   O19   S    
C37   C38   A    
C21   Br3   S    
C20   C54   S    
C31   C32   A    
Cr6   O19   S    
C30   C31   A    
C5    Br7   S    
C17   C18   A    
Cr2   O20   S    
C54   O30   D    
C33   C39   A    
Cr5   O9    S    
Cr2   O21   S    
C24   H9    S    
C48   C49   S    
Cr5   O19   S    
C49   H14   S    
C32   C47   S    
C22   C24   A    
C5    C50   S    
Cr3   O3    S    
C4    C12   S    
C47   O4    A    
C23   O1    A    
C57   O33   D    
C16   C42   S    
C38   Br5   S    
C44   O17   A    
C6    H17   S    
Cr4   O6    S    
C28   C29   A    
C27   C32   A    
C14   C19   A    
C25   H10   S    
C18   Br2   S    
C4    C5    S    
C11   H5    S    
C56   H23   S    
C34   O26   A    
Cr2   O26   S    
C50   Br1   S    
C47   O24   A    
C2    Br8   S    
C4    C49   S    
C45   O2    A    
C43   O14   A    
C10   C52   S    
C2    C3    S    
Cr1   O5    S    
Cr5   O16   S    
C28   Br4   S    
C8    H4    S    
C11   C13   A    
C38   C39   A    
C20   C26   A    
C41   O9    A    
C33   C35   A    
Cr3   O5    S    
C3    C41   S    
C10   C11   A    
C37   C57   S    
C7    C13   A    
C20   C21   A    
C1    O20   A    
C49   H15   S    
C27   C28   A    
C15   H7    S    
C14   C15   A    
C57   H24   S    
C44   O16   A    
C15   C16   A    
C27   C55   S    
C46   O13   A    
C14   H6    S    
