data_mof_unit_35522.cif
_audit_creation_date              2012-12-10T17:18:56-0500
_audit_creation_method            fapswitch 2.2
_symmetry_space_group_name_H-M    P1
_symmetry_Int_Tables_number       1
_space_group_crystal_system       triclinic
_cell_length_a                    10.227991
_cell_length_b                    10.690568
_cell_length_c                    13.826981
_cell_angle_alpha                 92.314409
_cell_angle_beta                  101.61351
_cell_angle_gamma                 97.58586
_cell_volume                      1464.47683038

loop_
_atom_site_label
_atom_site_type_symbol
_atom_type_description
_atom_site_fract_x
_atom_site_fract_y
_atom_site_fract_z
_atom_type_partial_charge
C1    C     C_R   0.056592 0.733085 0.496890 0.905980
C2    C     C_R   0.944826 0.267220 0.506411 0.855569
C3    C     C_R   0.419452 0.417188 0.123244 0.356569
C4    C     C_R   0.500535 0.326663 0.887024 0.343384
C5    C     C_R   0.292413 0.456798 0.095147 0.458089
C6    C     C_R   0.633171 0.298005 0.920274 0.435330
C7    C     C_2   0.091407 0.867441 0.491119 -0.368977
C8    C     C_2   0.914673 0.135372 0.523596 -0.379956
C9    C     C_2   0.024819 0.945568 0.534590 0.188421
C10   C     C_2   0.971461 0.050384 0.478455 0.188370
C11   C     C_2   0.424641 0.536156 0.492178 0.418904
C12   C     C_2   0.565833 0.532805 0.471360 0.372273
C13   C     C_R   0.095072 0.512127 0.685861 0.900576
C14   C     C_R   0.902974 0.477658 0.314581 0.907214
C15   C     C_R   0.144920 0.505845 0.793514 -0.239927
C16   C     C_R   0.843319 0.435934 0.209231 -0.255729
C17   C     C_R   0.113450 0.505269 0.963271 -0.117884
C18   C     C_R   0.835566 0.316917 0.052768 -0.129051
C19   C     C_R   0.060424 0.510822 0.862885 0.330168
C20   C     C_R   0.900521 0.352962 0.150871 0.362970
C21   C     C_R   0.280177 0.489149 0.827894 0.391264
C22   C     C_R   0.718641 0.472101 0.167612 0.431683
C23   C     C_R   0.320234 0.449252 0.923757 -0.124508
C24   C     C_R   0.640671 0.407104 0.079739 -0.137000
C25   C     C_R   0.242452 0.472305 0.994800 -0.093376
C26   C     C_R   0.704266 0.341882 0.016397 -0.072726
C27   C     C_R   0.440653 0.396405 0.952499 -0.116137
C28   C     C_R   0.501346 0.409102 0.052732 -0.135471
H1    H     H_    0.049061 0.517112 0.015339 0.220497
H2    H     H_    0.884795 0.260925 0.007781 0.220747
H3    H     H_    0.878770 0.117778 0.590981 0.143282
H4    H     H_    0.137599 0.894375 0.429632 0.139098
N1    N     N_2   0.322180 0.446120 0.460900 -0.074662
N2    N     N_2   0.677820 0.553880 0.539100 -0.077012
O1    O     O_R   0.935190 0.693030 0.507870 -0.605708
O2    O     O_R   0.064810 0.306970 0.492130 -0.615864
O3    O     O_R   0.142080 0.658430 0.482770 -0.532392
O4    O     O_R   0.857920 0.341570 0.517230 -0.605586
O5    O     O_R   0.969700 0.527180 0.651960 -0.629885
O6    O     O_R   0.030300 0.472820 0.348040 -0.622767
O7    O     O_R   0.176600 0.492580 0.626860 -0.501244
O8    O     O_R   0.823400 0.507420 0.373140 -0.475540
Zn1   Zn    Zn3+2 0.861850 0.523100 0.516760 0.992991
Zn2   Zn    Zn3+2 0.138150 0.476900 0.483240 1.011152
O9    O     O_3   0.216597 0.482892 0.163754 -0.732419
H5    H     H_    0.268478 0.476121 0.231502 0.368077
O10   O     O_3   0.695670 0.228563 0.861078 -0.792659
H6    H     H_    0.635159 0.204983 0.795710 0.376152
O11   O     O_3   0.678116 0.574766 0.211501 -0.696717
H7    H     H_    0.613404 0.611816 0.161381 0.330846
O12   O     O_3   0.372829 0.519180 0.769203 -0.707028
H8    H     H_    0.462227 0.547908 0.812743 0.339307
O13   O     O_3   0.017212 0.302926 0.185043 -0.721266
H9    H     H_    0.025621 0.290897 0.256018 0.334126
O14   O     O_3   0.925760 0.519022 0.835350 -0.760856
H10   H     H_    0.887324 0.442890 0.790379 0.355619
O15   O     O_3   0.453433 0.371724 0.215392 -0.785252
H11   H     H_    0.522651 0.315099 0.215053 0.354396
O16   O     O_3   0.429016 0.275840 0.795129 -0.783559
H12   H     H_    0.331608 0.263278 0.796041 0.349894
C29   C     C_3   0.974239 0.060525 0.368700 -0.405501
C30   C     C_3   0.882761 0.950780 0.303912 -0.796557
H13   H     H_    0.920019 0.859158 0.318084 0.260186
H14   H     H_    0.778717 0.944341 0.317471 0.264190
H15   H     H_    0.879083 0.967543 0.224723 0.256443
H16   H     H_    0.934496 0.146907 0.341468 0.192081
H17   H     H_    0.078896 0.067405 0.356610 0.205304
C31   C     C_3   0.005927 0.924977 0.640296 -0.372661
C32   C     C_3   0.101888 0.021965 0.714996 -0.856566
H18   H     H_    0.208136 0.012700 0.712587 0.277279
H19   H     H_    0.085052 0.120287 0.699952 0.247238
H20   H     H_    0.086275 0.004458 0.790751 0.260806
H21   H     H_    0.899496 0.927622 0.645672 0.199735
H22   H     H_    0.028765 0.830712 0.663789 0.215588
O17   O     O_3   0.577277 0.524495 0.374527 -0.669032
H23   H     H_    0.494763 0.550639 0.334590 0.339355
O18   O     O_3   0.397609 0.646667 0.533811 -0.716753
H24   H     H_    0.471406 0.715211 0.529882 0.295695
C33   C     C_3   0.672333 0.572191 0.642870 -0.310508
C34   C     C_3   0.631863 0.447125 0.684869 -0.766007
H25   H     H_    0.652573 0.460858 0.766587 0.267496
H26   H     H_    0.522590 0.415436 0.658495 0.297412
H27   H     H_    0.689459 0.373596 0.662803 0.249990
H28   H     H_    0.773398 0.615070 0.684424 0.252016
H29   H     H_    0.604963 0.640984 0.656066 0.196345
C35   C     C_3   0.339709 0.321639 0.423397 -0.294980
C36   C     C_3   0.360886 0.231606 0.506331 -0.815846
H30   H     H_    0.468575 0.244751 0.544314 0.243868
H31   H     H_    0.298071 0.247341 0.561230 0.301083
H32   H     H_    0.333571 0.132223 0.474606 0.235383
H33   H     H_    0.246961 0.282786 0.368374 0.217943
H34   H     H_    0.424516 0.324655 0.384701 0.237188

loop_
_geom_bond_atom_site_label_1
_geom_bond_atom_site_label_2
_ccdc_geom_bond_type
O14   H10   S    
C17   H1    S    
C18   C26   A    
C21   O12   S    
N1    C35   S    
C13   O7    A    
O18   H24   S    
C15   C19   A    
C3    C28   A    
C24   C26   A    
C35   H33   S    
C33   H28   S    
C19   O14   S    
C32   H19   S    
C2    O4    A    
C30   H14   S    
C11   O18   S    
C36   H32   S    
C29   H16   S    
C31   C32   S    
C18   H2    S    
C23   C27   A    
O1    Zn1   S    
C9    C10   S    
C18   C20   A    
C1    O3    A    
C14   O8    A    
O16   H12   S    
C8    H3    S    
C32   H18   S    
C34   H27   S    
C6    O10   S    
O12   H8    S    
C11   N1    D    
C4    C6    A    
C35   C36   S    
C20   O13   S    
O5    Zn1   S    
C31   H21   S    
O13   H9    S    
C5    O9    S    
C32   H20   S    
O17   H23   S    
C30   H13   S    
N2    C33   S    
C29   H17   S    
O10   H6    S    
C15   C21   A    
C16   C20   A    
C22   O11   S    
C5    C25   A    
C3    O15   S    
C34   H26   S    
C13   C15   S    
O7    Zn2   S    
C14   C16   S    
O2    Zn2   S    
C10   C29   S    
O8    Zn1   S    
C12   N2    D    
C33   H29   S    
C4    C27   A    
C1    O1    A    
C2    O2    A    
C7    C9    D    
C16   C22   A    
C7    H4    S    
C30   H15   S    
C1    C7    S    
N1    Zn2   S    
C2    C8    S    
N2    Zn1   S    
C24   C28   A    
C34   H25   S    
C3    C5    A    
C11   C12   S    
C17   C25   A    
O3    Zn2   S    
C21   C23   A    
C9    C31   S    
O4    Zn1   S    
C35   H34   S    
O15   H11   S    
C6    C26   A    
C4    O16   S    
C17   C19   A    
C22   C24   A    
C23   C25   A    
C29   C30   S    
C13   O5    A    
C14   O6    A    
C33   C34   S    
O9    H5    S    
O6    Zn2   S    
C36   H30   S    
C8    C10   D    
O11   H7    S    
C12   O17   S    
C27   C28   A    
C36   H31   S    
C31   H22   S    
