data_mof_unit_46614.cif
_audit_creation_date              2012-12-11T15:14:42-0500
_audit_creation_method            fapswitch 2.2
_symmetry_space_group_name_H-M    P1
_symmetry_Int_Tables_number       1
_space_group_crystal_system       triclinic
_cell_length_a                    22.319697
_cell_length_b                    7.244193
_cell_length_c                    19.206952
_cell_angle_alpha                 89.997777
_cell_angle_beta                  99.046652
_cell_angle_gamma                 89.997556
_cell_volume                      3066.90645244

loop_
_atom_site_label
_atom_site_type_symbol
_atom_type_description
_atom_site_fract_x
_atom_site_fract_y
_atom_site_fract_z
_atom_type_partial_charge
O1    O     O_R   0.448470 0.506130 0.415700 -0.532494
O2    O     O_R   0.551530 0.006130 0.584300 -0.532507
O3    O     O_R   0.436320 0.174490 0.555800 -0.526828
O4    O     O_R   0.563680 0.674490 0.444200 -0.526804
C1    C     C_R   0.421400 0.344142 0.575360 0.695506
C2    C     C_R   0.578600 0.844141 0.424639 0.695498
O5    O     O_R   0.441350 0.176340 0.414480 -0.531507
O6    O     O_R   0.558650 0.676340 0.585520 -0.531493
O7    O     O_R   0.556600 0.007100 0.441970 -0.527193
O8    O     O_R   0.443400 0.507100 0.558030 -0.527161
C3    C     C_R   0.427686 0.344737 0.388769 0.721836
C4    C     C_R   0.572314 0.844724 0.611233 0.721841
O9    O     O_3   0.537810 0.339550 0.509190 -0.373067
O10   O     O_3   0.462190 0.839550 0.490810 -0.373064
V1    V     V_3+5 0.492990 0.064280 0.498300 1.521974
V2    V     V_3+5 0.507010 0.564280 0.501700 1.522042
C5    C     C_R   0.862621 0.008058 0.697889 -0.130762
C6    C     C_R   0.137324 0.507288 0.302160 -0.130758
H1    H     H_    0.948359 0.054258 0.762570 0.133799
H2    H     H_    0.051580 0.553532 0.237489 0.133797
H3    H     H_    0.781839 0.986126 0.581814 0.153225
H4    H     H_    0.218087 0.484898 0.418240 0.153297
H5    H     H_    0.879735 0.050239 0.650550 0.148659
H6    H     H_    0.120184 0.549104 0.349525 0.148685
C7    C     C_R   0.882908 0.944030 0.822933 -0.094805
C8    C     C_R   0.117088 0.443947 0.177064 -0.094804
C9    C     C_R   0.586357 0.838344 0.742129 0.086065
C10   C     C_R   0.413665 0.338927 0.257872 0.086027
C11   C     C_R   0.622563 0.863069 0.808120 0.195708
C12   C     C_R   0.377465 0.363919 0.191891 0.195711
C13   C     C_R   0.684841 0.892129 0.812880 -0.149508
C14   C     C_R   0.315175 0.392755 0.187136 -0.149516
C15   C     C_R   0.714055 0.888310 0.753019 0.056647
C16   C     C_R   0.285947 0.388431 0.246985 0.056647
C17   C     C_R   0.676423 0.881413 0.685493 0.025896
C18   C     C_R   0.323566 0.381249 0.314515 0.025889
C19   C     C_R   0.778737 0.909588 0.757737 0.031791
C20   C     C_R   0.221259 0.409501 0.242263 0.031778
C21   C     C_R   0.801696 0.957704 0.695130 0.079494
C22   C     C_R   0.198267 0.457138 0.304899 0.079454
C23   C     C_R   0.763873 0.955042 0.629759 -0.137706
C24   C     C_R   0.236075 0.454192 0.370278 -0.137728
C25   C     C_R   0.702828 0.910683 0.624683 -0.142628
C26   C     C_R   0.297137 0.410028 0.375337 -0.142608
C27   C     C_R   0.822085 0.885148 0.820942 0.300579
C28   C     C_R   0.177933 0.385291 0.179028 0.300576
C29   C     C_R   0.901969 0.008821 0.761575 -0.221244
C30   C     C_R   0.097989 0.508290 0.238464 -0.221377
C31   C     C_R   0.612702 0.852764 0.680297 -0.167025
C32   C     C_R   0.387299 0.352848 0.319706 -0.167015
H7    H     H_    0.708890 0.929404 0.863935 0.208866
H8    H     H_    0.291123 0.430262 0.136107 0.208866
H9    H     H_    0.675921 0.907788 0.572619 0.105739
H10   H     H_    0.324033 0.406899 0.427404 0.105689
C33   C     C_3   0.772767 0.804517 0.305462 0.428827
C34   C     C_3   0.227236 0.304537 0.694540 0.428818
C35   C     C_3   0.797656 0.990513 0.282914 -0.245055
C36   C     C_3   0.202347 0.490532 0.717091 -0.245071
H11   H     H_    0.837735 0.065003 0.311094 0.188891
H12   H     H_    0.162267 0.565040 0.688913 0.188894
C37   C     C_1   0.874759 0.942134 0.120434 -0.126117
C38   C     C_1   0.125242 0.442129 0.879569 -0.126051
C39   C     C_1   0.624186 0.852517 0.378554 -0.097843
C40   C     C_1   0.375814 0.352521 0.621446 -0.097841
C41   C     C_3   0.766067 0.731742 0.228777 -0.221793
C42   C     C_3   0.233936 0.231736 0.771224 -0.221777
C43   C     C_3   0.790107 0.918882 0.206133 -0.071256
C44   C     C_3   0.209897 0.418876 0.793872 -0.071265
C45   C     C_3   0.700360 0.809919 0.214668 0.142211
C46   C     C_3   0.299644 0.309894 0.785333 0.142204
C47   C     C_3   0.707617 0.879925 0.291447 -0.097169
C48   C     C_3   0.292385 0.379925 0.708555 -0.097165
C49   C     C_3   0.725044 0.995785 0.191904 0.384908
C50   C     C_3   0.274960 0.495759 0.808100 0.384934
C51   C     C_3   0.731773 0.066017 0.268655 0.117410
C52   C     C_3   0.268230 0.566016 0.731350 0.117410
C53   C     C_1   0.836424 0.933702 0.158814 0.107245
C54   C     C_1   0.163579 0.433695 0.841189 0.107275
C55   C     C_1   0.661896 0.862374 0.339458 0.150918
C56   C     C_1   0.338105 0.362376 0.660543 0.150921
H13   H     H_    0.780469 0.593596 0.212617 0.195451
H14   H     H_    0.219535 0.093590 0.787383 0.195452
O11   O     O_R   0.056650 0.288730 0.942060 -0.529476
O12   O     O_R   0.943350 0.788730 0.057940 -0.529471
O13   O     O_R   0.058660 0.616870 0.085540 -0.541493
O14   O     O_R   0.941340 0.116870 0.914460 -0.541495
C57   C     C_R   0.073049 0.448785 0.110796 0.749045
C58   C     C_R   0.926948 0.948798 0.889204 0.748990
O15   O     O_R   0.063700 0.618520 0.944220 -0.536578
O16   O     O_R   0.936300 0.118520 0.055780 -0.536580
O17   O     O_R   0.948460 0.787610 0.915680 -0.518633
O18   O     O_R   0.051540 0.287610 0.084320 -0.518697
C59   C     C_R   0.078980 0.450235 0.924857 0.725325
C60   C     C_R   0.921020 0.950236 0.075144 0.725231
O19   O     O_3   0.962230 0.453430 0.990860 -0.367601
O20   O     O_3   0.037770 0.953430 0.009140 -0.367655
V3    V     V_3+5 0.007010 0.728750 0.001700 1.545097
V4    V     V_3+5 0.992990 0.228750 0.998300 1.545094
Cl1   Cl    Cl    0.806345 0.682656 0.382284 -0.586138
Cl2   Cl    Cl    0.193658 0.182705 0.617717 -0.586194
I1    I     I_    0.701517 0.322084 0.304950 -0.247683
I2    I     I_    0.298489 0.822082 0.695057 -0.247683
Cl3   Cl    Cl    0.693856 0.126500 0.116211 -0.487332
Cl4   Cl    Cl    0.306149 0.626443 0.883794 -0.487266
I3    I     I_    0.622739 0.673057 0.158061 -0.059120
I4    I     I_    0.377269 0.172998 0.841929 -0.059121
Cl5   Cl    Cl    0.806317 0.753413 0.893686 -0.635894
Cl6   Cl    Cl    0.193760 0.254044 0.106193 -0.635868
I5    I     I_    0.491032 0.789629 0.735219 -0.230674
I6    I     I_    0.509008 0.290542 0.264776 -0.230624
I7    I     I_    0.586437 0.865642 0.904108 -0.066473
I8    I     I_    0.413615 0.367271 0.095923 -0.066377

loop_
_geom_bond_atom_site_label_1
_geom_bond_atom_site_label_2
_ccdc_geom_bond_type
C42   C44   S    
C9    C11   A    
C49   C51   S    
C43   C53   S    
C48   C52   S    
O2    C4    A    
C2    O7    A    
C47   C55   S    
C4    C31   S    
O19   V4    S    
C36   C52   S    
C21   C23   A    
C39   C55   T    
O5    C3    A    
C5    H5    S    
C50   C52   S    
C6    H6    S    
O12   V3    S    
O14   C58   A    
C35   H11   S    
C41   C43   S    
C44   C50   S    
O11   C59   A    
C5    C21   A    
C45   C47   S    
C6    C22   A    
C14   H8    S    
C10   C32   A    
C25   H9    S    
C37   C53   T    
C8    C57   S    
C34   C48   S    
O11   V4    S    
C28   Cl6   S    
C46   C50   S    
C13   C15   A    
C45   C49   S    
C43   C49   S    
C12   C14   A    
C17   C25   A    
C7    C29   A    
C16   C18   A    
C8    C30   A    
H4    C24   S    
C22   C24   A    
O6    V2    S    
C57   O18   A    
C52   I2    S    
C40   C56   T    
C33   Cl1   S    
C34   C42   S    
C24   C26   A    
C35   C43   S    
C33   C41   S    
C11   I7    S    
O16   C60   A    
O13   C57   A    
C44   C54   S    
C47   C51   S    
O18   V4    S    
O4    C2    A    
C46   I4    S    
C45   I3    S    
C37   C60   S    
C10   I6    S    
C7    C58   S    
C15   C19   A    
C48   C56   S    
C1    C40   S    
C12   I8    S    
C14   C16   A    
C2    C39   S    
O4    V2    S    
C17   C31   A    
C42   H14   S    
C41   H13   S    
C58   O17   A    
O6    C4    A    
O20   V3    S    
O1    V2    S    
O12   C60   A    
O17   V3    S    
O2    V1    S    
H2    C30   S    
H3    C23   S    
C36   C44   S    
C33   C35   S    
C18   C26   A    
C34   Cl2   S    
C19   C27   A    
C7    C27   A    
C18   C32   A    
C9    C31   A    
C50   Cl4   S    
C16   C20   A    
C38   C54   T    
C23   C25   A    
C5    C29   A    
C13   H7    S    
O3    C1    A    
C6    C30   A    
C38   C59   S    
C35   C51   S    
C10   C12   A    
O7    V1    S    
C1    O8    A    
C19   C21   A    
C3    C32   S    
O8    V2    S    
C20   C22   A    
C42   C46   S    
C41   C45   S    
O5    V1    S    
C15   C17   A    
C34   C36   S    
H1    C29   S    
O15   C59   A    
O14   V4    S    
C20   C28   A    
O13   V3    S    
C8    C28   A    
C26   H10   S    
C49   Cl3   S    
C9    I5    S    
C11   C13   A    
O9    V2    S    
O15   V3    S    
C51   I1    S    
O10   V1    S    
O3    V1    S    
C46   C48   S    
O1    C3    A    
C36   H12   S    
O16   V4    S    
C33   C47   S    
C27   Cl5   S    
