data_mof_unit_44119.cif
_audit_creation_date              2012-10-26T20:07:00-0400
_audit_creation_method            fapswitch 2.2
_symmetry_space_group_name_H-M    P1
_symmetry_Int_Tables_number       1
_space_group_crystal_system       triclinic
_cell_length_a                    10.830006
_cell_length_b                    9.509194
_cell_length_c                    27.807612
_cell_angle_alpha                 90.005647
_cell_angle_beta                  90.153717
_cell_angle_gamma                 90.00343
_cell_volume                      2863.74625405

loop_
_atom_site_label
_atom_site_type_symbol
_atom_type_description
_atom_site_fract_x
_atom_site_fract_y
_atom_site_fract_z
_atom_type_partial_charge
C1    C     C_R   0.262032 0.499998 0.499968 0.554471
C2    C     C_R   0.388631 0.510891 0.872287 0.024236
C3    C     C_R   0.499605 0.499961 0.354435 0.005796
C4    C     C_R   0.500405 0.500006 0.645561 0.005693
C5    C     C_R   0.386135 0.506026 0.974319 0.018940
C6    C     C_R   0.614042 0.500041 0.025726 0.018987
C7    C     C_R   0.614047 0.493446 0.974649 0.018956
C8    C     C_R   0.385861 0.499388 0.025395 0.019002
C9    C     C_R   0.500160 0.499754 0.949230 0.034120
C10   C     C_R   0.499882 0.499714 0.050815 0.034118
C11   C     C_R   0.275957 0.519867 0.947202 -0.139790
C12   C     C_R   0.737968 0.500002 0.500032 0.554473
C13   C     C_R   0.724665 0.508069 0.052847 -0.139625
C14   C     C_R   0.277455 0.522053 0.897268 -0.111035
C15   C     C_R   0.723259 0.510246 0.102781 -0.110970
C16   C     C_R   0.499873 0.499992 0.407400 0.554465
C17   C     C_R   0.500129 0.500004 0.592598 0.554467
C18   C     C_R   0.275091 0.491339 0.052192 -0.139689
C19   C     C_R   0.724373 0.479641 0.947849 -0.139851
C20   C     C_R   0.063851 0.372189 0.499975 -0.132090
C21   C     C_R   0.936148 0.627811 0.500025 -0.132126
C22   C     C_R   0.936136 0.372191 0.500027 -0.132077
C23   C     C_R   0.499741 0.499723 0.101956 -0.027193
C24   C     C_R   0.063864 0.627809 0.499974 -0.132114
C25   C     C_R   0.871793 0.500002 0.500039 0.023079
C26   C     C_R   0.128207 0.499998 0.499961 0.023078
C27   C     C_R   0.422858 0.074439 0.470223 0.011898
C28   C     C_R   0.577146 0.925563 0.529775 0.011543
C29   C     C_R   0.577143 0.074465 0.529777 0.011943
C30   C     C_R   0.422854 0.925537 0.470224 0.011527
C31   C     C_R   0.389564 0.494253 0.177923 0.398734
C32   C     C_R   0.610132 0.488541 0.822119 0.398622
C33   C     C_R   0.609504 0.505279 0.178240 0.399257
C34   C     C_R   0.500301 0.499798 0.898088 -0.027150
C35   C     C_R   0.390882 0.511214 0.821806 0.399138
C36   C     C_R   0.511440 0.626589 0.278733 -0.056007
C37   C     C_R   0.487158 0.626486 0.721259 -0.055862
C38   C     C_R   0.511270 0.626861 0.328883 -0.141190
C39   C     C_R   0.487358 0.626735 0.671110 -0.141491
C40   C     C_R   0.487663 0.373029 0.328887 -0.140289
C41   C     C_R   0.513744 0.373271 0.671106 -0.140508
C42   C     C_R   0.487270 0.373201 0.278737 -0.055561
C43   C     C_R   0.514192 0.373474 0.721256 -0.055373
C44   C     C_R   0.499347 0.499865 0.253597 0.246521
C45   C     C_R   0.387593 0.494580 0.127434 0.024332
C46   C     C_R   0.500690 0.499962 0.746413 0.245542
C47   C     C_R   0.612110 0.488756 0.872608 0.024433
C48   C     C_R   0.276223 0.489183 0.102131 -0.111087
C49   C     C_R   0.723148 0.477542 0.897910 -0.111155
C50   C     C_R   0.611749 0.504883 0.127759 0.024130
Cu1   Cu    Cu3+1 0.500000 0.640660 0.500000 0.943804
Cu2   Cu    Cu3+1 0.500000 0.359340 0.500000 0.944760
H1    H     H_    0.478224 0.273731 0.347593 0.127878
H2    H     H_    0.810247 0.466991 0.879169 0.167280
H3    H     H_    0.476792 0.725916 0.652404 0.130653
H4    H     H_    0.520732 0.726200 0.347584 0.130488
H5    H     H_    0.476783 0.724544 0.740633 0.127282
H6    H     H_    0.520750 0.724758 0.259348 0.126136
H7    H     H_    0.190459 0.532639 0.878277 0.167566
H8    H     H_    0.810591 0.516239 0.121776 0.167373
H9    H     H_    0.186440 0.532160 0.963393 0.106861
H10   H     H_    0.814585 0.515695 0.036658 0.106462
H11   H     H_    0.111898 0.272272 0.499951 0.130021
H12   H     H_    0.524274 0.274115 0.652396 0.127751
H13   H     H_    0.888102 0.727728 0.500049 0.129964
H14   H     H_    0.888081 0.272272 0.500054 0.130023
H15   H     H_    0.111919 0.727728 0.499948 0.129966
H16   H     H_    0.185262 0.483690 0.035741 0.106381
H17   H     H_    0.813801 0.467324 0.964297 0.106773
H18   H     H_    0.361096 0.130627 0.446377 0.108698
H19   H     H_    0.638916 0.869377 0.553618 0.110282
H20   H     H_    0.638905 0.130672 0.553622 0.108636
H21   H     H_    0.361085 0.869332 0.446382 0.110261
H22   H     H_    0.477903 0.274991 0.259354 0.125878
H23   H     H_    0.524634 0.275394 0.740628 0.127000
H24   H     H_    0.188787 0.483191 0.120871 0.167077
N1    N     N_R   0.499468 0.499792 0.202113 -0.400259
N2    N     N_R   0.500572 0.499907 0.797915 -0.400002
N3    N     N_R   0.500000 0.852070 0.500000 -0.225608
N4    N     N_R   0.500000 0.147930 0.500000 -0.224916
O1    O     O_R   0.319640 0.618740 0.500000 -0.507938
O2    O     O_2   0.716758 0.477861 0.797370 -0.487911
O3    O     O_2   0.284387 0.521939 0.796753 -0.486505
O4    O     O_2   0.716289 0.510496 0.203311 -0.485806
O5    O     O_R   0.680360 0.381260 0.500000 -0.507832
O6    O     O_R   0.680360 0.618740 0.500000 -0.507903
O7    O     O_R   0.319640 0.381260 0.500000 -0.507798
O8    O     O_R   0.500020 0.618770 0.430260 -0.503998
O9    O     O_R   0.499980 0.381230 0.569740 -0.503377
O10   O     O_R   0.499980 0.618770 0.569740 -0.504020
O11   O     O_R   0.500020 0.381230 0.430260 -0.503422
O12   O     O_2   0.282646 0.489064 0.202685 -0.487223

loop_
_geom_bond_atom_site_label_1
_geom_bond_atom_site_label_2
_ccdc_geom_bond_type
C2    C35   A    
C1    O7    A    
C23   C45   A    
C15   H8    S    
C48   H24   S    
C47   C49   A    
C14   H7    S    
C12   O5    A    
C28   C29   A    
C24   C26   A    
C5    C11   A    
C36   H6    S    
Cu1   O10   S    
C11   C14   A    
C4    C41   A    
C18   H16   S    
C49   H2    S    
C15   C50   A    
C28   N3    A    
C22   H14   S    
C24   H15   S    
C39   H3    S    
C13   H10   S    
C3    C38   A    
C22   C25   A    
Cu1   O1    S    
C29   H20   S    
C2    C34   A    
C40   C42   A    
C27   C30   A    
C41   C43   A    
Cu2   O9    S    
C42   C44   A    
Cu1   O6    S    
C43   C46   A    
C31   N1    A    
C43   H23   S    
C42   H22   S    
Cu1   Cu2   S    
C17   O9    A    
C27   N4    A    
C46   N2    S    
C30   H21   S    
C35   O3    S    
C23   C50   A    
C33   C50   A    
C8    C18   A    
C5    C9    A    
C19   C49   A    
C4    C39   A    
C27   H18   S    
C30   N3    A    
Cu2   O5    S    
C3    C40   A    
C31   O12   S    
C7    C19   A    
C13   C15   A    
C9    C34   A    
C32   C47   A    
C36   C44   A    
C28   H19   S    
C4    C17   S    
C45   C48   A    
C7    C9    A    
C21   C25   A    
C44   N1    S    
C21   H13   S    
Cu2   O7    S    
C17   O10   A    
C20   C22   A    
C11   H9    S    
C18   C48   A    
Cu1   O8    S    
C6    C10   A    
C5    C8    A    
C6    C7    A    
C10   C23   A    
C32   O2    S    
C35   N2    A    
C12   O6    A    
C12   C25   S    
C20   H11   S    
C36   C38   A    
C37   C39   A    
C6    C13   A    
C33   N1    A    
C1    C26   S    
C29   N4    A    
C20   C26   A    
C2    C14   A    
C33   O4    S    
Cu1   N3    S    
C19   H17   S    
C32   N2    A    
C38   H4    S    
C16   O11   A    
C8    C10   A    
C40   H1    S    
C31   C45   A    
C21   C24   A    
C16   O8    A    
Cu2   O11   S    
C34   C47   A    
C41   H12   S    
C37   C46   A    
Cu2   N4    S    
C1    O1    A    
C37   H5    S    
C3    C16   S    
