data_mof_unit_21188.cif
_audit_creation_date              2012-12-11T17:44:04-0500
_audit_creation_method            fapswitch 2.2
_symmetry_space_group_name_H-M    P1
_symmetry_Int_Tables_number       1
_space_group_crystal_system       triclinic
_cell_length_a                    20.230038
_cell_length_b                    22.763272
_cell_length_c                    6.936226
_cell_angle_alpha                 89.99747
_cell_angle_beta                  86.485666
_cell_angle_gamma                 90.000043
_cell_volume                      3188.13834668

loop_
_atom_site_label
_atom_site_type_symbol
_atom_type_description
_atom_site_fract_x
_atom_site_fract_y
_atom_site_fract_z
_atom_type_partial_charge
O1    O     O_R   0.751270 0.447300 0.600030 -0.540104
O2    O     O_R   0.248730 0.947300 0.399970 -0.540098
O3    O     O_R   0.613530 0.440160 0.952150 -0.541362
O4    O     O_R   0.386470 0.940160 0.047850 -0.541355
O5    O     O_R   0.613050 0.552700 0.122560 -0.537157
O6    O     O_R   0.386950 0.052700 0.877440 -0.537161
C1    C     C_R   0.591494 0.425405 0.787282 0.683148
C2    C     C_R   0.408504 0.925404 0.212727 0.683167
O7    O     O_R   0.750780 0.440350 0.929820 -0.545905
O8    O     O_R   0.249220 0.940350 0.070180 -0.545917
O9    O     O_R   0.751280 0.552900 0.100070 -0.515208
O10   O     O_R   0.248720 0.052900 0.899930 -0.515277
C3    C     C_R   0.774264 0.426514 0.756811 0.721928
C4    C     C_R   0.225737 0.926513 0.243194 0.721880
O11   O     O_R   0.613040 0.447100 0.622520 -0.539779
O12   O     O_R   0.386960 0.947100 0.377480 -0.539774
O13   O     O_3   0.682160 0.536920 0.777780 -0.344191
O14   O     O_3   0.317840 0.036920 0.222220 -0.344217
V1    V     V_3+5 0.682160 0.493150 0.052630 1.455123
V2    V     V_3+5 0.317840 0.993150 0.947370 1.455045
O15   O     O_R   0.750790 0.559840 0.429870 -0.522822
O16   O     O_R   0.249210 0.059840 0.570130 -0.522807
C5    C     C_R   0.774591 0.573433 0.256361 0.727562
C6    C     C_R   0.225408 0.073431 0.743632 0.727529
O17   O     O_R   0.613540 0.559650 0.452200 -0.540572
O18   O     O_R   0.386460 0.059650 0.547800 -0.540565
C7    C     C_R   0.591846 0.574665 0.287238 0.679139
C8    C     C_R   0.408153 0.074666 0.712753 0.679147
V3    V     V_3+5 0.682160 0.506850 0.552630 1.474533
V4    V     V_3+5 0.317840 0.006850 0.447370 1.474516
O19   O     O_3   0.682150 0.463080 0.277610 -0.379564
O20   O     O_3   0.317850 0.963080 0.722390 -0.379550
C9    C     C_R   0.580077 0.860800 0.170902 -0.162284
C10   C     C_R   0.419938 0.360774 0.829721 -0.162363
H1    H     H_    0.538742 0.947121 0.149575 0.106288
H2    H     H_    0.461273 0.447094 0.851062 0.106296
H3    H     H_    0.671422 0.777303 0.168661 0.121895
H4    H     H_    0.328602 0.277264 0.832278 0.122051
H5    H     H_    0.630231 0.876756 0.142827 0.112883
H6    H     H_    0.369792 0.376717 0.858095 0.112971
C11   C     C_R   0.462865 0.882124 0.211441 -0.037753
C12   C     C_R   0.537133 0.382123 0.788614 -0.037763
C13   C     C_R   0.472640 0.595894 0.325434 -0.167520
C14   C     C_R   0.527348 0.095914 0.674147 -0.167497
C15   C     C_R   0.418577 0.633656 0.332163 -0.118945
C16   C     C_R   0.581405 0.133684 0.667239 -0.118948
C17   C     C_R   0.427378 0.693820 0.303685 -0.156451
C18   C     C_R   0.572607 0.193841 0.695874 -0.156462
C19   C     C_R   0.491309 0.718123 0.267275 0.076974
C20   C     C_R   0.508687 0.218128 0.732635 0.076983
C21   C     C_R   0.546830 0.678883 0.259801 0.068818
C22   C     C_R   0.453172 0.178879 0.740320 0.068823
C23   C     C_R   0.501928 0.779936 0.238191 0.074531
C24   C     C_R   0.498071 0.279935 0.761863 0.074556
C25   C     C_R   0.567796 0.800708 0.201808 0.140635
C26   C     C_R   0.432214 0.300691 0.798629 0.140634
C27   C     C_R   0.621153 0.761521 0.195934 -0.206272
C28   C     C_R   0.378863 0.261495 0.804711 -0.206404
C29   C     C_R   0.610971 0.701682 0.224499 -0.192496
C30   C     C_R   0.389042 0.201662 0.775983 -0.192526
C31   C     C_R   0.449768 0.822098 0.243344 -0.215592
C32   C     C_R   0.550224 0.322106 0.756504 -0.215606
C33   C     C_R   0.528078 0.901017 0.174856 -0.170797
C34   C     C_R   0.471932 0.400998 0.825595 -0.170773
C35   C     C_R   0.536839 0.617526 0.289112 -0.082901
C36   C     C_R   0.463159 0.117530 0.710833 -0.082930
H7    H     H_    0.398577 0.809899 0.270346 0.092353
H8    H     H_    0.601407 0.309919 0.729220 0.092363
H9    H     H_    0.464352 0.549325 0.348800 0.105212
H10   H     H_    0.535632 0.049352 0.650621 0.105221
H11   H     H_    0.383022 0.720067 0.311304 0.108801
H12   H     H_    0.616958 0.220095 0.688092 0.108798
H13   H     H_    0.369173 0.616113 0.360160 0.120315
H14   H     H_    0.630802 0.116153 0.638966 0.120316
H15   H     H_    0.654010 0.673300 0.218518 0.110321
H16   H     H_    0.346007 0.173273 0.782132 0.110393
C37   C     C_R   0.169621 0.884104 0.263721 -0.053182
C38   C     C_R   0.830386 0.384111 0.736297 -0.053193
C39   C     C_R   0.143552 0.858261 0.100413 -0.222335
C40   C     C_R   0.856460 0.358272 0.899613 -0.222314
C41   C     C_R   0.090185 0.819019 0.120427 -0.154801
C42   C     C_R   0.909834 0.319037 0.879611 -0.154847
C43   C     C_R   0.061355 0.804674 0.305380 0.409189
C44   C     C_R   0.938667 0.304697 0.694662 0.409230
C45   C     C_R   0.087229 0.830704 0.467470 -0.184442
C46   C     C_R   0.912786 0.330722 0.532564 -0.184328
C47   C     C_R   0.140646 0.869788 0.447536 -0.200874
C48   C     C_R   0.859363 0.369798 0.552487 -0.200918
C49   C     C_R   0.887355 0.701445 0.370657 0.435519
C50   C     C_R   0.112649 0.201450 0.629307 0.435548
C51   C     C_R   0.837003 0.658488 0.383495 -0.291803
C52   C     C_R   0.162988 0.158479 0.616447 -0.291788
C53   C     C_R   0.934984 0.700432 0.211800 0.325477
C54   C     C_R   0.065045 0.200456 0.788232 0.325495
N1    N     N_2   0.007086 0.764694 0.335533 -0.242362
N2    N     N_2   0.992937 0.264720 0.664514 -0.242261
N3    N     N_2   0.988775 0.741021 0.185393 -0.302231
N4    N     N_2   0.011261 0.241054 0.814656 -0.302146
C55   C     C_R   0.829720 0.617157 0.235332 -0.145350
C56   C     C_R   0.170283 0.117158 0.764646 -0.145439
H17   H     H_    0.802629 0.658232 0.509521 0.178978
H18   H     H_    0.197334 0.158190 0.490362 0.179021
H19   H     H_    0.065884 0.820517 0.610588 0.128574
H20   H     H_    0.934132 0.320536 0.389447 0.128585
H21   H     H_    0.159019 0.888969 0.576715 0.130193
H22   H     H_    0.840987 0.388975 0.423301 0.130193
C57   C     C_R   0.876164 0.618261 0.072924 -0.031656
C58   C     C_R   0.123859 0.118277 0.927092 -0.031671
C59   C     C_R   0.927941 0.659237 0.065167 -0.293415
C60   C     C_R   0.072097 0.159267 0.934890 -0.293445
H23   H     H_    0.071705 0.800156 0.990973 0.139359
H24   H     H_    0.928317 0.300176 0.009069 0.139363
H25   H     H_    0.963716 0.659217 0.942064 0.158080
H26   H     H_    0.036337 0.159256 0.058027 0.158133
H27   H     H_    0.164323 0.868348 0.956632 0.130126
H28   H     H_    0.835688 0.368357 0.043392 0.130123
O21   O     O_3   0.892080 0.742120 0.517908 -0.553714
C61   C     C_3   0.838662 0.782416 0.518826 0.085071
H29   H     H_    0.833927 0.802967 0.664303 0.146668
H30   H     H_    0.790112 0.761027 0.497393 0.096842
C62   C     C_3   0.852301 0.831027 0.368399 -0.298828
H31   H     H_    0.899639 0.853374 0.396181 0.215119
H32   H     H_    0.856943 0.811583 0.221255 0.189849
C63   C     C_3   0.796520 0.876252 0.375741 -0.854162
H33   H     H_    0.748877 0.854945 0.345113 0.227755
H34   H     H_    0.807714 0.910730 0.265293 0.235013
H35   H     H_    0.791571 0.897371 0.520274 0.234351
O22   O     O_3   0.107893 0.242118 0.482029 -0.553717
C64   C     C_3   0.161397 0.282334 0.480631 0.085242
H36   H     H_    0.165842 0.303058 0.335386 0.146744
H37   H     H_    0.209966 0.260827 0.500814 0.096942
C65   C     C_3   0.148200 0.330786 0.631886 -0.299367
H38   H     H_    0.100772 0.353191 0.605542 0.215301
H39   H     H_    0.143972 0.311182 0.778840 0.189427
C66   C     C_3   0.204009 0.375989 0.623716 -0.854038
H40   H     H_    0.251767 0.354611 0.652684 0.227886
H41   H     H_    0.193180 0.410313 0.734930 0.234935
H42   H     H_    0.208504 0.397315 0.479458 0.234357
C67   C     C_2   0.875629 0.575840 0.912006 0.395150
H43   H     H_    0.916949 0.545890 0.886232 0.020639
O23   O     O_2   0.831646 0.576825 0.799329 -0.515539
C68   C     C_2   0.124389 0.075838 0.087971 0.395223
H44   H     H_    0.083112 0.045828 0.113536 0.020588
O24   O     O_2   0.168324 0.076859 0.200801 -0.515605

loop_
_geom_bond_atom_site_label_1
_geom_bond_atom_site_label_2
_ccdc_geom_bond_type
C9    C25   A    
C66   H42   S    
C5    C55   S    
C10   C26   A    
C50   C54   A    
C39   H27   S    
C15   C17   A    
O13   V3    S    
C14   C36   A    
C11   C31   A    
O4    C2    A    
V1    O19   S    
O22   C64   S    
C58   C68   S    
C66   H40   S    
C17   C19   A    
O9    V1    S    
C9    H5    S    
C10   H6    S    
C18   H12   S    
O3    C1    A    
C44   N2    S    
C38   C40   A    
C1    C12   S    
C54   N4    S    
C28   C30   A    
C15   H13   S    
C21   C35   A    
C4    C37   S    
O9    C5    A    
O7    C3    A    
C61   H29   S    
C62   C63   S    
C22   C30   A    
O5    C7    A    
C23   C31   A    
O7    V1    S    
O6    C8    A    
C41   H23   S    
O8    V2    S    
C65   H38   S    
C19   C21   A    
N2    N4    D    
C20   C22   A    
O3    V1    S    
O14   V4    S    
C49   C51   A    
C12   C32   A    
O14   V2    S    
C45   H19   S    
C52   H18   S    
C64   C65   S    
C23   C25   A    
C46   H20   S    
C2    O12   A    
H4    C28   S    
C57   C67   S    
C57   C59   A    
C29   H15   S    
C51   H17   S    
O1    V3    S    
C41   C43   A    
C14   C16   A    
O11   V3    S    
C16   C18   A    
C45   C47   A    
O17   V3    S    
C24   C26   A    
C9    C33   A    
C56   C58   A    
C40   H28   S    
C2    C11   S    
C40   C42   A    
O8    C4    A    
C39   C41   A    
C1    O11   A    
C24   C32   A    
O15   V3    S    
C54   C60   A    
C61   C62   S    
C42   H24   S    
C8    C36   S    
C7    C35   S    
C48   H22   S    
C31   H7    S    
C50   C52   A    
C47   H21   S    
C13   C35   A    
C43   N1    S    
O10   V2    S    
C10   C34   A    
C37   C39   A    
C20   C24   A    
C14   H10   S    
C13   C15   A    
C17   H11   S    
C62   H31   S    
C63   H35   S    
C43   C45   A    
C49   O21   S    
O18   V4    S    
C30   H16   S    
O15   C5    A    
O16   C6    A    
O1    C3    A    
C11   C33   A    
C53   N3    S    
C16   H14   S    
C68   O24   D    
C22   C36   A    
C52   C56   A    
C63   H34   S    
C64   H36   S    
V2    O20   S    
C38   C48   A    
C66   H41   S    
C60   H26   S    
C3    C38   S    
O16   V4    S    
C6    C56   S    
O18   C8    A    
C13   H9    S    
C44   C46   A    
C12   C34   A    
C67   H43   S    
N1    N3    D    
O5    V1    S    
C59   H25   S    
O17   C7    A    
C55   C57   A    
O10   C6    A    
C42   C44   A    
C32   H8    S    
O2    V4    S    
C25   C27   A    
V3    O19   S    
O21   C61   S    
V4    O20   S    
C67   O23   D    
C58   C60   A    
O6    V2    S    
C65   C66   S    
C19   C23   A    
C18   C20   A    
O13   V1    S    
C26   C28   A    
C46   C48   A    
C49   C53   A    
O2    C4    A    
C61   H30   S    
C62   H32   S    
C27   C29   A    
O4    V2    S    
C21   C29   A    
C37   C47   A    
C65   H39   S    
C50   O22   S    
C68   H44   S    
H1    C33   S    
C51   C55   A    
H2    C34   S    
O12   V4    S    
H3    C27   S    
C53   C59   A    
C63   H33   S    
C64   H37   S    
