data_mof_unit_35520.cif
_audit_creation_date              2012-12-10T17:45:30-0500
_audit_creation_method            fapswitch 2.2
_symmetry_space_group_name_H-M    P1
_symmetry_Int_Tables_number       1
_space_group_crystal_system       triclinic
_cell_length_a                    11.512508
_cell_length_b                    10.583181
_cell_length_c                    9.981254
_cell_angle_alpha                 93.307485
_cell_angle_beta                  89.658412
_cell_angle_gamma                 91.665348
_cell_volume                      1213.55589209

loop_
_atom_site_label
_atom_site_type_symbol
_atom_type_description
_atom_site_fract_x
_atom_site_fract_y
_atom_site_fract_z
_atom_type_partial_charge
C1    C     C_R   0.510446 0.259770 0.496908 0.916176
C2    C     C_R   0.644630 0.071454 0.830085 -0.221415
C3    C     C_R   0.570178 0.969919 0.863697 0.310751
C4    C     C_R   0.497768 0.909167 0.765377 0.381590
C5    C     C_R   0.503751 0.946501 0.631213 -0.128371
C6    C     C_R   0.555806 0.063762 0.607342 0.000022
C7    C     C_R   0.520150 0.123639 0.492232 -0.041942
C8    C     C_R   0.459198 0.055770 0.390552 -0.234846
C9    C     C_R   0.425283 0.930986 0.403114 -0.062565
C10   C     C_R   0.459904 0.872689 0.518448 -0.095573
C11   C     C_R   0.299525 0.414512 0.131916 0.033081
C12   C     C_R   0.282311 0.501259 0.500410 0.970991
C13   C     C_R   0.194534 0.431593 0.066252 -0.230908
C14   C     C_R   0.195098 0.423967 0.926441 -0.201046
C15   C     C_R   0.301322 0.406743 0.859731 0.022744
C16   C     C_R   0.403476 0.454007 0.926079 0.114896
C17   C     C_R   0.402680 0.456824 0.069577 0.022755
C18   C     C_R   0.590684 0.549619 0.072219 0.463195
C19   C     C_R   0.590838 0.547805 0.929973 -0.024292
C20   C     C_R   0.485457 0.739073 0.504859 0.921055
C21   C     C_R   0.717779 0.502039 0.499736 0.944892
C22   C     C_1   0.161806 0.503276 0.500991 -0.032491
C23   C     C_1   0.059533 0.504256 0.500517 0.051681
C24   C     C_1   0.940775 0.504397 0.499561 0.058641
C25   C     C_1   0.838430 0.503680 0.499153 -0.062495
C26   C     C_R   0.637094 0.118552 0.701237 0.327821
H1    H     H_    0.432203 0.102176 0.304806 0.241158
H2    H     H_    0.113868 0.400827 0.875125 0.203001
H3    H     H_    0.664243 0.588618 0.877887 0.175782
H4    H     H_    0.112698 0.413719 0.117007 0.194239
N1    N     N_R   0.498930 0.498800 0.142780 -0.154665
N2    N     N_R   0.498900 0.498720 0.857170 -0.129413
O1    O     O_R   0.500000 0.316780 0.614690 -0.584841
O2    O     O_R   0.499990 0.316750 0.385360 -0.627109
O3    O     O_R   0.334450 0.500030 0.614670 -0.625564
O4    O     O_R   0.334440 0.500000 0.385330 -0.618410
O5    O     O_R   0.500010 0.683250 0.614640 -0.603795
O6    O     O_R   0.500000 0.683220 0.385310 -0.566053
O7    O     O_R   0.665560 0.500000 0.614670 -0.594926
O8    O     O_R   0.665550 0.499970 0.385330 -0.568423
Zn1   Zn    Zn3+2 0.500010 0.500020 0.653130 1.038241
Zn2   Zn    Zn3+2 0.499990 0.499980 0.346870 1.048341
C27   C     C_2   0.304301 0.289183 0.772619 0.979021
O9    O     O_2   0.373152 0.207688 0.796698 -0.596507
O10   O     O_R   0.221410 0.265547 0.671786 -0.806299
H5    H     H_    0.231673 0.180892 0.620820 0.349220
Cl1   Cl    Cl    0.745164 0.226914 0.648112 -0.577876
C28   C     C_2   0.725205 0.133161 0.931123 1.086919
O11   O     O_2   0.784496 0.068827 0.000482 -0.547027
O12   O     O_R   0.733058 0.265295 0.947127 -0.765354
H6    H     H_    0.790415 0.296269 0.019249 0.348993
Cl2   Cl    Cl    0.565616 0.919144 0.029324 -0.434160
Cl3   Cl    Cl    0.380993 0.810751 0.818389 -0.475240
C29   C     C_2   0.345142 0.866971 0.301954 0.990541
O13   O     O_2   0.334398 0.909413 0.191454 -0.505949
O14   O     O_R   0.277484 0.761425 0.335339 -0.817980
H7    H     H_    0.226287 0.726716 0.258676 0.358040
Cl4   Cl    Cl    0.707683 0.629985 0.154009 -0.517189
C30   C     C_2   0.301278 0.291453 0.192414 0.948792
O15   O     O_2   0.355824 0.206601 0.135505 -0.580423
O16   O     O_R   0.229121 0.266588 0.301500 -0.810623
H8    H     H_    0.232869 0.175878 0.328237 0.341191

loop_
_geom_bond_atom_site_label_1
_geom_bond_atom_site_label_2
_ccdc_geom_bond_type
N2    Zn1   S    
O3    Zn1   S    
C6    C7    A    
C9    C29   S    
N1    Zn2   S    
C13   C14   A    
C4    Cl3   S    
C12   O4    A    
C20   O6    A    
C9    C10   A    
O4    Zn2   S    
C21   O7    A    
C23   C24   S    
O1    Zn1   S    
C28   O12   S    
C2    C3    A    
C1    O1    A    
C30   O15   D    
C2    C26   A    
O10   H5    S    
C24   C25   T    
C12   O3    A    
C20   O5    A    
C11   C13   A    
C2    C28   S    
C6    C26   A    
C21   O8    A    
C26   Cl1   S    
C11   C30   S    
C19   N2    A    
O8    Zn2   S    
C28   O11   D    
C1    O2    A    
O12   H6    S    
C22   C23   T    
C27   O9    D    
O5    Zn1   S    
O16   H8    S    
C17   N1    A    
C3    Cl2   S    
C29   O14   S    
C30   O16   S    
C16   N2    A    
C15   C27   S    
C15   C16   A    
C19   H3    S    
O6    Zn2   S    
C12   C22   S    
C13   H4    S    
C7    C8    A    
O14   H7    S    
O7    Zn1   S    
C18   C19   A    
C5    C10   A    
C5    C6    A    
C8    H1    S    
C21   C25   S    
C29   O13   D    
C11   C17   A    
C18   N1    A    
C14   H2    S    
C1    C7    S    
C4    C5    A    
C27   O10   S    
C18   Cl4   S    
C3    C4    A    
C14   C15   A    
C16   C17   A    
C10   C20   S    
C8    C9    A    
O2    Zn2   S    
