data_mof_unit_28412.cif
_audit_creation_date              2012-12-11T15:35:22-0500
_audit_creation_method            fapswitch 2.2
_symmetry_space_group_name_H-M    P1
_symmetry_Int_Tables_number       1
_space_group_crystal_system       triclinic
_cell_length_a                    17.37778
_cell_length_b                    24.216328
_cell_length_c                    14.843351
_cell_angle_alpha                 89.963032
_cell_angle_beta                  124.534536
_cell_angle_gamma                 90.10179
_cell_volume                      5145.73597285

loop_
_atom_site_label
_atom_site_type_symbol
_atom_type_description
_atom_site_fract_x
_atom_site_fract_y
_atom_site_fract_z
_atom_type_partial_charge
C1    C     C_R   0.309171 0.123118 0.909887 -0.127415
C2    C     C_R   0.308984 0.876972 0.910017 -0.128127
C3    C     C_R   0.852481 0.652032 0.908064 -0.133800
C4    C     C_R   0.812966 0.371548 0.911322 -0.122422
C5    C     C_R   0.649165 0.150851 0.093120 -0.101554
C6    C     C_R   0.681499 0.867417 0.091077 -0.112462
C7    C     C_R   0.150954 0.650461 0.093030 -0.113287
C8    C     C_R   0.151416 0.349778 0.092990 -0.118557
C9    C     C_R   0.590918 0.865165 0.909413 -0.132708
C10   C     C_R   0.558595 0.153131 0.911602 -0.143285
C11   C     C_R   0.059948 0.347397 0.911277 -0.142032
C12   C     C_R   0.059585 0.652808 0.911406 -0.141398
C13   C     C_R   0.543207 0.001143 0.716766 0.039168
C14   C     C_R   0.052456 0.500235 0.727561 0.040516
C15   C     C_R   0.824334 0.000504 0.307380 0.082731
C16   C     C_R   0.303231 0.500593 0.361279 0.018297
C17   C     C_R   0.619856 0.184041 0.003792 0.044136
C18   C     C_R   0.677776 0.850874 0.999830 0.041854
C19   C     C_R   0.122102 0.683567 0.003366 0.043569
C20   C     C_R   0.122901 0.316814 0.003205 0.041502
C21   C     C_3   0.064992 0.939229 0.508638 -0.418590
C22   C     C_3   0.044639 0.026925 0.585028 -0.391003
C23   C     C_3   0.525352 0.453507 0.627475 -0.393816
C24   C     C_3   0.529528 0.556578 0.611821 -0.418448
C25   C     C_3   0.961140 0.940023 0.421273 -0.429298
C26   C     C_3   0.941189 0.028092 0.493685 -0.525073
C27   C     C_3   0.421627 0.453448 0.533692 -0.456243
C28   C     C_3   0.426179 0.556016 0.518327 -0.505877
C29   C     C_3   0.087519 0.030480 0.446085 -0.652804
C30   C     C_3   0.566550 0.495077 0.502537 -0.664259
C31   C     C_3   0.100953 0.999107 0.545157 0.334864
C32   C     C_3   0.575795 0.501813 0.612109 0.342803
C33   C     C_3   0.925070 0.000828 0.390121 0.205695
C34   C     C_3   0.401403 0.501153 0.452690 0.241273
C35   C     C_R   0.402446 0.875719 0.093912 -0.127213
C36   C     C_R   0.402608 0.124451 0.093843 -0.126142
C37   C     C_R   0.904459 0.373974 0.094830 -0.127778
C38   C     C_R   0.944261 0.653032 0.090805 -0.126368
C39   C     C_3   0.980764 0.031260 0.349134 1.032316
C40   C     C_3   0.461545 0.494114 0.404245 1.010930
C41   C     C_R   0.159206 0.816630 0.908351 -0.170917
C42   C     C_R   0.160155 0.183950 0.907992 -0.173441
C43   C     C_R   0.660620 0.315643 0.910621 -0.176705
C44   C     C_R   0.792577 0.767103 0.899641 -0.172040
C45   C     C_R   0.611191 0.270643 0.909932 -0.172545
C46   C     C_R   0.736946 0.807586 0.899857 -0.172540
C47   C     C_R   0.112753 0.770038 0.907967 -0.170517
C48   C     C_R   0.114091 0.230606 0.907585 -0.172261
C49   C     C_R   0.645149 0.241739 0.007371 0.142503
C50   C     C_R   0.751438 0.823206 0.999203 0.148077
C51   C     C_R   0.147071 0.741450 0.005911 0.143797
C52   C     C_R   0.148324 0.259117 0.005599 0.144667
C53   C     C_R   0.715721 0.265237 0.107391 -0.168761
C54   C     C_R   0.834459 0.808397 0.097983 -0.161435
C55   C     C_R   0.215427 0.766216 0.105601 -0.171000
C56   C     C_R   0.216497 0.234361 0.105281 -0.174860
C57   C     C_R   0.261743 0.812790 0.105874 -0.166646
C58   C     C_R   0.262466 0.187740 0.105566 -0.169096
C59   C     C_R   0.765332 0.309918 0.107921 -0.171710
C60   C     C_R   0.889983 0.767849 0.097730 -0.171494
C61   C     C_R   0.240702 0.834086 0.006472 0.143679
C62   C     C_R   0.241320 0.166382 0.006187 0.143537
C63   C     C_R   0.744419 0.330819 0.008451 0.145468
C64   C     C_R   0.861464 0.742304 0.998757 0.141468
C65   C     C_R   0.606305 0.951592 0.626722 -0.168193
C66   C     C_R   0.601916 0.051572 0.622728 -0.170474
C67   C     C_R   0.108374 0.450552 0.629696 -0.170714
C68   C     C_R   0.107564 0.550493 0.629113 -0.170174
C69   C     C_R   0.612232 0.951282 0.537720 -0.178772
C70   C     C_R   0.608507 0.051314 0.534331 -0.177081
C71   C     C_R   0.107903 0.450560 0.536173 -0.180098
C72   C     C_R   0.107072 0.550566 0.535558 -0.180167
C73   C     C_R   0.602239 0.001022 0.483830 0.140780
C74   C     C_R   0.097139 0.500545 0.482434 0.140653
C75   C     C_R   0.549319 0.045804 0.303737 -0.143931
C76   C     C_R   0.549550 0.954627 0.304351 -0.141104
C77   C     C_R   0.045390 0.545973 0.302151 -0.129705
C78   C     C_R   0.047392 0.454640 0.303471 -0.146852
C79   C     C_R   0.589269 0.001541 0.660035 0.148215
C80   C     C_R   0.096734 0.500453 0.668309 0.145214
C81   C     C_R   0.246692 0.953443 0.697629 -0.168918
C82   C     C_R   0.245547 0.045700 0.696563 -0.163198
C83   C     C_R   0.730261 0.454511 0.727624 -0.153464
C84   C     C_R   0.731628 0.547439 0.737588 -0.147525
C85   C     C_R   0.312968 0.136433 0.003587 0.042175
C86   C     C_R   0.312674 0.863797 0.003744 0.041407
C87   C     C_R   0.885237 0.684788 0.999251 0.047445
C88   C     C_R   0.816476 0.359509 0.005118 0.040763
C89   C     C_R   0.567102 0.000408 0.368527 0.050036
C90   C     C_R   0.062185 0.500416 0.366814 0.045618
C91   C     C_R   0.198192 0.999204 0.637683 0.065623
C92   C     C_R   0.675028 0.501209 0.698512 0.057266
C93   C     C_R   0.516515 0.046701 0.748632 -0.126258
C94   C     C_R   0.509107 0.955132 0.738807 -0.122668
C95   C     C_R   0.020209 0.546109 0.752570 -0.127603
C96   C     C_R   0.020285 0.454151 0.752531 -0.126486
C97   C     C_R   0.768056 0.954016 0.273390 -0.144710
C98   C     C_R   0.768460 0.047018 0.267618 -0.098564
C99   C     C_R   0.255884 0.454024 0.301374 -0.067929
C100  C     C_R   0.255000 0.546630 0.300905 -0.047851
H1    H     H_    0.250974 0.127732 0.825855 0.089409
H2    H     H_    0.250646 0.872332 0.826049 0.090581
H3    H     H_    0.815137 0.665383 0.823982 0.080282
H4    H     H_    0.758702 0.360051 0.829114 0.086113
H5    H     H_    0.076716 0.914201 0.578399 0.156155
H6    H     H_    0.054904 0.003577 0.655793 0.175597
H7    H     H_    0.533335 0.457759 0.707050 0.165272
H8    H     H_    0.537519 0.562040 0.691190 0.174950
H9    H     H_    0.926412 0.918274 0.455316 0.159585
H10   H     H_    0.901918 0.005145 0.520631 0.192626
H11   H     H_    0.378549 0.458587 0.566982 0.172143
H12   H     H_    0.383079 0.560356 0.551759 0.183694
H13   H     H_    0.946096 0.916167 0.348827 0.196424
H14   H     H_    0.914608 0.071084 0.478308 0.154314
H15   H     H_    0.403948 0.412421 0.493206 0.187011
H16   H     H_    0.411987 0.592753 0.466529 0.172308
H17   H     H_    0.128170 0.008230 0.420502 0.176776
H18   H     H_    0.120952 0.071579 0.470798 0.155021
H19   H     H_    0.599418 0.455178 0.504885 0.182001
H20   H     H_    0.610240 0.526348 0.497162 0.132192
H21   H     H_    0.136695 0.834800 0.830553 0.103605
H22   H     H_    0.137582 0.165771 0.830183 0.103465
H23   H     H_    0.638112 0.334357 0.833205 0.105197
H24   H     H_    0.773751 0.751335 0.821533 0.103376
H25   H     H_    0.552696 0.255788 0.831943 0.106422
H26   H     H_    0.678257 0.822424 0.822041 0.102884
H27   H     H_    0.056087 0.754105 0.829882 0.103764
H28   H     H_    0.057656 0.246562 0.829468 0.104480
H29   H     H_    0.740154 0.246141 0.184991 0.104737
H30   H     H_    0.852536 0.823806 0.176041 0.106556
H31   H     H_    0.240040 0.747223 0.183356 0.103148
H32   H     H_    0.241080 0.253314 0.183059 0.108311
H33   H     H_    0.320157 0.827749 0.183779 0.105976
H34   H     H_    0.320646 0.172725 0.183494 0.108073
H35   H     H_    0.825681 0.323412 0.185757 0.107615
H36   H     H_    0.947759 0.752574 0.175686 0.104750
H37   H     H_    0.605023 0.912394 0.660802 0.103526
H38   H     H_    0.596251 0.091004 0.652544 0.107813
H39   H     H_    0.107114 0.411178 0.663171 0.107439
H40   H     H_    0.105699 0.589839 0.662145 0.107282
H41   H     H_    0.430038 0.870387 0.179234 0.092933
H42   H     H_    0.430229 0.129935 0.179134 0.093420
H43   H     H_    0.932154 0.369309 0.180285 0.093758
H44   H     H_    0.990174 0.666947 0.174382 0.081525
H45   H     H_    0.614261 0.911808 0.505216 0.104751
H46   H     H_    0.607479 0.090637 0.499277 0.105707
H47   H     H_    0.106550 0.411133 0.501296 0.105515
H48   H     H_    0.105126 0.589974 0.500156 0.105089
H49   H     H_    0.567778 0.088184 0.330048 0.082863
H50   H     H_    0.567928 0.912370 0.331555 0.082793
H51   H     H_    0.061378 0.588586 0.327813 0.081842
H52   H     H_    0.066440 0.412504 0.331155 0.083280
H53   H     H_    0.235778 0.910769 0.671745 0.090243
H54   H     H_    0.230538 0.088171 0.669353 0.090014
H55   H     H_    0.708397 0.413520 0.694188 0.086204
H56   H     H_    0.712892 0.590510 0.722380 0.091058
H57   H     H_    0.528091 0.089728 0.741280 0.093285
H58   H     H_    0.505976 0.913733 0.711235 0.082083
H59   H     H_    0.030388 0.589060 0.742832 0.093327
H60   H     H_    0.030543 0.411267 0.742657 0.093166
H61   H     H_    0.787260 0.912324 0.302278 0.082175
H62   H     H_    0.788393 0.089802 0.286305 0.108607
H63   H     H_    0.271476 0.411197 0.325335 0.098334
H64   H     H_    0.268197 0.589616 0.324111 0.072973
H65   H     H_    0.686370 0.163449 0.177637 0.072923
H66   H     H_    0.733157 0.855984 0.174124 0.081106
H67   H     H_    0.189724 0.662901 0.177769 0.074287
H68   H     H_    0.190600 0.337410 0.177780 0.084887
H69   H     H_    0.559401 0.851197 0.826942 0.083012
H70   H     H_    0.513236 0.167946 0.828631 0.085567
H71   H     H_    0.014597 0.332578 0.828286 0.085031
H72   H     H_    0.014018 0.667633 0.828487 0.082788
H73   H     H_    0.102141 0.918749 0.476514 0.169004
H74   H     H_    0.069065 0.069789 0.614129 0.146738
H75   H     H_    0.555399 0.412931 0.628096 0.156525
H76   H     H_    0.562281 0.592803 0.600289 0.147318
N1    N     N_R   0.392140 0.102630 0.941800 -0.040407
N2    N     N_R   0.392140 0.897370 0.941800 -0.041589
N3    N     N_R   0.892140 0.602630 0.941800 -0.037264
N4    N     N_R   0.892140 0.397370 0.941800 -0.038874
N5    N     N_R   0.450890 0.896450 0.057150 -0.042617
N6    N     N_R   0.450890 0.103550 0.057150 -0.042181
N7    N     N_R   0.950890 0.396450 0.057150 -0.040951
N8    N     N_R   0.950890 0.603550 0.057150 -0.039089
N9    N     N_R   0.525160 0.027960 0.206160 -0.037624
N10   N     N_R   0.525160 0.972040 0.206160 -0.036968
N11   N     N_R   0.025160 0.527960 0.206160 -0.039503
N12   N     N_R   0.025160 0.472040 0.206160 -0.038804
N13   N     N_R   0.317870 0.971120 0.792790 -0.034290
N14   N     N_R   0.317870 0.028880 0.792790 -0.034640
N15   N     N_R   0.817870 0.471120 0.792790 -0.035504
N16   N     N_R   0.817870 0.528880 0.792790 -0.037645
N17   N     N_R   0.473480 0.027920 0.793480 -0.038214
N18   N     N_R   0.473480 0.972080 0.793480 -0.037120
N19   N     N_R   0.973480 0.527920 0.793480 -0.042093
N20   N     N_R   0.973480 0.472080 0.793480 -0.041699
N21   N     N_R   0.681610 0.971120 0.207570 -0.038137
N22   N     N_R   0.681610 0.028880 0.207570 -0.047485
N23   N     N_R   0.181610 0.471120 0.207570 -0.046344
N24   N     N_R   0.181610 0.528880 0.207570 -0.043467
N25   N     N_R   0.605410 0.102620 0.056870 -0.038302
N26   N     N_R   0.605410 0.897380 0.056870 -0.039249
N27   N     N_R   0.105410 0.602620 0.056870 -0.035724
N28   N     N_R   0.105410 0.397380 0.056870 -0.037993
N29   N     N_R   0.549680 0.896430 0.944180 -0.038894
N30   N     N_R   0.549680 0.103570 0.944180 -0.038372
N31   N     N_R   0.049680 0.396430 0.944180 -0.038260
N32   N     N_R   0.049680 0.603570 0.944180 -0.036716
Ni1   Ni    Ni4+2 0.433410 0.064680 0.868830 0.211994
Ni2   Ni    Ni4+2 0.433410 0.935320 0.868830 0.213673
Ni3   Ni    Ni4+2 0.933410 0.564680 0.868830 0.206281
Ni4   Ni    Ni4+2 0.933410 0.435320 0.868830 0.210921
Ni5   Ni    Ni4+2 0.565650 0.934380 0.131170 0.209707
Ni6   Ni    Ni4+2 0.565650 0.065620 0.131170 0.206542
Ni7   Ni    Ni4+2 0.065650 0.434380 0.131170 0.206163
Ni8   Ni    Ni4+2 0.065650 0.565620 0.131170 0.204425
O1    O     O_3   0.969265 0.997643 0.263304 -0.672342
C101  C     C_3   0.993508 0.025373 0.198617 0.329937
H77   H     H_    0.057014 0.051579 0.248301 0.089110
H78   H     H_    0.934292 0.051754 0.137127 0.148015
C102  C     C_3   0.012285 0.982784 0.138101 -0.955195
H79   H     H_    0.949316 0.956703 0.085730 0.272802
H80   H     H_    0.030001 0.003935 0.085678 0.221570
H81   H     H_    0.071679 0.956028 0.197669 0.259261
O2    O     O_3   0.940916 0.084587 0.303585 -0.689331
C103  C     C_3   0.974193 0.130938 0.374319 0.180304
H82   H     H_    0.016549 0.121524 0.462498 0.090592
H83   H     H_    0.912790 0.154135 0.358920 0.120183
C104  C     C_3   0.027624 0.169267 0.346653 -0.950623
H84   H     H_    0.981174 0.183131 0.260316 0.268345
H85   H     H_    0.052443 0.206053 0.400858 0.217939
H86   H     H_    0.088770 0.147777 0.357712 0.245310
O3    O     O_3   0.441966 0.440240 0.356936 -0.679380
C105  C     C_3   0.467223 0.434253 0.282019 0.317475
H87   H     H_    0.537461 0.451973 0.314149 0.075477
H88   H     H_    0.414417 0.454664 0.203272 0.149609
C106  C     C_3   0.468754 0.373149 0.259598 -0.965038
H89   H     H_    0.398790 0.354599 0.225180 0.266137
H90   H     H_    0.487475 0.367773 0.199963 0.222946
H91   H     H_    0.521203 0.351495 0.336699 0.256398
O4    O     O_3   0.430241 0.534393 0.318492 -0.674408
C107  C     C_3   0.489210 0.579808 0.339556 0.157550
H92   H     H_    0.547686 0.566645 0.334076 0.109363
H93   H     H_    0.516348 0.599234 0.419816 0.104986
C108  C     C_3   0.433247 0.623475 0.252361 -0.868760
H94   H     H_    0.374356 0.637902 0.255889 0.245533
H95   H     H_    0.478805 0.659261 0.266246 0.205458
H96   H     H_    0.404869 0.606051 0.169943 0.262407

loop_
_geom_bond_atom_site_label_1
_geom_bond_atom_site_label_2
_ccdc_geom_bond_type
C68   C80   A    
C38   C87   A    
C71   H47   S    
C6    H66   S    
C58   C62   A    
C65   C79   A    
C43   H23   S    
C63   C88   S    
C69   H45   S    
C76   H50   S    
C37   C88   A    
C9    H69   S    
C41   C61   A    
C75   H49   S    
C78   N12   A    
C77   H51   S    
C13   C79   S    
C53   C59   A    
C43   C63   A    
C102  H81   S    
C12   H72   S    
C54   C60   A    
C44   C64   A    
C11   H71   S    
C83   C92   A    
C21   C31   S    
N28   Ni7   S    
C42   H22   S    
C50   C54   A    
C11   N31   A    
C34   C40   S    
C12   N32   A    
C83   N15   A    
N14   Ni1   S    
C4    N4    A    
C28   H12   S    
C6    N26   A    
C104  H86   S    
C84   C92   A    
N13   Ni2   S    
C5    N25   A    
C35   C86   A    
C49   C53   A    
N8    Ni8   S    
C23   H75   S    
C30   H19   S    
C2    H2    S    
C10   C17   A    
N1    Ni1   S    
N1    N6    A    
C37   N7    A    
N10   Ni5   S    
N3    Ni3   S    
C81   H53   S    
N9    Ni6   S    
N2    Ni2   S    
O4    C107  S    
C53   H29   S    
C41   H21   S    
C57   C61   A    
N4    Ni4   S    
C36   H42   S    
C3    N3    A    
C28   H16   S    
C22   H74   S    
C1    N1    A    
C33   C39   S    
C27   H15   S    
C45   H25   S    
N26   N29   A    
C7    N27   A    
N25   N30   A    
C69   C73   A    
C70   H46   S    
C55   H31   S    
C23   C27   S    
C67   H39   S    
O3    C105  S    
C26   H10   S    
C64   C87   S    
C51   C55   A    
C40   O4    S    
N4    N7    A    
C25   H9    S    
C76   C89   A    
C103  H83   S    
C65   H37   S    
C27   H11   S    
N23   N24   A    
C94   H58   S    
C106  H89   S    
C82   N14   A    
C1    C85   A    
C57   H33   S    
C75   N9    A    
C105  H88   S    
C15   C97   A    
C54   H30   S    
N17   Ni1   S    
C14   C96   A    
C98   H62   S    
N12   Ni7   S    
C44   C46   A    
C46   C50   A    
C107  H92   S    
C27   C34   S    
N7    Ni7   S    
C106  H90   S    
C6    C18   A    
C62   C85   S    
C77   C90   A    
C30   H20   S    
C107  C108  S    
C8    H68   S    
C22   C31   S    
C98   N22   A    
C78   H52   S    
N15   N16   A    
C97   N21   A    
N27   Ni8   S    
C8    N28   A    
C72   C74   A    
C106  H91   S    
C17   C49   S    
C107  H93   S    
C16   C100  A    
C47   C51   A    
C32   C92   S    
O1    C101  S    
C72   H48   S    
C3    C87   A    
C11   C20   A    
C44   H24   S    
C58   H34   S    
C82   C91   A    
C13   C93   A    
C105  C106  S    
C82   H54   S    
C38   N8    A    
C24   C32   S    
N16   Ni3   S    
N19   Ni3   S    
C104  H84   S    
C66   C79   A    
C25   H13   S    
N18   Ni2   S    
C102  H79   S    
C26   C33   S    
C101  H78   S    
C66   H38   S    
N28   N31   A    
C45   C49   A    
C68   C72   A    
C23   H7    S    
C29   C39   S    
C70   C73   A    
O2    C103  S    
C41   C47   A    
C30   C40   S    
N13   N14   A    
C100  H64   S    
C8    C20   A    
N29   Ni2   S    
C81   C91   A    
C93   H57   S    
C43   C45   A    
C39   O1    S    
C81   N13   A    
C56   H32   S    
C35   H41   S    
C24   H8    S    
C100  N24   A    
C22   H6    S    
C96   H60   S    
C102  H80   S    
C103  H82   S    
C42   C48   A    
C21   H73   S    
C14   C80   S    
C55   C57   A    
N31   Ni4   S    
C77   N11   A    
N23   Ni7   S    
C68   H40   S    
C36   N6    A    
C105  H87   S    
C15   C98   A    
N22   Ni6   S    
C1    H1    S    
C14   C95   A    
C76   N10   A    
C18   C50   S    
C101  C102  S    
N3    N8    A    
C29   H18   S    
C3    H3    S    
C26   H14   S    
C21   C25   S    
N11   Ni8   S    
C95   H59   S    
C95   N19   A    
C37   H43   S    
C94   N18   A    
C59   C63   A    
C46   H26   S    
C101  H77   S    
C93   N17   A    
C67   C80   A    
C24   C28   S    
C31   C91   S    
C108  H94   S    
C40   O3    S    
C71   C74   A    
C16   C99   A    
C47   H27   S    
C2    C86   A    
C4    C88   A    
C42   C62   A    
C36   C85   A    
C35   N5    A    
C103  C104  S    
C20   C52   S    
N27   N32   A    
C13   C94   A    
C7    C19   A    
C60   H36   S    
C60   C64   A    
C16   C34   S    
C23   C32   S    
C74   C90   S    
C108  H95   S    
C38   H44   S    
C73   C89   S    
N11   N12   A    
C29   C31   S    
C9    N29   A    
C30   C32   S    
C84   H56   S    
N30   Ni1   S    
N9    N10   A    
C66   C70   A    
C29   H17   S    
C48   H28   S    
C78   C90   A    
N32   Ni3   S    
C65   C69   A    
C10   H70   S    
C4    H4    S    
C12   C19   A    
C59   H35   S    
N24   Ni8   S    
C56   C58   A    
C84   N16   A    
C67   C71   A    
C5    H65   S    
N26   Ni5   S    
C10   N30   A    
N21   N22   A    
N15   Ni4   S    
N25   Ni6   S    
C39   O2    S    
N2    N5    A    
C99   H63   S    
C61   C86   S    
C75   C89   A    
C28   C34   S    
N19   N20   A    
N20   Ni4   S    
C19   C51   S    
C9    C18   A    
C96   N20   A    
N21   Ni5   S    
C5    C17   A    
C7    H67   S    
C104  H85   S    
N17   N18   A    
C22   C26   S    
C108  H96   S    
C99   N23   A    
N6    Ni6   S    
C83   H55   S    
N5    Ni5   S    
C2    N2    A    
C48   C52   A    
C15   C33   S    
C21   H5    S    
C52   C56   A    
C97   H61   S    
C25   C33   S    
C24   H76   S    
