data_mof_unit_14467.cif
_audit_creation_date              2012-12-11T14:17:46-0500
_audit_creation_method            fapswitch 2.2
_symmetry_space_group_name_H-M    P1
_symmetry_Int_Tables_number       1
_space_group_crystal_system       triclinic
_cell_length_a                    11.281959
_cell_length_b                    11.043135
_cell_length_c                    18.660615
_cell_angle_alpha                 89.479245
_cell_angle_beta                  90.245405
_cell_angle_gamma                 119.768993
_cell_volume                      2018.0028352

loop_
_atom_site_label
_atom_site_type_symbol
_atom_type_description
_atom_site_fract_x
_atom_site_fract_y
_atom_site_fract_z
_atom_type_partial_charge
C1    C     C_R   0.520757 0.463071 0.147440 0.671383
C2    C     C_R   0.547285 0.066951 0.145642 0.676149
C3    C     C_R   0.932313 0.478218 0.145603 0.676073
C4    C     C_R   0.458502 0.522314 0.854415 0.599058
C5    C     C_R   0.066031 0.540441 0.853932 0.598199
C6    C     C_R   0.477367 0.937346 0.852230 0.582714
C7    C     C_R   0.440562 0.060367 0.468349 -0.167486
C8    C     C_R   0.934131 0.375503 0.470859 -0.174061
C9    C     C_R   0.622503 0.552179 0.471482 -0.173175
C10   C     C_R   0.951494 0.389388 0.544376 -0.150427
C11   C     C_R   0.437390 0.043180 0.541712 -0.154661
C12   C     C_R   0.608020 0.555420 0.545007 -0.149300
C13   C     C_R   0.724237 0.960983 0.551141 0.247171
C14   C     C_R   0.029301 0.761393 0.552830 0.245619
C15   C     C_R   0.240416 0.270345 0.553886 0.244149
C16   C     C_R   0.124217 0.751012 0.416427 0.258570
C17   C     C_R   0.618375 0.866606 0.414265 0.259560
C18   C     C_R   0.256361 0.382172 0.417371 0.260260
C19   C     C_R   0.782146 0.905042 0.505690 -0.159599
C20   C     C_R   0.088377 0.878518 0.508346 -0.159365
C21   C     C_R   0.126099 0.218264 0.509444 -0.162432
C22   C     C_R   0.136342 0.874295 0.441007 -0.151295
C23   C     C_R   0.729168 0.856684 0.438388 -0.147869
C24   C     C_R   0.133715 0.273611 0.441802 -0.149149
C25   C     C_R   0.521369 0.456096 0.354445 0.619111
C26   C     C_R   0.543825 0.063329 0.353597 0.617240
C27   C     C_R   0.936377 0.479539 0.354155 0.626575
C28   C     C_R   0.454430 0.514073 0.647078 0.566542
C29   C     C_R   0.059419 0.544619 0.646867 0.574633
C30   C     C_R   0.483953 0.938020 0.646149 0.561827
C31   C     C_R   0.488746 0.004282 0.921498 0.040083
C32   C     C_R   0.003182 0.479863 0.923670 0.030813
C33   C     C_R   0.507084 0.518150 0.929031 0.115979
C34   C     C_R   0.966634 0.483675 0.069685 -0.003196
C35   C     C_R   0.520447 0.017646 0.070830 0.047615
C36   C     C_R   0.506757 0.532942 0.080197 0.126501
C37   C     C_R   0.372022 0.960874 0.966574 -0.000581
C38   C     C_R   0.045758 0.401991 0.969357 0.018548
C39   C     C_R   0.623999 0.635672 0.964272 0.016272
C40   C     C_R   0.043760 0.423292 0.044689 0.039586
C41   C     C_R   0.387577 0.951104 0.041691 -0.012599
C42   C     C_R   0.621562 0.641307 0.042579 0.024734
C43   C     C_R   0.633799 0.071423 0.023719 0.252818
C44   C     C_R   0.872092 0.486656 0.021025 0.172270
C45   C     C_R   0.390839 0.476020 0.039069 0.168714
C46   C     C_R   0.897830 0.497860 0.947805 0.250990
C47   C     C_R   0.617092 0.072798 0.950576 0.281467
C48   C     C_R   0.406550 0.422171 0.974738 0.213715
C49   C     C_R   0.239927 0.925368 0.940461 0.297465
C50   C     C_R   0.072618 0.292724 0.947150 0.312135
C51   C     C_R   0.740031 0.747620 0.928525 0.269352
C52   C     C_R   0.099169 0.363180 0.092528 0.309787
C53   C     C_R   0.269604 0.871732 0.084145 0.277674
C54   C     C_R   0.721969 0.760373 0.078898 0.263732
C55   C     C_R   0.126466 0.848869 0.983449 -0.161213
C56   C     C_R   0.100160 0.217249 0.998651 -0.082684
C57   C     C_R   0.835782 0.861015 0.967536 -0.110815
C58   C     C_R   0.117501 0.254314 0.070034 -0.085896
C59   C     C_R   0.140718 0.822478 0.054522 -0.143551
C60   C     C_R   0.830674 0.864420 0.041356 -0.117692
C61   C     C_R   0.517660 0.994973 0.573271 0.020487
C62   C     C_R   0.998453 0.519140 0.575182 0.021556
C63   C     C_R   0.479919 0.476481 0.575864 0.021925
C64   C     C_R   0.990163 0.494822 0.426507 0.050903
C65   C     C_R   0.502592 0.004283 0.424831 0.057106
C66   C     C_R   0.506335 0.493571 0.427147 0.047176
C67   C     C_R   0.604736 0.965684 0.528710 -0.016528
C68   C     C_R   0.024158 0.635643 0.530062 -0.018157
C69   C     C_R   0.365924 0.388493 0.530891 -0.016110
C70   C     C_R   0.052307 0.627424 0.457544 -0.006147
C71   C     C_R   0.568361 0.938068 0.456008 -0.009746
C72   C     C_R   0.376119 0.426854 0.458300 -0.008527
Cr1   Cr    Cr6+3 0.768550 0.541320 0.250660 1.136575
Cr2   Cr    Cr6+3 0.458680 0.227230 0.250660 1.122907
Cr3   Cr    Cr6+3 0.772770 0.231450 0.250660 1.161332
Cr4   Cr    Cr6+3 0.541320 0.768550 0.749340 1.210313
Cr5   Cr    Cr6+3 0.227230 0.458680 0.749340 1.216748
Cr6   Cr    Cr6+3 0.231450 0.772770 0.749340 1.206224
H1    H     H_    0.026345 0.809185 0.961200 0.158930
H2    H     H_    0.114185 0.131233 0.982975 0.183674
H3    H     H_    0.920709 0.945916 0.939993 0.206868
H4    H     H_    0.152398 0.202744 0.107182 0.165397
H5    H     H_    0.050490 0.764411 0.086769 0.166338
H6    H     H_    0.909543 0.953216 0.069577 0.178832
H7    H     H_    0.396637 0.120079 0.446010 0.138175
H8    H     H_    0.876992 0.271517 0.448945 0.135440
H9    H     H_    0.724457 0.596326 0.449490 0.135919
H10   H     H_    0.926501 0.299938 0.577376 0.204063
H11   H     H_    0.376187 0.071110 0.574008 0.200171
H12   H     H_    0.695724 0.616740 0.577918 0.204629
H13   H     H_    0.869975 0.899629 0.522518 0.174906
H14   H     H_    0.096311 0.973646 0.526011 0.177552
H15   H     H_    0.030241 0.133490 0.527215 0.176989
H16   H     H_    0.181498 0.966807 0.407433 0.150801
H17   H     H_    0.776060 0.813464 0.404320 0.156299
H18   H     H_    0.044252 0.231200 0.407895 0.153232
O1    O     O_R   0.910960 0.572410 0.171010 -0.482470
O2    O     O_R   0.427590 0.338550 0.171010 -0.466021
O3    O     O_R   0.661450 0.089040 0.171010 -0.401744
O4    O     O_R   0.572410 0.910960 0.828990 -0.431216
O5    O     O_R   0.338550 0.427590 0.828990 -0.428568
O6    O     O_R   0.089040 0.661450 0.828990 -0.446846
O7    O     O_R   0.639750 0.528530 0.175600 -0.445982
O8    O     O_R   0.471470 0.111220 0.175600 -0.466097
O9    O     O_R   0.888780 0.360250 0.175600 -0.432460
O10   O     O_R   0.528530 0.639750 0.824400 -0.470593
O11   O     O_R   0.111220 0.471470 0.824400 -0.457958
O12   O     O_R   0.360250 0.888780 0.824400 -0.474612
O13   O     O_R   0.909330 0.572400 0.331540 -0.499727
O14   O     O_R   0.427600 0.336930 0.331540 -0.501374
O15   O     O_R   0.663070 0.090670 0.331540 -0.499383
O16   O     O_R   0.572400 0.909330 0.668460 -0.439903
O17   O     O_R   0.336930 0.427600 0.668460 -0.447952
O18   O     O_R   0.090670 0.663070 0.668460 -0.441941
O19   O     O_R   0.638240 0.528520 0.324410 -0.493951
O20   O     O_R   0.471480 0.109720 0.324410 -0.498735
O21   O     O_R   0.890280 0.361760 0.324410 -0.499067
O22   O     O_R   0.528520 0.638240 0.675590 -0.471637
O23   O     O_R   0.109720 0.471480 0.675590 -0.478206
O24   O     O_R   0.361760 0.890280 0.675590 -0.479100
O25   O     O_3   0.666667 0.333333 0.250630 -0.327736
O26   O     O_3   0.333333 0.666667 0.749370 -0.356020
Cl1   Cl    Cl    0.799612 0.128169 0.052731 -0.590938
Cl2   Cl    Cl    0.701729 0.408914 0.047368 -0.569687
Cl3   Cl    Cl    0.346142 0.608098 0.024210 -0.671577
Cl4   Cl    Cl    0.771076 0.472963 0.884999 -0.419236
Cl5   Cl    Cl    0.756589 0.164087 0.892807 -0.420489
Cl6   Cl    Cl    0.395828 0.259319 0.977548 -0.551743
Cl7   Cl    Cl    0.211166 0.003631 0.863934 -0.392013
Cl8   Cl    Cl    0.045915 0.215368 0.861553 -0.366345
Cl9   Cl    Cl    0.794090 0.753606 0.838798 -0.375005
Cl10  Cl    Cl    0.168371 0.434147 0.176478 -0.398782
Cl11  Cl    Cl    0.275789 0.805513 0.169042 -0.383137
Cl12  Cl    Cl    0.700668 0.803589 0.166934 -0.449923
Cl13  Cl    Cl    0.826714 0.047996 0.626569 -0.487988
Cl14  Cl    Cl    0.941797 0.774890 0.628433 -0.474788
Cl15  Cl    Cl    0.223670 0.164822 0.629776 -0.485668
Cl16  Cl    Cl    0.208003 0.757228 0.336411 -0.405299
Cl17  Cl    Cl    0.545064 0.788322 0.331605 -0.386098
Cl18  Cl    Cl    0.254525 0.468605 0.338677 -0.396279

loop_
_geom_bond_atom_site_label_1
_geom_bond_atom_site_label_2
_ccdc_geom_bond_type
C2    C35   S    
C39   C51   A    
C29   O18   A    
C55   C59   A    
Cr6   O6    S    
C13   Cl13  S    
Cr6   O24   S    
Cr3   O21   S    
C53   C59   A    
Cr2   O2    S    
C54   C60   A    
C3    O9    A    
Cr1   O1    S    
C20   H14   S    
C10   H10   S    
C33   C39   A    
C14   Cl14  S    
C23   H17   S    
C34   C40   A    
C12   H12   S    
C59   H5    S    
C58   H4    S    
C5    O11   A    
C25   O19   A    
C7    C65   A    
C4    C33   S    
C54   Cl12  S    
C37   C49   A    
Cr6   O12   S    
C3    O1    A    
C9    C66   A    
Cr5   O26   S    
C50   Cl8   S    
C5    O6    A    
Cr5   O5    S    
C66   C72   A    
C63   C69   A    
C45   Cl3   S    
Cr1   O7    S    
C16   C22   A    
C51   C57   A    
C32   C38   A    
C35   C43   A    
C1    O7    A    
C67   C71   A    
C5    C32   S    
C6    C31   S    
C31   C47   A    
C10   C62   A    
C22   H16   S    
Cr6   O18   S    
Cr5   O17   S    
C9    C12   A    
C44   C46   A    
C7    C11   A    
C39   C42   A    
C26   O20   A    
C27   O21   A    
C18   C72   A    
C15   C69   A    
C29   O23   A    
C13   C19   A    
C52   Cl10  S    
C14   C20   A    
Cr5   O11   S    
C16   C70   A    
C61   C67   A    
C28   O17   A    
C12   C63   A    
C51   Cl9   S    
C57   C60   A    
C3    C34   S    
Cr5   O23   S    
C40   C52   A    
C4    O10   A    
C44   Cl2   S    
Cr4   O22   S    
C31   C37   A    
C30   O16   A    
C6    O4    A    
C1    O2    A    
C69   C72   A    
C19   C23   A    
C48   Cl6   S    
C55   H1    S    
C11   H11   S    
C2    O8    A    
Cr4   O16   S    
Cr2   O20   S    
C4    O5    A    
Cr3   O3    S    
C53   Cl11  S    
C36   C45   A    
C17   Cl17  S    
C17   C23   A    
C18   Cl18  S    
C41   C53   A    
C35   C41   A    
C52   C58   A    
C25   O14   A    
C8    C64   A    
C68   C70   A    
C20   C22   A    
C2    O3    A    
C17   C71   A    
C64   C70   A    
C18   C24   A    
C21   H15   S    
C21   C24   A    
C43   Cl1   S    
Cr2   O8    S    
C13   C67   A    
C45   C48   A    
C34   C44   A    
C29   C62   S    
Cr4   O10   S    
Cr3   O25   S    
C26   C65   S    
C32   C46   A    
C46   Cl4   S    
C16   Cl16  S    
C25   C66   S    
C14   C68   A    
C11   C61   A    
C49   C55   A    
Cr1   O19   S    
C36   C42   A    
Cr2   O14   S    
C47   Cl5   S    
C38   C50   A    
Cr4   O4    S    
Cr3   O15   S    
C56   H2    S    
C62   C68   A    
Cr4   O26   S    
C24   H18   S    
C65   C71   A    
C42   C54   A    
C38   C40   A    
C60   H6    S    
C7    H7    S    
C30   O24   A    
C49   Cl7   S    
C56   C58   A    
C8    H8    S    
Cr1   O13   S    
C37   C41   A    
Cr6   O26   S    
C57   H3    S    
C50   C56   A    
C19   H13   S    
C27   C64   S    
C28   C63   S    
C15   C21   A    
Cr2   O25   S    
C27   O13   A    
C8    C10   A    
C30   C61   S    
C33   C48   A    
C6    O12   A    
C28   O22   A    
Cr3   O9    S    
C43   C47   A    
C26   O15   A    
C9    H9    S    
C1    C36   S    
Cr1   O25   S    
C15   Cl15  S    
