data_mof_unit_49163.cif
_audit_creation_date              2012-12-11T15:46:43-0500
_audit_creation_method            fapswitch 2.2
_symmetry_space_group_name_H-M    P1
_symmetry_Int_Tables_number       1
_space_group_crystal_system       triclinic
_cell_length_a                    11.549538
_cell_length_b                    11.560171
_cell_length_c                    19.558839
_cell_angle_alpha                 90.484993
_cell_angle_beta                  89.884236
_cell_angle_gamma                 60.300438
_cell_volume                      2268.20729896

loop_
_atom_site_label
_atom_site_type_symbol
_atom_type_description
_atom_site_fract_x
_atom_site_fract_y
_atom_site_fract_z
_atom_type_partial_charge
C1    C     C_R   0.640203 0.117001 0.599295 0.549591
C2    C     C_1   0.640545 0.704321 0.668029 0.008999
C3    C     C_1   0.126620 0.199205 0.859290 0.006242
C4    C     C_1   0.171441 0.170210 0.727703 -0.027172
C5    C     C_1   0.150088 0.182528 0.798934 -0.027784
C6    C     C_1   0.195253 0.160650 0.667360 0.009735
C7    C     C_1   0.679234 0.191023 0.860778 0.008063
C8    C     C_1   0.658603 0.166925 0.729058 -0.026651
C9    C     C_1   0.666139 0.180562 0.800367 -0.027345
C10   C     C_1   0.652750 0.149429 0.668675 0.010623
C11   C     C_R   0.662385 0.664690 0.192980 -0.008983
C12   C     C_R   0.612041 0.746383 0.598686 0.544828
C13   C     C_R   0.554274 0.671598 0.227681 0.006876
C14   C     C_R   0.547664 0.675367 0.297374 0.027562
C15   C     C_R   0.761002 0.667567 0.300901 -0.160259
C16   C     C_R   0.769067 0.657319 0.230102 -0.140387
C17   C     C_3   0.410044 0.768852 0.217854 -0.089117
C18   C     C_3   0.398882 0.771156 0.295793 -0.072410
C19   C     C_R   0.647979 0.681524 0.335051 -0.006831
C20   C     C_R   0.141691 0.194186 0.192000 -0.016019
C21   C     C_R   0.200986 0.259006 0.223785 -0.041597
C22   C     C_R   0.231182 0.241280 0.292116 -0.027409
C23   C     C_R   0.241028 0.145110 0.598154 0.554976
C24   C     C_R   0.131038 0.098687 0.301642 0.000890
C25   C     C_R   0.112864 0.108818 0.230621 -0.148194
C26   C     C_3   0.154080 0.404755 0.227157 -0.219228
C27   C     C_3   0.192528 0.386536 0.302633 0.039758
C28   C     C_R   0.196142 0.162156 0.332195 0.022546
C29   C     C_R   0.677770 0.204034 0.197446 0.079116
C30   C     C_R   0.599310 0.149058 0.215508 0.041197
C31   C     C_R   0.588338 0.123212 0.283102 0.036525
C32   C     C_R   0.718868 0.223420 0.318091 -0.081227
C33   C     C_R   0.729923 0.250368 0.249305 -0.071969
C34   C     C_R   0.645370 0.113395 0.403276 0.546178
C35   C     C_3   0.598210 0.026748 0.191009 -0.140278
C36   C     C_3   0.587521 0.997996 0.266063 -0.277583
C37   C     C_R   0.657252 0.148858 0.334194 0.054538
C38   C     C_R   0.081628 0.231442 0.928597 0.542232
C39   C     C_R   0.684294 0.604202 0.929495 0.546042
C40   C     C_R   0.708874 0.206796 0.930105 0.544019
C41   C     C_R   0.081160 0.236695 0.125593 0.545296
C42   C     C_R   0.682061 0.613654 0.124622 0.558632
C43   C     C_R   0.708684 0.213169 0.127203 0.537613
C44   C     C_R   0.615871 0.739342 0.402463 0.531410
C45   C     C_R   0.243906 0.140802 0.401743 0.589150
C46   C     C_1   0.671100 0.646181 0.860123 0.009067
C47   C     C_1   0.654424 0.683914 0.728431 -0.027073
C48   C     C_1   0.663792 0.666563 0.799693 -0.027568
Cr1   Cr    Cr6+3 0.404720 0.198220 0.499960 1.065821
Cr2   Cr    Cr6+3 0.698290 0.897110 0.500380 1.070388
Cr3   Cr    Cr6+3 0.396970 0.904720 0.499610 1.106882
Cr4   Cr    Cr6+3 0.926290 0.152010 0.028150 1.085648
Cr5   Cr    Cr6+3 0.921440 0.451830 0.027490 1.066327
Cr6   Cr    Cr6+3 0.626370 0.446880 0.028730 1.075779
H1    H     H_    0.834592 0.681412 0.327699 0.199939
H2    H     H_    0.213074 0.432038 0.192668 0.193555
H3    H     H_    0.763728 0.254212 0.357626 0.145885
H4    H     H_    0.785533 0.300089 0.236317 0.115724
H5    H     H_    0.506318 0.051711 0.161838 0.087372
H6    H     H_    0.491453 0.003447 0.279502 0.103236
H7    H     H_    0.855213 0.649801 0.204207 0.181748
H8    H     H_    0.394482 0.865113 0.197429 0.079845
H9    H     H_    0.372499 0.870032 0.317698 0.083815
H10   H     H_    0.061141 0.062636 0.206755 0.225027
H11   H     H_    0.045481 0.464296 0.218620 0.144857
O1    O     O_R   0.267750 0.231960 0.575440 -0.502927
O2    O     O_R   0.685950 0.784660 0.430010 -0.504929
O3    O     O_R   0.502510 0.767000 0.423980 -0.480164
O4    O     O_R   0.288320 0.026340 0.429250 -0.476520
O5    O     O_3   0.499990 0.000020 0.499980 -0.289711
O6    O     O_R   0.821590 0.119350 0.952850 -0.492465
O7    O     O_R   0.037230 0.162540 0.957390 -0.492398
O8    O     O_R   0.056530 0.344750 0.951370 -0.502873
O9    O     O_R   0.798000 0.560370 0.957490 -0.484489
O10   O     O_R   0.596230 0.579400 0.952760 -0.505513
O11   O     O_R   0.639160 0.321170 0.958690 -0.498379
O12   O     O_R   0.527290 0.186640 0.570530 -0.493460
O13   O     O_R   0.821370 0.124220 0.104400 -0.469002
O14   O     O_R   0.037020 0.167050 0.097880 -0.495621
O15   O     O_R   0.056310 0.349620 0.102920 -0.517014
O16   O     O_R   0.797790 0.564880 0.097980 -0.483191
O17   O     O_R   0.596000 0.584270 0.104310 -0.491476
O18   O     O_R   0.638950 0.325690 0.099180 -0.480038
O19   O     O_3   0.824700 0.350240 0.028120 -0.284457
O20   O     O_R   0.728110 0.003450 0.576380 -0.493374
O21   O     O_R   0.682980 0.789190 0.570500 -0.492369
O22   O     O_R   0.499300 0.771880 0.575540 -0.492973
O23   O     O_R   0.285350 0.030870 0.569740 -0.482502
O24   O     O_R   0.270960 0.227070 0.423890 -0.532842
O25   O     O_R   0.530270 0.182120 0.430040 -0.467457
O26   O     O_R   0.731320 0.998570 0.424830 -0.509338
C49   C     C_2   0.311718 0.406158 0.318358 0.601461
O27   O     O_2   0.381121 0.408074 0.271789 -0.456727
O28   O     O_R   0.343780 0.425633 0.384848 -0.600042
H12   H     H_    0.281013 0.429226 0.421814 0.347314
C50   C     C_2   0.073003 0.463726 0.350025 0.529554
O29   O     O_2   0.055380 0.565894 0.378407 -0.559578
O30   O     O_R   0.983022 0.417914 0.361790 -0.701758
H13   H     H_    0.913827 0.472076 0.398028 0.342305
C51   C     C_2   0.726373 0.925811 0.155816 0.576381
O31   O     O_2   0.833822 0.890639 0.182987 -0.438674
O32   O     O_R   0.724111 0.872525 0.091772 -0.660365
H14   H     H_    0.630651 0.907284 0.073691 0.286442
H15   H     H_    0.677111 0.912550 0.287341 0.165567
C52   C     C_2   0.337542 0.713649 0.176638 0.665828
O33   O     O_2   0.373754 0.594674 0.177065 -0.437436
O34   O     O_R   0.228139 0.800608 0.137492 -0.676150
H16   H     H_    0.186464 0.753513 0.112256 0.348939
C53   C     C_2   0.319361 0.713496 0.327840 0.662527
O35   O     O_2   0.349599 0.663381 0.384384 -0.432168
O36   O     O_R   0.206709 0.724751 0.295444 -0.623358
H17   H     H_    0.157588 0.690492 0.324264 0.373138
C54   C     C_2   0.063680 0.039344 0.341861 0.573324
O37   O     O_2   0.053174 0.052004 0.404033 -0.493450
O38   O     O_R   0.003223 0.976457 0.307805 -0.657713
H18   H     H_    0.958209 0.942688 0.340193 0.361657

loop_
_geom_bond_atom_site_label_1
_geom_bond_atom_site_label_2
_ccdc_geom_bond_type
C21   C26   S    
C33   H4    S    
C40   O6    A    
C34   C37   S    
C43   O18   A    
C14   C18   S    
C35   C36   S    
C42   O17   A    
C18   C53   S    
Cr1   O25   S    
C2    C12   S    
C41   O15   A    
Cr6   O19   S    
C20   C41   S    
C43   O13   A    
C15   C19   A    
C52   O34   S    
C26   C27   S    
C30   C35   S    
Cr5   O19   S    
C23   O1    A    
Cr5   O16   S    
C53   O36   S    
C30   C31   A    
C18   H9    S    
C20   C25   A    
C15   C16   A    
C29   C33   A    
C1    O12   A    
C11   C42   S    
C35   H5    S    
C39   O9    A    
Cr4   O19   S    
C34   O26   A    
C49   O27   D    
Cr2   O20   S    
O36   H17   S    
C3    C38   S    
C8    C9    S    
C50   O30   S    
O34   H16   S    
Cr3   O5    S    
C39   O10   A    
Cr4   O14   S    
C45   O24   A    
Cr2   O2    S    
C24   C54   S    
C22   C28   A    
C21   C22   A    
C29   C43   S    
C27   C50   S    
O28   H12   S    
C42   O16   A    
C32   H3    S    
Cr4   O13   S    
C51   O32   S    
Cr6   O18   S    
C46   C48   T    
C1    O20   A    
C38   O7    A    
C28   C45   S    
Cr1   O1    S    
C45   O4    A    
Cr5   O15   S    
C24   C25   A    
C4    C6    T    
Cr3   O22   S    
C36   H6    S    
C31   C37   A    
C25   H10   S    
C15   H1    S    
C34   O25   A    
C29   C30   A    
Cr4   O7    S    
C17   C52   S    
C17   H8    S    
C11   C16   A    
C47   C48   S    
C7    C40   S    
C50   O29   D    
C49   O28   S    
C17   C18   S    
C27   C49   S    
C32   C37   A    
C39   C46   S    
Cr6   O11   S    
Cr1   O5    S    
C23   O23   A    
C44   O3    A    
C16   H7    S    
C35   C51   S    
Cr6   O17   S    
C19   C44   S    
C54   O37   D    
C7    C9    T    
C12   O22   A    
C26   H11   S    
C14   C19   A    
Cr5   O8    S    
C1    C10   S    
C24   C28   A    
Cr1   O24   S    
C4    C5    S    
C3    C5    T    
C26   H2    S    
Cr3   O23   S    
C41   O14   A    
C12   O21   A    
C2    C47   T    
C52   O33   D    
C13   C17   S    
C22   C27   S    
C32   C33   A    
Cr2   O5    S    
Cr4   O6    S    
C53   O35   D    
C11   C13   A    
C36   H15   S    
C6    C23   S    
C51   O31   D    
Cr1   O12   S    
Cr3   O3    S    
O32   H14   S    
Cr2   O21   S    
Cr6   O10   S    
C40   O11   A    
Cr2   O26   S    
C20   C21   A    
C8    C10   T    
O30   H13   S    
C31   C36   S    
C44   O2    A    
Cr3   O4    S    
C13   C14   A    
C38   O8    A    
O38   H18   S    
C54   O38   S    
Cr5   O9    S    
