data_mof_unit_47721.cif
_audit_creation_date              2012-10-26T18:32:22-0400
_audit_creation_method            fapswitch 2.2
_symmetry_space_group_name_H-M    P1
_symmetry_Int_Tables_number       1
_space_group_crystal_system       triclinic
_cell_length_a                    12.421911
_cell_length_b                    13.374447
_cell_length_c                    15.852959
_cell_angle_alpha                 75.785504
_cell_angle_beta                  100.966554
_cell_angle_gamma                 117.129212
_cell_volume                      2262.85195746

loop_
_atom_site_label
_atom_site_type_symbol
_atom_type_description
_atom_site_fract_x
_atom_site_fract_y
_atom_site_fract_z
_atom_type_partial_charge
C1    C     C_R   0.854963 0.287392 0.506120 0.566338
C2    C     C_R   0.228948 0.834641 0.476012 -0.033918
C3    C     C_R   0.816898 0.084456 0.548997 -0.081229
C4    C     C_R   0.000264 0.500429 0.659232 0.592340
C5    C     C_R   0.740355 0.968045 0.561534 0.003778
C6    C     C_R   0.615882 0.932039 0.536736 -0.100643
C7    C     C_R   0.566896 0.011153 0.494807 0.039771
C8    C     C_R   0.648809 0.127665 0.472686 0.044175
C9    C     C_R   0.439445 0.978729 0.474000 0.017549
C10   C     C_R   0.396672 0.061893 0.428825 0.067623
C11   C     C_R   0.481444 0.172314 0.398015 -0.077316
C12   C     C_3   0.018349 0.398591 0.073189 -0.201520
C13   C     C_R   0.604582 0.202963 0.416585 -0.120115
C14   C     C_R   0.352980 0.866154 0.497814 -0.133056
C15   C     C_R   0.187718 0.917765 0.437161 -0.079887
C16   C     C_R   0.145163 0.712966 0.488908 0.550783
C17   C     C_R   0.772723 0.165262 0.506697 0.013261
C18   C     C_R   0.336527 0.313698 0.630855 -0.091984
C19   C     C_R   0.764755 0.660438 0.393439 0.369194
C20   C     C_R   0.698319 0.716924 0.403053 -0.158783
C21   C     C_R   0.605278 0.661946 0.457397 -0.178950
C22   C     C_R   0.567262 0.545601 0.491778 -0.009027
C23   C     C_3   0.986106 0.493947 0.082788 -0.083837
C24   C     C_R   0.655604 0.503308 0.500710 0.091887
C25   C     C_R   0.452270 0.475273 0.526484 -0.013356
C26   C     C_R   0.439773 0.373722 0.585905 -0.018974
C27   C     C_R   0.533344 0.337032 0.602512 0.240828
C28   C     C_R   0.000285 0.500617 0.340634 0.557257
C29   C     C_R   0.640668 0.404506 0.562652 -0.049991
C30   C     C_R   0.345543 0.495804 0.499294 0.127650
C31   C     C_R   0.247652 0.352980 0.619870 0.348318
C32   C     C_3   0.023042 0.401193 0.975488 0.097746
C33   C     C_3   0.856912 0.477621 0.934401 0.128777
C34   C     C_3   0.082329 0.609921 0.039444 -0.266132
C35   C     C_3   0.857154 0.476096 0.034811 0.145628
C36   C     C_1   0.998456 0.499080 0.251176 0.077672
C37   C     C_3   0.985183 0.494957 0.915340 -0.049248
C38   C     C_3   0.790835 0.882595 0.606469 -0.273135
C39   C     C_3   0.890698 0.891406 0.557568 -0.409355
C40   C     C_3   0.330648 0.556957 0.405822 -0.239015
C41   C     C_3   0.283360 0.474230 0.341446 -0.342971
C42   C     C_3   0.082758 0.612467 0.941003 0.045498
C43   C     C_1   0.993484 0.496788 0.175439 0.033474
C44   C     C_1   0.993529 0.498507 0.823663 0.124577
C45   C     C_1   0.998929 0.499986 0.748636 0.154732
C46   C     C_R   0.269983 0.031427 0.413647 0.243501
Cu1   Cu    Cu3+1 0.098280 0.475420 0.519630 1.036322
Cu2   Cu    Cu3+1 0.901720 0.524580 0.480370 1.052717
H1    H     H_    0.953910 0.314837 0.105898 0.242230
H2    H     H_    0.663964 0.286427 0.384422 0.158323
H3    H     H_    0.329265 0.240572 0.680649 0.229075
H4    H     H_    0.558496 0.708607 0.467690 0.114259
H5    H     H_    0.714002 0.800970 0.365601 0.157711
H6    H     H_    0.712732 0.379929 0.585014 0.229083
H7    H     H_    0.848951 0.556861 0.899639 0.168066
H8    H     H_    0.845748 0.553130 0.037601 0.155890
H9    H     H_    0.173912 0.622486 0.931313 0.147008
H10   H     H_    0.174294 0.624388 0.072847 0.129599
H11   H     H_    0.233671 0.195021 0.488346 0.352118
H12   H     H_    0.120432 0.430280 0.966853 0.145061
H13   H     H_    0.861750 0.894017 0.486760 0.185235
H14   H     H_    0.975283 0.969761 0.566287 0.171217
H15   H     H_    0.911093 0.816258 0.583643 0.164135
H16   H     H_    0.828608 0.897868 0.673948 0.189208
H17   H     H_    0.717867 0.793858 0.611873 0.162617
H18   H     H_    0.023788 0.145831 0.930855 0.394947
H19   H     H_    0.969547 0.201265 0.737612 0.382164
H20   H     H_    0.614522 0.097775 0.689966 0.382338
H21   H     H_    0.355675 0.450448 0.334573 0.199562
H22   H     H_    0.203100 0.394879 0.363652 0.235624
H23   H     H_    0.108879 0.411403 0.108716 0.124316
H24   H     H_    0.257976 0.516055 0.276249 0.122151
H25   H     H_    0.277208 0.604881 0.400988 0.193243
H26   H     H_    0.412887 0.626262 0.379173 0.111212
H27   H     H_    0.727219 0.783396 0.206762 0.353292
H28   H     H_    0.593710 0.201928 0.927545 0.405929
H29   H     H_    0.666834 0.321530 0.219984 0.362957
H30   H     H_    0.046013 0.809700 0.738892 0.377402
H31   H     H_    0.064429 0.680414 0.049151 0.213898
H32   H     H_    0.091187 0.893577 0.423770 0.196574
H33   H     H_    0.454343 0.236481 0.358094 0.197176
H34   H     H_    0.379437 0.800079 0.532896 0.138089
H35   H     H_    0.911505 0.111787 0.573711 0.175213
H36   H     H_    0.560446 0.841556 0.550720 0.097144
N1    N     N_R   0.246300 0.438200 0.549400 -0.244646
N2    N     N_R   0.754300 0.561180 0.451130 -0.255731
O1    O     O_R   0.972520 0.318130 0.524690 -0.452735
O2    O     O_2   0.074562 0.079305 0.368696 -0.271133
O3    O     O_3   0.270828 0.234087 0.432417 -0.568210
O4    O     O_2   0.863663 0.174013 0.012431 -0.170632
O5    O     O_2   0.889019 0.257274 0.857842 -0.224109
O6    O     O_3   0.063713 0.218405 0.953501 -0.446805
O7    O     O_2   0.176270 0.199964 0.768899 -0.265914
O8    O     O_2   0.202765 0.392324 0.764288 -0.227145
O9    O     O_3   0.008030 0.255036 0.685191 -0.509253
O10   O     O_2   0.499186 0.196490 0.758979 -0.192952
O11   O     O_2   0.406664 0.109799 0.628675 -0.306752
O12   O     O_R   0.806530 0.359650 0.491530 -0.544776
O13   O     O_3   0.639631 0.180187 0.666264 -0.506727
O14   O     O_2   0.972570 0.748616 0.312496 -0.242431
O15   O     O_2   0.786528 0.613065 0.244738 -0.239119
O16   O     O_3   0.811731 0.818590 0.233522 -0.469534
O17   O     O_2   0.619842 0.405749 0.875225 -0.218903
O18   O     O_2   0.743869 0.380972 0.789130 -0.236592
O19   O     O_3   0.683611 0.239479 0.934281 -0.351755
O20   O     O_2   0.611820 0.351734 0.046012 -0.181540
O21   O     O_2   0.736572 0.247470 0.105167 -0.219943
O22   O     O_3   0.737166 0.387253 0.192573 -0.507913
O23   O     O_R   0.083030 0.479240 0.637150 -0.414082
O24   O     O_2   0.974298 0.758653 0.902441 -0.277196
O25   O     O_2   0.192365 0.840926 0.890221 -0.195288
O26   O     O_3   0.046604 0.735439 0.768214 -0.544112
O27   O     O_R   0.917040 0.520750 0.603990 -0.525531
O28   O     O_R   0.193470 0.640350 0.508470 -0.537388
O29   O     O_R   0.027480 0.681870 0.475310 -0.479709
O30   O     O_R   0.082960 0.479250 0.396010 -0.557896
O31   O     O_R   0.916970 0.520760 0.362850 -0.411263
O32   O     O_2   0.245018 0.187647 0.278113 -0.220986
S1    S     S_3+6 0.210679 0.133319 0.369829 0.003890
S2    S     S_3+6 0.952604 0.259093 0.948428 0.093078
S3    S     S_3+6 0.158024 0.299692 0.711173 0.069663
S4    S     S_3+6 0.516567 0.202058 0.666450 0.044855
S5    S     S_3+6 0.837714 0.708709 0.295566 0.071324
S6    S     S_3+6 0.723430 0.374674 0.880980 0.136661
S7    S     S_3+6 0.731606 0.360205 0.093350 0.073966
S8    S     S_3+6 0.072982 0.740752 0.875417 0.002242

loop_
_geom_bond_atom_site_label_1
_geom_bond_atom_site_label_2
_ccdc_geom_bond_type
C1    O1    A    
Cu1   O28   S    
C4    O23   A    
C33   H7    S    
C8    C13   A    
C31   N1    A    
C27   C29   A    
C19   C20   A    
C18   C26   A    
C19   N2    A    
C12   H1    S    
C7    C8    A    
C11   H33   S    
C12   C23   S    
C19   S5    S    
C26   C27   A    
O15   S5    D    
Cu1   N1    S    
O7    S3    D    
C28   O31   A    
C38   C39   S    
C29   H6    S    
C23   C43   S    
C40   H25   S    
H11   O3    S    
C37   C42   S    
C35   S7    S    
O32   S1    D    
C28   O30   A    
C24   C29   A    
O3    S1    S    
C22   C25   A    
C34   C42   S    
C10   C46   A    
C33   S6    S    
O22   S7    S    
C2    C16   S    
C9    C10   A    
O26   S8    S    
O9    S3    S    
C5    C38   S    
C12   C32   S    
H19   O9    S    
C32   S2    S    
O17   S6    D    
C42   H9    S    
C27   S4    S    
C18   H3    S    
C38   H16   S    
C4    C45   S    
Cu1   O30   S    
C39   H13   S    
C6    H36   S    
Cu1   Cu2   S    
C4    O27   A    
O21   S7    D    
H18   O6    S    
C25   C26   A    
Cu1   O23   S    
C33   C37   S    
O19   S6    S    
C30   N1    A    
O4    S2    D    
C9    C14   A    
O11   S4    D    
C34   H31   S    
H27   O16   S    
C15   H32   S    
O20   S7    D    
C38   H17   S    
C23   C34   S    
O25   S8    D    
C30   C40   S    
C32   C37   S    
O2    S1    D    
C2    C15   A    
C31   S3    S    
Cu2   O31   S    
O24   S8    D    
Cu2   O29   S    
C40   C41   S    
C12   H23   S    
C23   C35   S    
O13   S4    S    
C3    H35   S    
Cu2   N2    S    
C32   H12   S    
O16   S5    S    
C16   O29   A    
Cu2   O12   S    
C44   C45   T    
C41   H21   S    
C25   C30   A    
C7    C9    A    
C39   H14   S    
C35   H8    S    
C1    C17   S    
H29   O22   S    
C20   H5    S    
C3    C5    A    
C16   O28   A    
C1    O12   A    
C6    C7    A    
O18   S6    D    
C39   H15   S    
C41   H24   S    
C8    C17   A    
O10   S4    D    
O14   S5    D    
C37   C44   S    
O6    S2    S    
H20   O13   S    
C11   C13   A    
C5    C6    A    
C33   C35   S    
C40   H26   S    
C46   S1    S    
C3    C17   A    
C22   C24   A    
C21   H4    S    
C2    C14   A    
C10   C11   A    
C42   S8    S    
C13   H2    S    
O8    S3    D    
C20   C21   A    
C28   C36   S    
C34   H10   S    
C14   H34   S    
O5    S2    D    
C41   H22   S    
C36   C43   T    
H30   O26   S    
C18   C31   A    
C15   C46   A    
C21   C22   A    
C24   N2    A    
H28   O19   S    
Cu1   O1    S    
Cu2   O27   S    
