data_mof_unit_5427.cif
_audit_creation_date              2012-12-10T19:46:51-0500
_audit_creation_method            fapswitch 2.2
_symmetry_space_group_name_H-M    P1
_symmetry_Int_Tables_number       1
_space_group_crystal_system       triclinic
_cell_length_a                    10.910726
_cell_length_b                    10.902188
_cell_length_c                    13.121616
_cell_angle_alpha                 90.625143
_cell_angle_beta                  90.007722
_cell_angle_gamma                 89.667511
_cell_volume                      1560.70735095

loop_
_atom_site_label
_atom_site_type_symbol
_atom_type_description
_atom_site_fract_x
_atom_site_fract_y
_atom_site_fract_z
_atom_type_partial_charge
C1    C     C_R   0.496965 0.259357 0.499262 0.806129
C2    C     C_R   0.508550 0.740097 0.500774 0.834232
C3    C     C_R   0.872460 0.499031 0.500238 -0.191600
C4    C     C_R   0.126980 0.499642 0.499375 -0.199835
C5    C     C_R   0.936762 0.429954 0.573129 -0.098850
C6    C     C_R   0.062572 0.567126 0.425063 -0.111018
C7    C     C_R   0.310892 0.216351 0.194762 -0.125897
C8    C     C_R   0.724038 0.763624 0.784918 -0.126151
C9    C     C_R   0.339323 0.167425 0.289877 -0.197859
C10   C     C_R   0.684674 0.815960 0.693923 -0.202507
C11   C     C_R   0.455201 0.114964 0.307321 0.029175
C12   C     C_R   0.574375 0.883103 0.690063 0.038322
C13   C     C_R   0.543614 0.114027 0.228963 0.475012
C14   C     C_R   0.505204 0.900661 0.779994 0.480400
C15   C     C_R   0.513366 0.161436 0.133131 -0.240087
C16   C     C_R   0.544685 0.844854 0.870927 -0.243339
C17   C     C_R   0.397459 0.212532 0.116368 -0.201651
C18   C     C_R   0.653936 0.777633 0.873176 -0.174634
C19   C     C_R   0.491684 0.932236 0.410113 -0.195035
C20   C     C_R   0.525974 0.067129 0.589345 -0.187043
C21   C     C_R   0.513746 0.872529 0.502033 -0.126110
C22   C     C_R   0.499808 0.126670 0.497877 -0.121159
C23   C     C_R   0.259586 0.500559 0.499908 0.861557
C24   C     C_R   0.740214 0.497483 0.499983 0.870348
C25   C     C_R   0.535572 0.940261 0.592597 0.050537
C26   C     C_R   0.483111 0.058667 0.406922 0.033262
C27   C     C_1   0.500167 0.500277 0.173580 0.150329
C28   C     C_1   0.499982 0.499976 0.826420 0.130965
C29   C     C_1   0.500188 0.500370 0.050674 -0.103825
C30   C     C_1   0.500065 0.500142 0.949304 -0.105309
C31   C     C_R   0.217503 0.839334 0.305294 -0.147101
C32   C     C_R   0.808844 0.137421 0.681199 -0.140813
C33   C     C_R   0.159154 0.765290 0.376421 -0.143567
C34   C     C_R   0.862922 0.220198 0.614580 -0.150998
C35   C     C_R   0.127937 0.644317 0.350531 0.151029
C36   C     C_R   0.873062 0.344356 0.642263 0.181271
C37   C     C_R   0.157529 0.597514 0.253420 -0.127139
C38   C     C_R   0.828267 0.384835 0.737243 -0.080954
C39   C     C_R   0.217702 0.671423 0.183006 -0.135551
C40   C     C_R   0.772689 0.301911 0.803175 -0.151446
C41   C     C_R   0.247523 0.792381 0.208880 -0.108566
C42   C     C_R   0.763241 0.178187 0.775267 -0.129830
C43   C     C_R   0.934405 0.567683 0.426052 0.203319
C44   C     C_R   0.064337 0.431455 0.573482 0.205581
Cu1   Cu    Cu3+1 0.499990 0.499990 0.592680 0.974251
Cu2   Cu    Cu3+1 0.500010 0.500010 0.407320 0.982109
H1    H     H_    0.293647 0.849779 0.154259 0.126860
H2    H     H_    0.720828 0.113867 0.826487 0.124155
H3    H     H_    0.579902 0.159041 0.071913 0.136566
H4    H     H_    0.490558 0.852700 0.939812 0.135591
H5    H     H_    0.477839 0.880054 0.340242 0.170820
H6    H     H_    0.542502 0.119950 0.658359 0.169156
H7    H     H_    0.239481 0.933056 0.325126 0.135911
H8    H     H_    0.802402 0.041717 0.659704 0.137651
H9    H     H_    0.137048 0.802426 0.451124 0.122152
H10   H     H_    0.898194 0.187518 0.542007 0.118581
H11   H     H_    0.134211 0.504097 0.232638 0.110384
H12   H     H_    0.836569 0.480176 0.759969 0.107969
H13   H     H_    0.240851 0.635080 0.108324 0.128569
H14   H     H_    0.737683 0.333370 0.876137 0.124951
H15   H     H_    0.375063 0.250157 0.042788 0.147909
H16   H     H_    0.683951 0.735768 0.943385 0.154034
H17   H     H_    0.221480 0.256716 0.181652 0.129658
H18   H     H_    0.808979 0.711968 0.786922 0.129365
H19   H     H_    0.271027 0.169682 0.349803 0.124717
H20   H     H_    0.740667 0.804833 0.626462 0.118074
N1    N     N_1   0.500030 0.500030 0.268070 -0.131490
N2    N     N_1   0.499970 0.499970 0.731930 -0.135138
O1    O     O_R   0.499980 0.319630 0.578260 -0.587518
O2    O     O_R   0.500020 0.680370 0.421740 -0.572951
O3    O     O_R   0.500000 0.319650 0.421740 -0.587792
O4    O     O_R   0.500000 0.680350 0.578260 -0.564573
O5    O     O_R   0.319630 0.500000 0.578260 -0.572856
O6    O     O_R   0.680370 0.500000 0.421740 -0.558976
O7    O     O_R   0.319650 0.500020 0.421740 -0.571768
O8    O     O_R   0.680350 0.499980 0.578260 -0.586811
O9    O     O_3   0.657748 0.062121 0.245073 -0.598649
C45   C     C_3   0.740643 0.156431 0.271089 0.079610
H21   H     H_    0.704348 0.216577 0.333558 0.152386
H22   H     H_    0.760760 0.213347 0.203235 0.140369
C46   C     C_3   0.859809 0.099473 0.308446 -0.823617
H23   H     H_    0.899569 0.038574 0.248470 0.258017
H24   H     H_    0.926559 0.172846 0.327302 0.194889
H25   H     H_    0.842288 0.045047 0.377954 0.243031
O10   O     O_3   0.395307 0.964846 0.775069 -0.583777
C47   C     C_3   0.391691 0.059388 0.849657 0.032039
H26   H     H_    0.483150 0.102275 0.862707 0.122989
H27   H     H_    0.356587 0.022841 0.922768 0.158238
C48   C     C_3   0.304937 0.159458 0.813866 -0.771135
H28   H     H_    0.211997 0.121284 0.800926 0.260933
H29   H     H_    0.299057 0.233693 0.872156 0.186341
H30   H     H_    0.339400 0.198760 0.741704 0.251288
N3    N     N_2   0.867014 0.636009 0.352121 -0.411468
H31   H     H_    0.904587 0.636586 0.280069 0.252190
C49   C     C_3   0.826131 0.756132 0.386011 -0.639730
H32   H     H_    0.768474 0.798479 0.326006 0.250470
H33   H     H_    0.905769 0.816401 0.401387 0.210118
H34   H     H_    0.770133 0.748862 0.456016 0.202324
N4    N     N_2   0.128465 0.359177 0.646426 -0.418264
H35   H     H_    0.204154 0.310824 0.620964 0.247003
C50   C     C_3   0.138390 0.411756 0.748035 -0.638177
H36   H     H_    0.102578 0.345462 0.804060 0.224970
H37   H     H_    0.085242 0.498730 0.756039 0.215982
H38   H     H_    0.235812 0.431131 0.766087 0.228476

loop_
_geom_bond_atom_site_label_1
_geom_bond_atom_site_label_2
_ccdc_geom_bond_type
C33   H9    S    
C34   H10   S    
N3    H31   S    
C40   H14   S    
C27   C29   S    
C49   H32   S    
C46   H23   S    
C49   H34   S    
C39   C41   A    
O9    C45   S    
C3    C43   A    
C1    O3    A    
Cu1   O8    S    
Cu1   O5    S    
C35   C37   A    
C23   O5    A    
C33   C35   A    
C44   N4    S    
C45   H22   S    
C20   C25   A    
C5    C36   S    
C6    C35   S    
C7    C9    A    
C19   C26   A    
C17   H15   S    
C38   H12   S    
C7    C17   A    
C31   C33   A    
C48   H29   S    
C34   C36   A    
C40   C42   A    
C1    C22   S    
C50   H37   S    
C1    O1    A    
Cu1   O4    S    
C3    C24   S    
C2    C21   S    
C2    O4    A    
C32   H8    S    
Cu2   O7    S    
C46   H24   S    
C10   H20   S    
C37   C39   A    
C13   O9    S    
Cu1   O1    S    
C50   H36   S    
C4    C6    A    
C23   O7    A    
C4    C23   S    
C47   H26   S    
C24   O8    A    
C4    C44   A    
C11   C26   S    
O10   C47   S    
C8    C18   A    
C32   C34   A    
C29   C30   T    
C19   H5    S    
N4    H35   S    
C39   H13   S    
Cu1   N2    S    
C41   H1    S    
C42   H2    S    
C31   H7    S    
C48   H30   S    
C9    C11   A    
C7    H17   S    
Cu2   O3    S    
C10   C12   A    
C8    H18   S    
C16   C18   A    
N4    C50   S    
C5    C44   A    
C12   C14   A    
C50   H38   S    
C6    C43   A    
C13   C15   A    
C14   C16   A    
C20   C22   A    
Cu2   O6    S    
C46   H25   S    
C15   C17   A    
C21   C25   A    
C31   C41   A    
C28   N2    T    
C45   H21   S    
C18   H16   S    
C14   O10   S    
C16   H4    S    
C3    C5    A    
C47   C48   S    
C49   H33   S    
C12   C25   S    
C36   C38   A    
Cu2   N1    S    
C20   H6    S    
C38   C40   A    
C11   C13   A    
C45   C46   S    
C24   O6    A    
N3    C49   S    
C28   C30   S    
C43   N3    S    
C47   H27   S    
C15   H3    S    
C9    H19   S    
Cu2   O2    S    
C27   N1    T    
Cu1   Cu2   S    
C8    C10   A    
C22   C26   A    
C32   C42   A    
C48   H28   S    
C2    O2    A    
C37   H11   S    
C19   C21   A    
