data_mof_unit_29292.cif
_audit_creation_date              2012-12-10T17:21:39-0500
_audit_creation_method            fapswitch 2.2
_symmetry_space_group_name_H-M    P1
_symmetry_Int_Tables_number       1
_space_group_crystal_system       triclinic
_cell_length_a                    10.732144
_cell_length_b                    10.861137
_cell_length_c                    9.576743
_cell_angle_alpha                 90.507164
_cell_angle_beta                  90.006319
_cell_angle_gamma                 92.713829
_cell_volume                      1115.00084329

loop_
_atom_site_label
_atom_site_type_symbol
_atom_type_description
_atom_site_fract_x
_atom_site_fract_y
_atom_site_fract_z
_atom_type_partial_charge
C1    C     C_R   0.510250 0.263215 0.500112 0.798613
C2    C     C_3   0.878139 0.500139 0.499115 0.172961
C3    C     C_3   0.933880 0.616856 0.575033 -0.395689
C4    C     C_3   0.928636 0.499125 0.346965 -0.368275
C5    C     C_R   0.588682 0.124514 0.751711 -0.164923
C6    C     C_R   0.577420 0.067456 0.881039 -0.159229
C7    C     C_R   0.516084 0.952486 0.890666 -0.141415
C8    C     C_R   0.477743 0.889317 0.769562 -0.170010
C9    C     C_R   0.501355 0.940411 0.635585 0.093929
C10   C     C_R   0.538584 0.066356 0.629553 0.097533
C11   C     C_R   0.522191 0.129585 0.502266 -0.126967
C12   C     C_R   0.259877 0.499578 0.499785 0.758753
C13   C     C_R   0.499926 0.062791 0.378503 -0.220483
C14   C     C_R   0.489371 0.935554 0.380486 -0.221051
C15   C     C_R   0.489590 0.872506 0.507501 -0.121120
C16   C     C_R   0.666449 0.663978 0.145706 -0.166294
C17   C     C_R   0.747993 0.743704 0.074022 -0.232171
C18   C     C_R   0.748127 0.743386 0.930162 -0.201997
C19   C     C_R   0.666479 0.663564 0.857188 -0.153725
C20   C     C_R   0.581823 0.580524 0.925888 0.194798
C21   C     C_R   0.581789 0.580589 0.075596 0.211582
C22   C     C_R   0.422385 0.423133 0.073184 -0.078172
C23   C     C_R   0.493641 0.737687 0.501736 0.779772
C24   C     C_R   0.422423 0.423168 0.925124 -0.071583
C25   C     C_R   0.740119 0.500305 0.499816 0.730535
C26   C     C_3   0.066161 0.384284 0.575168 -0.381692
C27   C     C_3   0.922292 0.384173 0.574555 -0.377123
C28   C     C_3   0.077740 0.617063 0.574106 -0.374582
C29   C     C_3   0.071221 0.498083 0.346927 -0.372741
C30   C     C_3   0.121834 0.499732 0.499048 0.159271
Cu1   Cu    Cu3+1 0.499990 0.499990 0.640660 0.910321
Cu2   Cu    Cu3+1 0.500010 0.500010 0.359340 0.917175
H1    H     H_    0.100036 0.383266 0.685007 0.167675
H2    H     H_    0.899333 0.582096 0.290419 0.167735
H3    H     H_    0.116172 0.700930 0.520173 0.148068
H4    H     H_    0.902563 0.701258 0.522917 0.142208
H5    H     H_    0.490239 0.108815 0.279436 0.161581
H6    H     H_    0.638720 0.213177 0.748594 0.156810
H7    H     H_    0.500393 0.910881 0.991888 0.138582
H8    H     H_    0.425532 0.803217 0.784498 0.167034
H9    H     H_    0.478571 0.886604 0.281826 0.164147
H10   H     H_    0.358817 0.360185 0.127956 0.132080
H11   H     H_    0.097117 0.299050 0.522863 0.148602
H12   H     H_    0.674474 0.671940 0.255801 0.200081
H13   H     H_    0.811542 0.806285 0.130863 0.145524
H14   H     H_    0.811452 0.805997 0.874329 0.147718
H15   H     H_    0.673306 0.671970 0.747212 0.200918
H16   H     H_    0.358915 0.360195 0.869024 0.139752
H17   H     H_    0.883569 0.299300 0.521104 0.145796
H18   H     H_    0.887541 0.382207 0.684092 0.169737
H19   H     H_    0.112811 0.621177 0.683528 0.170207
H20   H     H_    0.900567 0.619430 0.684992 0.170912
H21   H     H_    0.109752 0.579933 0.289216 0.171002
H22   H     H_    0.100752 0.414247 0.290453 0.162916
H23   H     H_    0.889909 0.416379 0.289343 0.171502
N1    N     N_R   0.501200 0.501210 0.147910 -0.197044
N2    N     N_R   0.501250 0.501290 0.852040 -0.202933
O1    O     O_R   0.499990 0.319640 0.618810 -0.584053
O2    O     O_R   0.500000 0.319660 0.381240 -0.579660
O3    O     O_R   0.317680 0.499970 0.618790 -0.585765
O4    O     O_R   0.317700 0.499990 0.381210 -0.584870
O5    O     O_R   0.500000 0.680340 0.618760 -0.610309
O6    O     O_R   0.500010 0.680360 0.381190 -0.596664
O7    O     O_R   0.682300 0.500010 0.618790 -0.606323
O8    O     O_R   0.682320 0.500030 0.381210 -0.603165
H24   H     H_    0.612865 0.114146 0.974248 0.134199

loop_
_geom_bond_atom_site_label_1
_geom_bond_atom_site_label_2
_ccdc_geom_bond_type
Cu1   O3    S    
C26   H11   S    
C21   N1    A    
C2    C4    S    
C3    H20   S    
C16   C21   A    
C29   C30   S    
C9    C10   A    
C16   H12   S    
C26   H1    S    
C13   H5    S    
C4    C29   S    
C1    C11   S    
C27   H18   S    
C6    H24   S    
Cu1   N2    S    
C19   C20   A    
C15   C23   S    
C17   C18   A    
C9    C15   A    
C25   O8    A    
C5    C10   A    
C22   H10   S    
C1    O1    A    
C12   O4    A    
C11   C13   A    
Cu1   O5    S    
C26   C27   S    
C2    C27   S    
Cu2   O8    S    
C29   H21   S    
C3    H4    S    
C14   H9    S    
C18   H14   S    
Cu1   O1    S    
C28   C30   S    
C3    C28   S    
C17   H13   S    
Cu2   O4    S    
C26   C30   S    
C2    C25   S    
C22   C24   A    
C1    O2    A    
C4    H23   S    
C5    C6    A    
C28   H19   S    
C4    H2    S    
C23   O6    A    
C16   C17   A    
C29   H22   S    
C22   N1    A    
C24   H16   S    
C7    C8    A    
C5    H6    S    
C20   C21   A    
Cu2   O6    S    
Cu1   Cu2   S    
C18   C19   A    
C10   C11   A    
C19   H15   S    
C7    H7    S    
C14   C15   A    
C24   N2    A    
C2    C3    S    
C8    H8    S    
Cu2   O2    S    
C12   C30   S    
C20   N2    A    
C13   C14   A    
Cu1   O7    S    
Cu2   N1    S    
C23   O5    A    
C6    C7    A    
C27   H17   S    
C28   H3    S    
C8    C9    A    
C25   O7    A    
C12   O3    A    
