data_mof_unit_48526.cif
_audit_creation_date              2012-12-10T17:36:48-0500
_audit_creation_method            fapswitch 2.2
_symmetry_space_group_name_H-M    P1
_symmetry_Int_Tables_number       1
_space_group_crystal_system       triclinic
_cell_length_a                    10.597161
_cell_length_b                    12.513747
_cell_length_c                    13.187412
_cell_angle_alpha                 117.824008
_cell_angle_beta                  73.847686
_cell_angle_gamma                 100.82067
_cell_volume                      1482.09577505

loop_
_atom_site_label
_atom_site_type_symbol
_atom_type_description
_atom_site_fract_x
_atom_site_fract_y
_atom_site_fract_z
_atom_type_partial_charge
C1    C     C_R   0.518667 0.855029 0.285398 0.753679
C2    C     C_3   0.015548 0.896286 0.497710 0.166364
C3    C     C_3   0.970233 0.913681 0.404988 -0.234010
C4    C     C_3   0.875534 0.005160 0.505738 -0.052689
C5    C     C_R   0.265699 0.318951 0.011097 -0.158549
C6    C     C_R   0.441096 0.232022 0.840020 -0.166042
C7    C     C_R   0.657650 0.798107 0.086555 -0.243899
C8    C     C_R   0.695677 0.716683 0.969733 -0.136015
C9    C     C_R   0.627505 0.603086 0.922142 0.177577
C10   C     C_R   0.517771 0.569751 0.997566 0.039150
C11   C     C_R   0.468874 0.662466 0.111832 0.044487
C12   C     C_R   0.739381 0.001786 0.502154 0.792819
C13   C     C_R   0.453910 0.450407 0.967861 0.081558
C14   C     C_R   0.330878 0.434136 0.039173 0.106125
C15   C     C_R   0.275427 0.532103 0.140464 -0.203913
C16   C     C_R   0.344809 0.643819 0.177856 -0.179392
C17   C     C_R   0.511103 0.345373 0.875014 -0.285879
C18   C     C_R   0.319627 0.217790 0.912702 0.384515
C19   C     C_R   0.544696 0.772673 0.158571 -0.087388
C20   C     C_R   0.647812 0.304598 0.279072 0.065413
C21   C     C_R   0.354665 0.782265 0.672062 -0.047428
C22   C     C_R   0.363943 0.716015 0.730167 0.354612
C23   C     C_R   0.477584 0.145473 0.714888 0.804792
C24   C     C_R   0.434074 0.612508 0.667139 -0.159524
C25   C     C_R   0.477394 0.563962 0.544239 -0.103538
C26   C     C_R   0.487600 0.646039 0.495013 0.155695
C27   C     C_R   0.523551 0.443423 0.470417 -0.107600
C28   C     C_R   0.575304 0.409693 0.349065 -0.006376
C29   C     C_R   0.558654 0.487665 0.304563 0.384143
C30   C     C_R   0.563322 0.612056 0.378840 0.070084
C31   C     C_R   0.500033 0.347155 0.504539 0.253515
C32   C     C_R   0.658950 0.232500 0.332917 0.290261
C33   C     C_R   0.259492 0.001171 0.502675 0.798407
C34   C     C_3   0.979236 0.111396 0.514645 -0.127073
C35   C     C_3   0.076300 0.019488 0.413896 -0.242728
C36   C     C_3   0.121450 0.000665 0.505258 -0.072661
C37   C     C_3   0.025090 0.090187 0.603977 0.392941
C38   C     C_3   0.918192 0.987071 0.598601 -0.207704
Cu1   Cu    Cu3+1 0.529830 0.098270 0.475420 0.915535
Cu2   Cu    Cu3+1 0.470170 0.901730 0.524580 0.919154
H1    H     H_    0.142661 0.032171 0.338155 0.160395
H2    H     H_    0.610237 0.348352 0.826558 0.185927
H3    H     H_    0.717482 0.881640 0.120751 0.138767
H4    H     H_    0.779282 0.743433 0.915108 0.147948
H5    H     H_    0.299805 0.716423 0.258967 0.146854
H6    H     H_    0.303033 0.863871 0.719167 0.130599
H7    H     H_    0.961844 0.200992 0.525148 0.140404
H8    H     H_    0.460178 0.576334 0.717183 0.146500
H9    H     H_    0.850939 0.976716 0.675221 0.142567
H10   H     H_    0.945576 0.845931 0.320686 0.143587
H11   H     H_    0.180624 0.521000 0.194345 0.133589
H12   H     H_    0.172155 0.307110 0.066166 0.145928
N1    N     N_R   0.575030 0.246270 0.438190 -0.224499
N2    N     N_R   0.425760 0.754330 0.561190 -0.203648
O1    O     O_R   0.537510 0.972500 0.318130 -0.588443
O2    O     O_R   0.487140 0.806530 0.359650 -0.582819
O3    O     O_R   0.708330 0.082950 0.479220 -0.586615
O4    O     O_R   0.657960 0.916980 0.520740 -0.597032
O5    O     O_R   0.512860 0.193470 0.640350 -0.596440
O6    O     O_R   0.462490 0.027500 0.681870 -0.580627
O7    O     O_R   0.342040 0.083020 0.479260 -0.582816
O8    O     O_R   0.291670 0.917050 0.520780 -0.576233
C39   C     C_3   0.664696 0.534395 0.788949 -0.439214
C40   C     C_3   0.800378 0.483310 0.745368 -0.813451
H13   H     H_    0.879189 0.557553 0.755497 0.246593
H14   H     H_    0.811606 0.435713 0.794992 0.260044
H15   H     H_    0.814242 0.418739 0.650704 0.242832
H16   H     H_    0.588693 0.463205 0.751974 0.205903
H17   H     H_    0.669419 0.598111 0.750826 0.202410
C41   C     C_3   0.766288 0.143679 0.275427 -0.358550
C42   C     C_3   0.896418 0.208448 0.308415 -0.872040
H18   H     H_    0.883244 0.255459 0.405440 0.256345
H19   H     H_    0.971986 0.141571 0.271651 0.249587
H20   H     H_    0.932336 0.276581 0.273472 0.238648
H21   H     H_    0.743390 0.068972 0.299236 0.250874
H22   H     H_    0.779355 0.095525 0.178781 0.172833
O9    O     O_3   0.555969 0.445475 0.188143 -0.747811
H23   H     H_    0.553860 0.515749 0.173595 0.337106
C43   C     C_3   0.720424 0.272711 0.151434 -0.355046
C44   C     C_3   0.640525 0.175936 0.065453 -0.748352
H24   H     H_    0.543668 0.208437 0.079640 0.287532
H25   H     H_    0.694913 0.154859 0.973845 0.232726
H26   H     H_    0.623524 0.091517 0.076837 0.230190
H27   H     H_    0.745474 0.351604 0.132024 0.247986
H28   H     H_    0.819679 0.242242 0.131182 0.184375
C45   C     C_3   0.370506 0.342930 0.591745 -0.296782
C46   C     C_3   0.250417 0.338876 0.546583 -0.800698
H29   H     H_    0.250501 0.259368 0.460018 0.255386
H30   H     H_    0.249046 0.422241 0.537323 0.243279
H31   H     H_    0.158993 0.332153 0.609983 0.271699
H32   H     H_    0.356690 0.268044 0.613481 0.259415
H33   H     H_    0.362905 0.414810 0.681183 0.160789
O10   O     O_3   0.312242 0.753232 0.848779 -0.728535
H34   H     H_    0.266995 0.828547 0.880335 0.317056
C47   C     C_3   0.699225 0.677630 0.360051 -0.345635
C48   C     C_3   0.811338 0.597252 0.270832 -0.949835
H35   H     H_    0.823118 0.526820 0.295584 0.253209
H36   H     H_    0.793138 0.555692 0.180826 0.278890
H37   H     H_    0.906436 0.651249 0.268507 0.239446
H38   H     H_    0.695370 0.744247 0.328512 0.230512
H39   H     H_    0.731311 0.723497 0.444665 0.224810
O11   O     O_3   0.056214 0.182729 0.707918 -0.749141
H40   H     H_    0.084864 0.141540 0.745426 0.333579
C49   C     C_3   0.032465 0.772694 0.488345 -0.390238
C50   C     C_3   0.032194 0.779481 0.607141 -0.802301
H41   H     H_    0.100739 0.854453 0.652629 0.267110
H42   H     H_    0.931632 0.794287 0.664139 0.234347
H43   H     H_    0.062589 0.692859 0.593989 0.237124
H44   H     H_    0.950225 0.708164 0.454789 0.204643
H45   H     H_    0.125350 0.736775 0.424841 0.209055
O12   O     O_3   0.249374 0.107946 0.889030 -0.761775
H46   H     H_    0.313997 0.048034 0.863992 0.320760

loop_
_geom_bond_atom_site_label_1
_geom_bond_atom_site_label_2
_ccdc_geom_bond_type
C46   H29   S    
O10   H34   S    
Cu2   O6    S    
C34   C37   S    
C47   C48   S    
C7    C8    A    
C38   H9    S    
O9    H23   S    
C23   O5    A    
C50   H42   S    
C11   C19   A    
C29   C30   A    
C36   C37   S    
C1    O2    A    
C45   H32   S    
C49   H44   S    
C15   C16   A    
Cu1   O3    S    
C48   H37   S    
C33   C36   S    
Cu2   O8    S    
C30   C47   S    
C34   C35   S    
C17   H2    S    
Cu1   O1    S    
C39   H17   S    
C33   O8    A    
Cu2   O2    S    
C48   H36   S    
C5    H12   S    
C41   C42   S    
C15   H11   S    
C4    C12   S    
C9    C10   A    
C20   C43   S    
C12   O4    A    
C31   C45   S    
C9    C39   S    
C21   C22   A    
C43   H27   S    
C44   H26   S    
C6    C18   A    
C26   N2    A    
C49   C50   S    
C3    H10   S    
C23   O6    A    
Cu1   O7    S    
C50   H43   S    
C4    C34   S    
C1    C19   S    
Cu2   O4    S    
C27   C31   A    
C24   H8    S    
C40   H15   S    
C24   C25   A    
C44   H25   S    
Cu1   Cu2   S    
C42   H19   S    
C45   C46   S    
C8    C9    A    
C32   C41   S    
C5    C18   A    
C20   C28   A    
C25   C26   A    
C37   O11   S    
C43   C44   S    
C35   C36   S    
C40   H14   S    
C37   C38   S    
C11   C16   A    
C2    C38   S    
C3    C35   S    
Cu1   O5    S    
C48   H35   S    
C31   N1    A    
C5    C14   A    
C12   O3    A    
C4    C38   S    
C2    C49   S    
C26   C30   A    
C7    C19   A    
C46   H30   S    
C41   H22   S    
C22   O10   S    
C22   C24   A    
C3    C4    S    
C32   N1    A    
C43   H28   S    
C21   H6    S    
C20   C32   A    
C2    C36   S    
C7    H3    S    
C6    C17   A    
C39   H16   S    
C28   C29   A    
O12   H46   S    
C47   H38   S    
C8    H4    S    
C44   H24   S    
C10   C13   A    
C16   H5    S    
C42   H20   S    
C25   C27   A    
C50   H41   S    
C18   O12   S    
Cu2   N2    S    
C13   C17   A    
C21   N2    A    
C40   H13   S    
C2    C3    S    
C1    O1    A    
C42   H18   S    
C45   H33   S    
C49   H45   S    
Cu1   N1    S    
C6    C23   S    
O11   H40   S    
C35   H1    S    
C10   C11   A    
C39   C40   S    
C29   O9    S    
C33   O7    A    
C46   H31   S    
C41   H21   S    
C14   C15   A    
C34   H7    S    
C13   C14   A    
C47   H39   S    
C27   C28   A    
