data_mof_unit_41042.cif
_audit_creation_date              2012-12-11T14:36:21-0500
_audit_creation_method            fapswitch 2.2
_symmetry_space_group_name_H-M    P1
_symmetry_Int_Tables_number       1
_space_group_crystal_system       triclinic
_cell_length_a                    13.498557
_cell_length_b                    13.565684
_cell_length_c                    27.45151
_cell_angle_alpha                 90.552862
_cell_angle_beta                  89.843361
_cell_angle_gamma                 60.265177
_cell_volume                      4364.59240636

loop_
_atom_site_label
_atom_site_type_symbol
_atom_type_description
_atom_site_fract_x
_atom_site_fract_y
_atom_site_fract_z
_atom_type_partial_charge
C1    C     C_R   0.620281 0.101128 0.570089 0.553374
C2    C     C_1   0.644332 0.713941 0.659532 -0.014869
C3    C     C_2   0.908853 0.736646 0.201323 0.254038
C4    C     C_2   0.914413 0.725014 0.306505 0.263330
C5    C     C_3   0.299608 0.687400 0.230680 -0.125578
C6    C     C_3   0.975443 0.475977 0.156577 -0.042023
C7    C     C_3   0.287801 0.396125 0.199015 -0.083256
C8    C     C_2   0.118747 0.362637 0.397437 0.254972
C9    C     C_2   0.481698 0.345630 0.400657 0.254492
C10   C     C_2   0.980873 0.933593 0.315521 0.199210
C11   C     C_3   0.073219 0.160572 0.738627 -0.100232
C12   C     C_R   0.599045 0.780366 0.568857 0.550714
C13   C     C_3   0.152587 0.068600 0.775006 -0.098634
C14   C     C_1   0.099415 0.199628 0.902359 -0.007707
C15   C     C_1   0.229088 0.137121 0.617662 -0.006169
C16   C     C_3   0.071630 0.253562 0.772278 -0.106642
C17   C     C_3   0.151490 0.161677 0.807752 0.053684
C18   C     C_3   0.177154 0.243456 0.745413 -0.102492
C19   C     C_3   0.178639 0.150530 0.712482 0.052644
C20   C     C_1   0.627900 0.737312 0.617111 0.005957
C21   C     C_3   0.256766 0.151567 0.781538 -0.099144
C22   C     C_3   0.258485 0.058210 0.747934 -0.105403
C23   C     C_1   0.128667 0.177496 0.860299 -0.050406
C24   C     C_R   0.277896 0.121520 0.569729 0.554554
C25   C     C_1   0.200787 0.144718 0.659870 -0.053939
C26   C     C_3   0.618188 0.280618 0.739910 -0.098364
C27   C     C_3   0.557164 0.246151 0.778025 0.320627
C28   C     C_1   0.692267 0.208338 0.902886 0.001299
C29   C     C_1   0.636225 0.133623 0.617998 0.000003
C30   C     C_3   0.729294 0.218631 0.770111 -0.142067
C31   C     C_3   0.743835 0.567906 0.767665 -0.111182
C32   C     C_3   0.666026 0.185963 0.807908 0.068184
C33   C     C_3   0.764168 0.106223 0.741957 -0.112143
C34   C     C_3   0.653091 0.167865 0.712700 0.010183
C35   C     C_3   0.701178 0.073834 0.780469 -0.131245
C36   C     C_R   0.624424 0.102416 0.432893 0.559581
C37   C     C_3   0.589880 0.134612 0.750455 -0.094296
C38   C     C_1   0.676375 0.197162 0.860526 -0.014622
C39   C     C_1   0.645399 0.152767 0.660199 -0.048532
C40   C     C_R   0.725761 0.725841 0.356949 -0.131148
C41   C     C_R   0.733154 0.716713 0.305763 -0.028997
C42   C     C_3   0.678494 0.661520 0.806571 0.011341
C43   C     C_R   0.733775 0.710558 0.202068 -0.086233
C44   C     C_R   0.817443 0.726477 0.227635 0.003214
C45   C     C_R   0.818792 0.725309 0.279483 0.034352
C46   C     C_R   0.731631 0.701183 0.150058 -0.054821
C47   C     C_R   0.671967 0.649883 0.130175 0.000811
C48   C     C_R   0.602141 0.776153 0.430272 0.550376
C49   C     C_R   0.564671 0.694274 0.357409 -0.115214
C50   C     C_R   0.568454 0.686831 0.306996 -0.020220
C51   C     C_R   0.651199 0.700469 0.280691 0.035319
C52   C     C_R   0.485663 0.672195 0.282998 -0.116953
C53   C     C_3   0.631076 0.611772 0.739010 -0.135948
C54   C     C_R   0.482363 0.670913 0.232010 0.277808
C55   C     C_R   0.569450 0.677512 0.206049 0.032284
C56   C     C_R   0.652046 0.696000 0.229680 -0.005375
C57   C     C_R   0.580728 0.655415 0.156646 -0.118309
C58   C     C_R   0.637260 0.722434 0.382148 0.009837
C59   C     C_R   0.208849 0.060831 0.360107 -0.124392
C60   C     C_R   0.274528 0.122269 0.432324 0.573526
C61   C     C_R   0.185028 0.074591 0.310451 0.035351
C62   C     C_R   0.148356 0.098681 0.209478 0.009678
C63   C     C_R   0.161182 0.001964 0.232922 -0.122746
C64   C     C_3   0.657461 0.695019 0.711974 0.067373
C65   C     C_R   0.182360 0.988843 0.282936 -0.110487
C66   C     C_R   0.122005 0.114950 0.159865 -0.178543
C67   C     C_R   0.102452 0.215348 0.137384 -0.012939
C68   C     C_R   0.166192 0.257391 0.366478 0.003700
C69   C     C_R   0.165705 0.263365 0.315409 -0.078493
C70   C     C_R   0.170257 0.173177 0.287483 0.036338
C71   C     C_R   0.167192 0.353406 0.291459 -0.116099
C72   C     C_3   0.767826 0.653079 0.740340 0.320754
C73   C     C_R   0.166511 0.357565 0.240938 0.285626
C74   C     C_R   0.150199 0.277863 0.213480 0.003499
C75   C     C_3   0.566195 0.704395 0.778601 -0.114734
C76   C     C_R   0.157470 0.182654 0.236662 -0.018906
C77   C     C_R   0.118839 0.295885 0.164365 0.254327
C78   C     C_R   0.207014 0.149386 0.387571 0.025415
C79   C     C_R   0.577526 0.257481 0.370958 0.000759
C80   C     C_R   0.592017 0.278508 0.321830 -0.009132
C81   C     C_R   0.608373 0.302271 0.220535 0.010800
C82   C     C_R   0.520524 0.388196 0.247743 -0.142577
C83   C     C_R   0.511689 0.377417 0.297728 -0.139493
C84   C     C_3   0.704954 0.745295 0.779736 -0.075300
C85   C     C_R   0.612233 0.310196 0.169692 -0.145600
C86   C     C_3   0.592631 0.787931 0.750869 -0.140723
C87   C     C_R   0.701715 0.222917 0.142925 -0.007906
C88   C     C_R   0.756394 0.077503 0.365936 -0.116111
C89   C     C_R   0.776201 0.100609 0.318714 0.017768
C90   C     C_R   0.688269 0.196289 0.295268 0.029498
C91   C     C_R   0.876768 0.024987 0.292536 0.033497
C92   C     C_R   0.879692 0.036496 0.242187 -0.112020
C93   C     C_R   0.787218 0.123481 0.218115 -0.005055
C94   C     C_R   0.694944 0.207793 0.244704 0.059530
C95   C     C_R   0.787981 0.129086 0.167731 -0.117786
C96   C     C_1   0.697153 0.610376 0.900741 -0.002219
C97   C     C_1   0.688102 0.638392 0.858791 -0.049403
C98   C     C_R   0.654386 0.149683 0.390666 -0.003567
C99   C     C_R   0.049523 0.236253 0.949927 0.543907
C100  C     C_R   0.711693 0.563255 0.948359 0.558389
C101  C     C_R   0.722447 0.225708 0.950937 0.548941
C102  C     C_R   0.046448 0.246684 0.089243 0.548180
C103  C     C_R   0.705190 0.578807 0.085316 0.580303
C104  C     C_R   0.723056 0.236723 0.091540 0.546037
C105  C     C_3   0.367941 0.372016 0.763784 -0.125208
C106  C     C_2   0.767283 0.764416 0.116834 0.190366
C107  C     C_3   0.963400 0.540043 0.734188 -0.123983
Cr1   Cr    Cr6+3 0.417550 0.169090 0.500530 1.099266
Cr2   Cr    Cr6+3 0.669180 0.913420 0.499920 1.053711
Cr3   Cr    Cr6+3 0.413260 0.917540 0.499520 1.048278
Cr4   Cr    Cr6+3 0.909170 0.177380 0.020380 1.031467
Cr5   Cr    Cr6+3 0.912710 0.429210 0.018220 1.084416
Cr6   Cr    Cr6+3 0.657170 0.432570 0.019030 1.040907
H1    H     H_    0.736543 0.798736 0.796930 0.109103
H2    H     H_    0.782661 0.744575 0.377479 0.122345
H3    H     H_    0.523523 0.631456 0.139524 0.198886
H4    H     H_    0.424517 0.661272 0.304488 0.097382
H5    H     H_    0.497585 0.688980 0.377021 0.141089
H6    H     H_    0.109684 0.052882 0.139626 0.136134
H7    H     H_    0.234661 0.979441 0.376669 0.148109
H8    H     H_    0.154110 0.937258 0.212419 0.105417
H9    H     H_    0.532076 0.878363 0.743224 0.099574
H10   H     H_    0.194189 0.913216 0.300799 0.117930
H11   H     H_    0.176612 0.417570 0.311133 0.145950
H12   H     H_    0.332280 0.147561 0.799476 0.130110
H13   H     H_    0.547768 0.384878 0.151313 0.135243
H14   H     H_    0.455711 0.461161 0.229595 0.156529
H15   H     H_    0.439310 0.445601 0.316482 0.101370
H16   H     H_    0.860167 0.061877 0.148158 0.148709
H17   H     H_    0.482528 0.725992 0.795083 0.124372
H18   H     H_    0.955132 0.978054 0.221566 0.138811
H19   H     H_    0.815360 0.997024 0.381877 0.187768
H20   H     H_    0.600188 0.557793 0.721726 0.111351
H21   H     H_    0.804296 0.477522 0.775426 0.084373
H22   H     H_    0.143127 0.996336 0.787845 0.110745
H23   H     H_    0.185522 0.316136 0.732436 0.084741
H24   H     H_    0.997629 0.164951 0.720605 0.107400
H25   H     H_    0.334291 0.976935 0.736899 0.101975
H26   H     H_    0.368099 0.310806 0.736458 0.104710
H27   H     H_    0.381365 0.437218 0.745467 0.120163
H28   H     H_    0.282251 0.416205 0.781245 0.140741
H29   H     H_    0.775443 0.835150 0.130649 0.125253
H30   H     H_    0.963406 0.463181 0.719907 0.125407
H31   H     H_    0.967362 0.539818 0.774713 0.109815
H32   H     H_    0.041484 0.538082 0.720133 0.142207
H33   H     H_    0.948194 0.688537 0.168521 0.115418
H34   H     H_    0.994846 0.333081 0.784115 0.087262
H35   H     H_    0.897237 0.784927 0.336111 0.094924
H36   H     H_    0.268348 0.769302 0.249652 0.107733
H37   H     H_    0.308150 0.622297 0.257065 0.126957
H38   H     H_    0.234097 0.697439 0.203816 0.177295
H39   H     H_    0.968169 0.508929 0.194261 0.143863
H40   H     H_    0.918193 0.438908 0.153063 0.098994
H41   H     H_    0.945148 0.546083 0.130472 0.168610
H42   H     H_    0.298176 0.341923 0.166667 0.155986
H43   H     H_    0.354365 0.345408 0.226155 0.100159
H44   H     H_    0.301134 0.466211 0.186578 0.144727
H45   H     H_    0.584534 0.364982 0.722827 0.097193
H46   H     H_    0.106519 0.442071 0.383352 0.109871
H47   H     H_    0.396342 0.392047 0.385894 0.086561
H48   H     H_    0.040035 0.860138 0.293933 0.149254
H49   H     H_    0.531660 0.101030 0.741964 0.097319
H50   H     H_    0.735538 0.989452 0.797598 0.113924
H51   H     H_    0.850115 0.048545 0.726334 0.125348
H52   H     H_    0.787287 0.252349 0.778840 0.107413
O1    O     O_R   0.301710 0.195650 0.554160 -0.489791
O2    O     O_R   0.635520 0.542770 0.964420 -0.503052
O3    O     O_R   0.665950 0.325030 0.970100 -0.488748
O4    O     O_R   0.522390 0.158990 0.550460 -0.485940
O5    O     O_R   0.816620 0.158530 0.074540 -0.517977
O6    O     O_R   0.004460 0.188870 0.069750 -0.514526
O7    O     O_R   0.025800 0.341780 0.072300 -0.461180
O8    O     O_R   0.807650 0.528950 0.067500 -0.468821
O9    O     O_R   0.633420 0.550490 0.071810 -0.535728
O10   O     O_R   0.664000 0.332180 0.069640 -0.499476
O11   O     O_3   0.826350 0.346390 0.019210 -0.270016
O12   O     O_R   0.658900 0.818120 0.449760 -0.501656
O13   O     O_R   0.694390 0.003530 0.554040 -0.498366
O14   O     O_R   0.657700 0.819660 0.549320 -0.486416
O15   O     O_R   0.501930 0.803280 0.552920 -0.504533
O16   O     O_R   0.318170 0.023580 0.549580 -0.496135
O17   O     O_R   0.303010 0.193990 0.446760 -0.477060
O18   O     O_R   0.523600 0.157450 0.450900 -0.465860
O19   O     O_R   0.695690 0.001860 0.446640 -0.526778
O20   O     O_3   0.450104 0.317186 0.800171 -0.557804
O21   O     O_2   0.782319 0.742696 0.073285 -0.492127
O22   O     O_3   0.867743 0.637926 0.716863 -0.554198
O23   O     O_R   0.503220 0.801620 0.445520 -0.514445
O24   O     O_2   0.940756 0.801297 0.215843 -0.541184
O25   O     O_2   0.013336 0.655783 0.296382 -0.485102
O26   O     O_3   0.403144 0.654089 0.205600 -0.610521
O27   O     O_3   0.090259 0.399385 0.144407 -0.520344
O28   O     O_3   0.177369 0.443540 0.219442 -0.513645
O29   O     O_2   0.086128 0.363237 0.439045 -0.471153
O30   O     O_2   0.498298 0.368143 0.441952 -0.477644
O31   O     O_2   0.005549 0.941797 0.357541 -0.524129
O32   O     O_R   0.319370 0.022040 0.450020 -0.510806
O33   O     O_3   0.499990 0.000010 0.499990 -0.273938
O34   O     O_R   0.818720 0.150820 0.967160 -0.501489
O35   O     O_R   0.006410 0.181720 0.970200 -0.495421
O36   O     O_R   0.027890 0.334070 0.964920 -0.502101
O37   O     O_R   0.809600 0.521790 0.967960 -0.482625

loop_
_geom_bond_atom_site_label_1
_geom_bond_atom_site_label_2
_ccdc_geom_bond_type
C61   C70   A    
C107  H31   S    
C55   C56   A    
C63   C65   A    
C93   C94   A    
C31   C42   S    
C73   O28   S    
Cr3   O33   S    
C34   C37   S    
C73   C74   A    
C79   C98   A    
C67   C77   A    
C80   C90   A    
Cr5   O37   S    
C83   H15   S    
Cr6   O3    S    
C81   C82   A    
C85   H13   S    
C14   C99   S    
Cr3   O23   S    
C42   C75   S    
C17   C23   S    
C74   C76   A    
C12   C20   S    
C100  O2    A    
C35   C37   S    
C84   C86   S    
C51   C56   A    
C31   H21   S    
C105  H28   S    
C107  H32   S    
C53   C64   S    
C15   C25   T    
C40   H2    S    
C105  H26   S    
C18   C21   S    
C107  O22   S    
C103  O8    A    
C5    H36   S    
C18   C19   S    
C27   O20   S    
C105  O20   S    
C69   C71   A    
C11   C19   S    
Cr4   O34   S    
C54   C55   A    
C100  O37   A    
C28   C101  S    
C26   C34   S    
C7    H43   S    
Cr3   O16   S    
C52   C54   A    
C16   C17   S    
C74   C77   A    
C87   C95   A    
C99   O35   A    
C86   H9    S    
C50   C52   A    
C8    O29   D    
C36   O19   A    
C32   C38   S    
C7    O28   S    
C60   O17   A    
C30   C33   S    
C75   H17   S    
Cr6   O10   S    
C6    H39   S    
C52   H4    S    
C65   H10   S    
C66   C67   A    
C24   O16   A    
C93   C95   A    
Cr1   O4    S    
C99   O36   A    
Cr3   O32   S    
C102  O7    A    
C13   H22   S    
C62   C76   A    
Cr2   O33   S    
C53   C75   S    
Cr5   O36   S    
C80   C83   A    
C9    C79   S    
Cr2   O13   S    
C59   C78   A    
C64   C86   S    
C48   O12   A    
C63   H8    S    
C2    C64   S    
C106  H29   S    
C104  O10   A    
C4    C45   S    
C85   C87   A    
C59   H7    S    
C68   C78   A    
C57   H3    S    
C102  O6    A    
C3    C44   S    
C59   C61   A    
C90   C94   A    
C47   C103  S    
C54   O26   S    
C62   C66   A    
C2    C20   T    
C34   C39   S    
C6    H40   S    
C32   C35   S    
C4    O25   D    
C71   H11   S    
C19   C22   S    
C40   C58   A    
C79   C80   A    
C5    O26   S    
C3    O24   D    
C42   C97   S    
C91   C92   A    
C71   C73   A    
C68   C69   A    
C9    H47   S    
C82   C83   A    
C103  O9    A    
C17   C21   S    
C5    H37   S    
Cr4   O11   S    
C14   C23   T    
C101  O3    A    
C24   O1    A    
C43   C44   A    
C72   O22   S    
C62   C63   A    
C10   O31   D    
Cr4   O35   S    
C47   C57   A    
C1    O13   A    
Cr2   O14   S    
C75   C86   S    
C49   H5    S    
C42   C84   S    
Cr3   O15   S    
C60   C78   S    
C96   C97   T    
C33   H51   S    
C1    C29   S    
C50   C51   A    
C26   C27   S    
C53   H20   S    
C36   O18   A    
C6    H41   S    
C31   C53   S    
C18   H23   S    
C106  O21   D    
C72   C84   S    
C60   O32   A    
Cr6   O11   S    
Cr2   O19   S    
C40   C41   A    
Cr5   O11   S    
C10   C91   S    
C26   C30   S    
C10   H48   S    
C66   H6    S    
C16   H34   S    
C70   C76   A    
C89   C91   A    
C88   H19   S    
C21   H12   S    
C89   C90   A    
C44   C45   A    
C48   O23   A    
C104  O5    A    
C29   C39   T    
Cr1   O1    S    
C46   C47   A    
C31   C72   S    
C84   H1    S    
Cr1   O18   S    
C12   O15   A    
C27   C32   S    
C77   O27   S    
C30   H52   S    
Cr6   O2    S    
C101  O34   A    
C48   C58   S    
C92   H18   S    
C7    H44   S    
Cr1   O17   S    
C12   O14   A    
C22   H25   S    
C5    H38   S    
C13   C17   S    
Cr4   O5    S    
C8    C68   S    
C55   C57   A    
C11   H24   S    
C88   C98   A    
C9    O30   D    
C15   C24   S    
C30   C32   S    
C81   C94   A    
C11   C13   S    
Cr5   O7    S    
C27   C37   S    
C46   C106  S    
C1    O4    A    
C92   C93   A    
C33   C35   S    
C33   C34   S    
C13   C22   S    
C26   H45   S    
Cr4   O6    S    
C64   C72   S    
Cr1   O33   S    
C69   C70   A    
C19   C25   S    
C43   C46   A    
C35   H50   S    
C82   H14   S    
C11   C16   S    
C49   C58   A    
C87   C104  S    
C61   C65   A    
C43   C56   A    
C96   C100  S    
C7    H42   S    
C88   C89   A    
C3    H33   S    
C16   C18   S    
C49   C50   A    
C6    O27   S    
C95   H16   S    
Cr2   O12   S    
C41   C45   A    
C37   H49   S    
C36   C98   S    
C28   C38   T    
C21   C22   S    
C8    H46   S    
C107  H30   S    
C41   C51   A    
C81   C85   A    
C67   C102  S    
Cr5   O8    S    
Cr6   O9    S    
C105  H27   S    
C4    H35   S    
