data_mof_unit_22961.cif
_audit_creation_date              2013-03-05T15:48:35-0500
_audit_creation_method            fapswitch 2.2
_symmetry_space_group_name_H-M    P1
_symmetry_Int_Tables_number       1
_space_group_crystal_system       triclinic
_cell_length_a                    16.602778
_cell_length_b                    16.69091
_cell_length_c                    43.030735
_cell_angle_alpha                 90.240194
_cell_angle_beta                  89.999542
_cell_angle_gamma                 119.837324
_cell_volume                      10343.6707427

loop_
_atom_site_label
_atom_site_type_symbol
_atom_site_description
_atom_site_fract_x
_atom_site_fract_y
_atom_site_fract_z
_atom_type_partial_charge
O1    O     O_R   0.509640 0.171340 0.784000 -0.458677
O2    O     O_R   0.661700 0.490360 0.716000 -0.437210
O3    O     O_R   0.828660 0.338300 0.784000 -0.431417
O4    O     O_R   0.509640 0.171340 0.716000 -0.514982
O5    O     O_R   0.661700 0.490360 0.784000 -0.482991
O6    O     O_R   0.828660 0.338300 0.716000 -0.501151
O7    O     O_R   0.171340 0.509640 0.284000 -0.441961
O8    O     O_R   0.490360 0.661700 0.216000 -0.430410
O9    O     O_R   0.338300 0.828660 0.284000 -0.515388
O10   O     O_R   0.171340 0.509640 0.216000 -0.482981
O11   O     O_R   0.490360 0.661700 0.284000 -0.490383
O12   O     O_R   0.338300 0.828660 0.216000 -0.458337
O13   O     O_R   0.539230 0.345420 0.781810 -0.429489
O14   O     O_R   0.806190 0.460770 0.718190 -0.455686
O15   O     O_R   0.654580 0.193810 0.781810 -0.426135
O16   O     O_R   0.539230 0.345420 0.718190 -0.507261
O17   O     O_R   0.806190 0.460770 0.781810 -0.473816
O18   O     O_R   0.654580 0.193810 0.718190 -0.454640
O19   O     O_R   0.345420 0.539230 0.281810 -0.463643
O20   O     O_R   0.460770 0.806190 0.218190 -0.426602
O21   O     O_R   0.193810 0.654580 0.281810 -0.511649
O22   O     O_R   0.345420 0.539230 0.218190 -0.469741
O23   O     O_R   0.460770 0.806190 0.281810 -0.459306
O24   O     O_R   0.193810 0.654580 0.218190 -0.429957
C1    C     C_R   0.583185 0.426030 0.794666 0.606387
C2    C     C_R   0.842775 0.416087 0.705434 0.549308
C3    C     C_R   0.573733 0.156401 0.794393 0.600056
C4    C     C_R   0.583179 0.426114 0.705765 0.577962
C5    C     C_R   0.842441 0.416363 0.794473 0.587033
C6    C     C_R   0.573526 0.156543 0.705471 0.549714
C7    C     C_R   0.426337 0.584544 0.294635 0.565564
C8    C     C_R   0.417342 0.843601 0.205608 0.599511
C9    C     C_R   0.156177 0.573446 0.294178 0.563354
C10   C     C_R   0.426084 0.583630 0.205528 0.593140
C11   C     C_R   0.417541 0.844317 0.294312 0.547749
C12   C     C_R   0.157166 0.573967 0.205332 0.601488
Cr1   Cr    Cr6+3 0.530290 0.262330 0.750000 1.155726
Cr2   Cr    Cr6+3 0.732040 0.469710 0.750000 1.178110
Cr3   Cr    Cr6+3 0.737670 0.267960 0.750000 1.199000
Cr4   Cr    Cr6+3 0.262330 0.530290 0.250000 1.175445
Cr5   Cr    Cr6+3 0.469710 0.732040 0.250000 1.203191
Cr6   Cr    Cr6+3 0.267960 0.737670 0.250000 1.149981
O25   O     O_3   0.666667 0.333333 0.750000 -0.298504
O26   O     O_3   0.333333 0.666667 0.250000 -0.297319
H1    H     H_    0.144886 0.426569 0.961258 0.177584
H2    H     H_    0.710376 0.235085 0.517417 0.178178
H3    H     H_    0.733178 0.569876 0.982665 0.161717
H4    H     H_    0.202440 0.578959 0.538342 0.167039
H5    H     H_    0.298872 0.010918 0.971968 0.183927
H6    H     H_    0.710837 0.542355 0.518532 0.173384
H7    H     H_    0.697787 0.213214 0.461478 0.171899
H8    H     H_    0.163229 0.430045 0.017337 0.161720
H9    H     H_    0.690419 0.544085 0.462826 0.181241
H10   H     H_    0.287969 0.989094 0.028052 0.183960
H11   H     H_    0.228307 0.589139 0.482724 0.164986
H12   H     H_    0.718313 0.573359 0.038744 0.177575
C13   C     C_R   0.883895 0.446736 0.825513 -0.008691
C14   C     C_R   0.557837 0.106671 0.675379 -0.041725
C15   C     C_R   0.549646 0.439686 0.825281 -0.015619
C16   C     C_R   0.888932 0.445749 0.674764 -0.041934
C17   C     C_R   0.558594 0.105750 0.824105 -0.022563
C18   C     C_R   0.550475 0.438467 0.675492 -0.024397
C19   C     C_R   0.454459 0.898527 0.323543 -0.046391
C20   C     C_R   0.109974 0.560297 0.174716 -0.017151
C21   C     C_R   0.439887 0.558315 0.326041 -0.034587
C22   C     C_R   0.452881 0.894266 0.175899 -0.022791
C23   C     C_R   0.104505 0.557948 0.323534 -0.036478
C24   C     C_R   0.437160 0.553259 0.174488 -0.009274
C25   C     C_R   0.991415 0.574846 0.031933 0.039869
C26   C     C_R   0.467432 0.908672 0.470273 0.051809
C27   C     C_R   0.398801 0.415872 0.033403 0.034207
C28   C     C_R   0.918090 0.477629 0.461277 0.044782
C29   C     C_R   0.571096 0.002128 0.032773 0.033516
C30   C     C_R   0.386118 0.475706 0.473209 0.045826
C31   C     C_R   0.482153 0.934270 0.535410 0.047031
C32   C     C_R   0.982954 0.584093 0.966599 0.034265
C33   C     C_R   0.409452 0.471748 0.538101 0.044796
C34   C     C_R   0.568967 0.997904 0.967228 0.033506
C35   C     C_R   0.887802 0.465419 0.526060 0.039875
C36   C     C_R   0.416512 0.425096 0.968068 0.039835
C37   C     C_R   0.994467 0.567804 0.064399 0.446366
C38   C     C_R   0.458517 0.898086 0.437824 0.494434
C39   C     C_R   0.391196 0.416625 0.065890 0.448928
C40   C     C_R   0.934891 0.486155 0.429113 0.464479
C41   C     C_R   0.570457 0.003584 0.065382 0.442726
C42   C     C_R   0.376669 0.480477 0.440916 0.473983
C43   C     C_R   0.487529 0.949430 0.567723 0.473147
C44   C     C_R   0.974610 0.583355 0.934113 0.448819
C45   C     C_R   0.421715 0.467587 0.570265 0.471193
C46   C     C_R   0.566857 0.996448 0.934619 0.442759
C47   C     C_R   0.874039 0.459609 0.558349 0.475044
C48   C     C_R   0.426609 0.432131 0.935602 0.446454
O27   O     O_2   0.951780 0.593795 0.080854 -0.468196
O28   O     O_2   0.402778 0.823291 0.426544 -0.429595
O29   O     O_2   0.314598 0.375081 0.078013 -0.446876
O30   O     O_2   0.870753 0.465058 0.410933 -0.460721
O31   O     O_2   0.640794 0.020030 0.079640 -0.460015
O32   O     O_2   0.303141 0.467513 0.429980 -0.458692
O33   O     O_2   0.438211 0.886236 0.585179 -0.462460
O34   O     O_2   0.939592 0.624918 0.921990 -0.447267
O35   O     O_2   0.357617 0.449704 0.588071 -0.453797
O36   O     O_2   0.620738 0.980005 0.920357 -0.459958
O37   O     O_2   0.796042 0.430907 0.568862 -0.430851
O38   O     O_2   0.357922 0.406136 0.919147 -0.467962
N1    N     N_R   0.045592 0.531937 0.077796 -0.367844
N2    N     N_R   0.511982 0.972055 0.418620 -0.370306
N3    N     N_R   0.469462 0.466773 0.084160 -0.367959
N4    N     N_R   0.024019 0.519710 0.418044 -0.374326
N5    N     N_R   0.490442 0.985159 0.081373 -0.366790
N6    N     N_R   0.451164 0.502276 0.421588 -0.371748
N7    N     N_R   0.547364 0.036033 0.579752 -0.374837
N8    N     N_R   0.002698 0.533196 0.915843 -0.367962
N9    N     N_R   0.505436 0.481453 0.581707 -0.377100
N10   N     N_R   0.505264 0.014868 0.918632 -0.366777
N11   N     N_R   0.948260 0.484916 0.578251 -0.372834
N12   N     N_R   0.513615 0.467998 0.922205 -0.367846
C49   C     C_R   0.091596 0.499296 0.059308 0.482689
C50   C     C_R   0.577808 0.056366 0.430713 0.471963
C51   C     C_R   0.557173 0.507629 0.071031 0.478869
C52   C     C_R   0.097636 0.542715 0.438059 0.477202
C53   C     C_R   0.414447 0.977445 0.065174 0.478553
C54   C     C_R   0.534427 0.515228 0.433173 0.476209
C55   C     C_R   0.606475 0.107852 0.560657 0.483933
C56   C     C_R   0.049521 0.492322 0.928972 0.478978
C57   C     C_R   0.579933 0.504177 0.562280 0.471764
C58   C     C_R   0.436989 0.022576 0.934837 0.478535
C59   C     C_R   0.037277 0.518409 0.567141 0.472888
C60   C     C_R   0.592269 0.500636 0.940693 0.482623
O39   O     O_2   0.139802 0.471425 0.071271 -0.443422
O40   O     O_2   0.625793 0.120054 0.413235 -0.462871
O41   O     O_2   0.625902 0.551239 0.087339 -0.438765
O42   O     O_2   0.175335 0.568899 0.427656 -0.442385
O43   O     O_2   0.342300 0.957151 0.078828 -0.446341
O44   O     O_2   0.598239 0.531403 0.415427 -0.454549
O45   O     O_2   0.660770 0.183183 0.571923 -0.424830
O46   O     O_2   0.074610 0.448700 0.912664 -0.438570
O47   O     O_2   0.654239 0.519102 0.573150 -0.452910
O48   O     O_2   0.385134 0.042865 0.921187 -0.446415
O49   O     O_2   0.101783 0.541359 0.585324 -0.459915
O50   O     O_2   0.668357 0.528505 0.928730 -0.443574
C61   C     C_R   0.083965 0.498875 0.026702 0.036956
C62   C     C_R   0.588552 0.069487 0.463108 0.046486
C63   C     C_R   0.567519 0.501875 0.038721 0.035899
C64   C     C_R   0.083719 0.536761 0.470294 0.048205
C65   C     C_R   0.419019 0.990708 0.032746 0.034687
C66   C     C_R   0.546587 0.511702 0.465296 0.047463
C67   C     C_R   0.603109 0.095138 0.528268 0.047662
C68   C     C_R   0.065618 0.498070 0.961281 0.035870
C69   C     C_R   0.570096 0.508494 0.530066 0.045984
C70   C     C_R   0.428309 0.009313 0.967265 0.034690
C71   C     C_R   0.053673 0.525397 0.535003 0.048890
C72   C     C_R   0.585060 0.501058 0.973300 0.036982
C73   C     C_R   0.034843 0.538373 0.013011 -0.028556
C74   C     C_R   0.532049 0.995324 0.482944 -0.023891
C75   C     C_R   0.487599 0.459349 0.019759 -0.030906
C76   C     C_R   0.993356 0.504245 0.481934 -0.021889
C77   C     C_R   0.495902 0.998247 0.016423 -0.030559
C78   C     C_R   0.472143 0.492755 0.485425 -0.021700
C79   C     C_R   0.539390 0.008155 0.515592 -0.023241
C80   C     C_R   0.028246 0.540602 0.980243 -0.030913
C81   C     C_R   0.483890 0.490995 0.517913 -0.023261
C82   C     C_R   0.497660 0.001779 0.983583 -0.030558
C83   C     C_R   0.978248 0.498378 0.514382 -0.020394
C84   C     C_R   0.496426 0.461569 0.986991 -0.028545
C85   C     C_R   0.946223 0.617833 0.017983 -0.116143
C86   C     C_R   0.412358 0.835089 0.490301 -0.090482
C87   C     C_R   0.319588 0.375941 0.014245 -0.116111
C88   C     C_R   0.828248 0.444277 0.473258 -0.130913
C89   C     C_R   0.644351 0.002725 0.016175 -0.101698
C90   C     C_R   0.312544 0.456607 0.493579 -0.116670
C91   C     C_R   0.419635 0.847711 0.522434 -0.103015
C92   C     C_R   0.943686 0.624025 0.985757 -0.116126
C93   C     C_R   0.324131 0.454948 0.525611 -0.107882
C94   C     C_R   0.641635 0.997311 0.983820 -0.101705
C95   C     C_R   0.813295 0.438044 0.505230 -0.145819
C96   C     C_R   0.328318 0.382120 0.982019 -0.116133
C97   C     C_R   0.124835 0.460603 0.007469 -0.108159
C98   C     C_R   0.653228 0.155210 0.476121 -0.104918
C99   C     C_R   0.655643 0.541014 0.024775 -0.101953
C100  C     C_R   0.158174 0.563442 0.491093 -0.125916
C101  C     C_R   0.347670 0.993933 0.016119 -0.102749
C102  C     C_R   0.632043 0.528972 0.477759 -0.106945
C103  C     C_R   0.660443 0.167820 0.508265 -0.096976
C104  C     C_R   0.114577 0.458919 0.975228 -0.101949
C105  C     C_R   0.643809 0.528008 0.509746 -0.111299
C106  C     C_R   0.353739 0.006083 0.983897 -0.102767
C107  C     C_R   0.143365 0.557873 0.523039 -0.122491
C108  C     C_R   0.664216 0.539326 0.992533 -0.108161
C109  C     C_R   0.038470 0.459372 0.129404 0.259881
C110  C     C_R   0.418747 0.955407 0.371323 0.252592
C111  C     C_R   0.496975 0.473754 0.141912 0.257228
C112  C     C_R   0.096857 0.623732 0.373462 0.247391
C113  C     C_R   0.446310 0.997189 0.136663 0.258855
C114  C     C_R   0.491690 0.613861 0.378927 0.250997
C115  C     C_R   0.475394 0.067471 0.625432 0.261264
C116  C     C_R   0.023237 0.526197 0.858093 0.257586
C117  C     C_R   0.512772 0.381715 0.622262 0.251264
C118  C     C_R   0.449076 0.002835 0.863345 0.259034
C119  C     C_R   0.923766 0.393390 0.625919 0.245699
C120  C     C_R   0.579087 0.540588 0.870599 0.259887
C121  C     C_R   0.067049 0.472219 0.160708 -0.121041
C122  C     C_R   0.397029 0.922268 0.340653 -0.135926
C123  C     C_R   0.488329 0.507484 0.171100 -0.139252
C124  C     C_R   0.128333 0.634750 0.342816 -0.152914
C125  C     C_R   0.426416 0.958646 0.166685 -0.108938
C126  C     C_R   0.489343 0.630706 0.347325 -0.141784
C127  C     C_R   0.482487 0.093673 0.656771 -0.143551
C128  C     C_R   0.980853 0.492470 0.828905 -0.142026
C129  C     C_R   0.530849 0.370007 0.653033 -0.151247
C130  C     C_R   0.467730 0.041372 0.833323 -0.108869
C131  C     C_R   0.903517 0.381900 0.657660 -0.137950
C132  C     C_R   0.594822 0.527758 0.839294 -0.119653
C133  C     C_R   0.119027 0.636143 0.157120 0.208546
C134  C     C_R   0.540698 0.917530 0.336581 0.168351
C135  C     C_R   0.393739 0.566430 0.148147 0.221680
C136  C     C_R   0.041665 0.468218 0.334555 0.182658
C137  C     C_R   0.503848 0.871416 0.154767 0.205063
C138  C     C_R   0.394646 0.465886 0.336564 0.177348
C139  C     C_R   0.623161 0.084191 0.662852 0.176587
C140  C     C_R   0.827296 0.433589 0.851851 0.222635
C141  C     C_R   0.548817 0.519632 0.667305 0.188704
C142  C     C_R   0.632425 0.128614 0.845236 0.205125
C143  C     C_R   0.904288 0.528015 0.660099 0.176879
C144  C     C_R   0.482820 0.363832 0.842872 0.208279
C145  C     C_R   0.096954 0.624332 0.125524 -0.040391
C146  C     C_R   0.559432 0.944690 0.367812 -0.053390
C147  C     C_R   0.407129 0.537462 0.119096 -0.056217
C148  C     C_R   0.012653 0.457292 0.365608 -0.065263
C149  C     C_R   0.510839 0.898829 0.123860 -0.063875
C150  C     C_R   0.398060 0.448927 0.368356 -0.064390
C151  C     C_R   0.617203 0.059831 0.631383 -0.062420
C152  C     C_R   0.869659 0.462553 0.880903 -0.056456
C153  C     C_R   0.529970 0.530901 0.636291 -0.062525
C154  C     C_R   0.612003 0.101206 0.876143 -0.063947
C155  C     C_R   0.923937 0.539233 0.628237 -0.063178
C156  C     C_R   0.472553 0.375625 0.874470 -0.040374
C157  C     C_R   0.058591 0.537558 0.111192 0.187914
C158  C     C_R   0.497806 0.960125 0.385535 0.175603
C159  C     C_R   0.457446 0.491247 0.115458 0.168075
C160  C     C_R   0.041943 0.533889 0.385255 0.178003
C161  C     C_R   0.482997 0.961625 0.114189 0.167551
C162  C     C_R   0.445721 0.521886 0.389438 0.179386
C163  C     C_R   0.545722 0.053533 0.612473 0.182088
C164  C     C_R   0.966207 0.508735 0.884544 0.168115
C165  C     C_R   0.513142 0.463282 0.613833 0.179658
C166  C     C_R   0.521347 0.038405 0.885816 0.167590
C167  C     C_R   0.931636 0.472035 0.611053 0.180716
C168  C     C_R   0.520993 0.462392 0.888808 0.187883
H13   H     H_    0.908470 0.657890 0.975870 0.176194
H14   H     H_    0.375161 0.789689 0.537083 0.170834
H15   H     H_    0.265660 0.352535 0.968049 0.172377
H16   H     H_    0.743028 0.411346 0.513598 0.170583
H17   H     H_    0.698111 0.995620 0.971803 0.186309
H18   H     H_    0.265820 0.439926 0.540562 0.185299
H19   H     H_    0.362565 0.767699 0.481173 0.174911
H20   H     H_    0.913161 0.647418 0.031953 0.172389
H21   H     H_    0.245744 0.443018 0.484803 0.171336
H22   H     H_    0.702526 0.004420 0.028189 0.186325
H23   H     H_    0.769159 0.422943 0.457945 0.175816
H24   H     H_    0.250494 0.342084 0.024132 0.176203
H25   H     H_    0.826840 0.448333 0.901398 0.187044
H26   H     H_    0.668711 0.045695 0.621339 0.190530
H27   H     H_    0.426482 0.315988 0.888228 0.189872
H28   H     H_    0.933659 0.600833 0.616588 0.186095
H29   H     H_    0.668381 0.127748 0.892811 0.191130
H30   H     H_    0.530042 0.593181 0.629288 0.185073
H31   H     H_    0.622099 0.953180 0.378661 0.205601
H32   H     H_    0.110538 0.683962 0.111761 0.189833
H33   H     H_    0.364847 0.378645 0.376829 0.191587
H34   H     H_    0.540668 0.872293 0.107190 0.191170
H35   H     H_    0.968551 0.388769 0.374859 0.190061
H36   H     H_    0.378556 0.551698 0.098600 0.187053
H37   H     H_    0.056627 0.413124 0.174156 0.195992
H38   H     H_    0.333007 0.911978 0.330404 0.198855
H39   H     H_    0.518815 0.495302 0.191525 0.178325
H40   H     H_    0.175074 0.703831 0.334460 0.176551
H41   H     H_    0.391785 0.980304 0.183238 0.196965
H42   H     H_    0.521680 0.701736 0.339632 0.199576
H43   H     H_    0.431601 0.109824 0.666077 0.191112
H44   H     H_    0.023529 0.504621 0.808484 0.173812
H45   H     H_    0.533432 0.308404 0.659227 0.150443
H46   H     H_    0.411428 0.019708 0.816771 0.196658
H47   H     H_    0.893069 0.319039 0.668516 0.216444
H48   H     H_    0.643517 0.586859 0.825849 0.196134
N13   N     N_R   0.727333 0.389973 0.850124 0.075928
O51   O     O_R   0.681050 0.335861 0.827162 -0.347054
O52   O     O_R   0.680888 0.398208 0.873085 -0.338072
N14   N     N_R   0.695123 0.084915 0.681593 0.100852
O53   O     O_R   0.675166 0.045442 0.708702 -0.255334
O54   O     O_R   0.776446 0.110846 0.669677 -0.265861
N15   N     N_R   0.425923 0.273903 0.829508 0.109505
O55   O     O_R   0.413877 0.201004 0.844358 -0.289391
O56   O     O_R   0.370467 0.263725 0.806575 -0.262236
N16   N     N_R   0.900978 0.600680 0.677005 0.105814
O57   O     O_R   0.945265 0.629720 0.703269 -0.267746
O58   O     O_R   0.867341 0.647954 0.663922 -0.263670
N17   N     N_R   0.728158 0.177553 0.835947 0.117254
O59   O     O_R   0.755440 0.143526 0.813727 -0.243724
O60   O     O_R   0.790472 0.237248 0.854855 -0.316477
N18   N     N_R   0.565501 0.590229 0.689883 0.115130
O61   O     O_R   0.542551 0.569021 0.718850 -0.273296
O62   O     O_R   0.594657 0.674730 0.681027 -0.247500
N19   N     N_R   0.610136 0.911075 0.318549 0.098648
O63   O     O_R   0.663900 0.884836 0.331561 -0.258464
O64   O     O_R   0.631634 0.948164 0.291082 -0.253395
N20   N     N_R   0.152098 0.726081 0.170477 0.109953
O65   O     O_R   0.106812 0.736281 0.193402 -0.264230
O66   O     O_R   0.212987 0.798966 0.155623 -0.288881
N21   N     N_R   0.347320 0.389181 0.315463 0.106196
O67   O     O_R   0.379451 0.392880 0.287600 -0.279226
O68   O     O_R   0.278919 0.311227 0.325238 -0.249560
N22   N     N_R   0.550636 0.822488 0.164054 0.117046
O69   O     O_R   0.611945 0.856511 0.186277 -0.243355
O70   O     O_R   0.553257 0.762812 0.145143 -0.316574
N23   N     N_R   0.006740 0.388232 0.314706 0.116106
O71   O     O_R   0.983766 0.392423 0.286090 -0.260167
O72   O     O_R   0.985002 0.308074 0.326288 -0.247187
N24   N     N_R   0.337421 0.610062 0.149872 0.076044
O73   O     O_R   0.345234 0.664136 0.172841 -0.347091
O74   O     O_R   0.282772 0.601864 0.126904 -0.337545
N25   N     N_R   0.989979 0.367479 0.116497 0.129090
O75   O     O_R   0.998587 0.301281 0.129022 -0.248809
O76   O     O_R   0.930102 0.347304 0.094113 -0.259254
N26   N     N_R   0.359530 0.982140 0.387618 0.139049
O77   O     O_R   0.285187 0.973391 0.374270 -0.236490
O78   O     O_R   0.383787 0.024218 0.414368 -0.267276
N27   N     N_R   0.543168 0.420302 0.139729 0.137954
O79   O     O_R   0.602143 0.427708 0.161043 -0.248725
O80   O     O_R   0.520212 0.357617 0.118197 -0.217300
N28   N     N_R   0.124646 0.703722 0.392833 0.125090
O81   O     O_R   0.203316 0.778672 0.387998 -0.260819
O82   O     O_R   0.069804 0.703826 0.414418 -0.261306
N29   N     N_R   0.430840 0.072725 0.129662 0.138821
O83   O     O_R   0.370732 0.084541 0.145497 -0.235095
O84   O     O_R   0.484000 0.135934 0.109930 -0.231927
N30   N     N_R   0.538740 0.690665 0.400089 0.111604
O85   O     O_R   0.607805 0.768367 0.390463 -0.275407
O86   O     O_R   0.507578 0.686795 0.428108 -0.301088
N31   N     N_R   0.399037 0.059616 0.607063 0.134720
O87   O     O_R   0.406909 0.073388 0.577212 -0.239116
O88   O     O_R   0.323002 0.045691 0.620566 -0.259651
N32   N     N_R   0.122903 0.579615 0.860280 0.137531
O89   O     O_R   0.174461 0.572162 0.838973 -0.249688
O90   O     O_R   0.162668 0.642314 0.881807 -0.217590
N33   N     N_R   0.499535 0.312948 0.599494 0.120082
O91   O     O_R   0.546025 0.269374 0.601588 -0.277097
O92   O     O_R   0.439945 0.292005 0.576980 -0.253430
N34   N     N_R   0.358045 0.927299 0.870350 0.138788
O93   O     O_R   0.286112 0.915483 0.854519 -0.236601
O94   O     O_R   0.347982 0.864091 0.890080 -0.231865
N35   N     N_R   0.932866 0.323313 0.609144 0.118889
O95   O     O_R   0.955715 0.269450 0.623800 -0.245143
O96   O     O_R   0.911383 0.307573 0.579820 -0.284218
N36   N     N_R   0.622516 0.632474 0.883511 0.129284
O97   O     O_R   0.697347 0.698681 0.870989 -0.249148
O98   O     O_R   0.582816 0.652637 0.905897 -0.258989

loop_
_geom_bond_atom_site_label_1
_geom_bond_atom_site_label_2
_geom_bond_distance
_ccdc_geom_bond_type
C88   C95   1.393118 A    
C155  H28   1.083323 S    
C38   O28   1.223039 D    
C19   C122  1.407761 A    
C51   C63   1.409612 A    
H11   C100  1.083421 S    
N4    C52   1.383239 Am   
N15   O55   1.301222 A    
C52   C64   1.401986 A    
C110  N26   1.446130 S    
C109  C157  1.415479 A    
C120  C168  1.415486 A    
N19   O64   1.301486 A    
N29   O83   1.301479 A    
C33   C45   1.405958 A    
C139  N14   1.436503 S    
C42   N6    1.381516 Am   
N8    C56   1.385607 Am   
O21   C9    1.292897 A    
C109  N25   1.439864 S    
O17   C5    1.286796 A    
O10   Cr4   2.004783 S    
C68   C80   1.410013 A    
C18   C141  1.414645 A    
O5    C1    1.293901 A    
O12   Cr6   2.016071 S    
C153  H30   1.082951 S    
H5    C106  1.083234 S    
N26   O77   1.301796 A    
C89   C94   1.394082 A    
H7    C98   1.083542 S    
C145  H32   1.083383 S    
O1    Cr1   2.016187 S    
O1    C3    1.288214 A    
O3    Cr3   2.005442 S    
N2    C50   1.381658 Am   
O7    C9    1.285410 A    
Cr6   O26   1.965324 S    
C52   O42   1.223181 D    
C45   N9    1.380958 Am   
N28   O81   1.300196 A    
C10   C24   1.470345 S    
N32   O89   1.301459 A    
C56   O46   1.222122 D    
C99   C108  1.396241 A    
C102  C105  1.391503 A    
C36   C48   1.405513 A    
C100  C107  1.391800 A    
O14   Cr2   1.895405 S    
C65   C77   1.406922 A    
N6    C162  1.436118 S    
C94   H17   1.083342 S    
O15   C3    1.285924 A    
N19   O63   1.301202 A    
N20   O65   1.301307 A    
C112  C124  1.397246 A    
O14   C2    1.293750 A    
C48   N12   1.385551 Am   
O15   Cr3   1.903596 S    
C28   C40   1.405589 A    
C57   C69   1.402124 A    
C117  N33   1.437053 S    
C151  H26   1.083373 S    
C131  H47   1.082658 S    
N18   O61   1.301402 A    
C134  N19   1.437255 S    
C7    C21   1.473592 S    
C142  C154  1.394188 A    
N7    C163  1.439800 S    
C45   O35   1.222486 D    
C47   O37   1.222942 D    
N30   O85   1.301180 A    
C97   C104  1.396227 A    
O23   Cr5   1.896306 S    
C85   H20   1.083391 S    
C109  C121  1.407819 A    
Cr2   O25   1.975077 S    
N13   O52   1.301551 A    
N5    C53   1.389980 Am   
N9    C165  1.435803 S    
C117  C165  1.407455 A    
N34   O93   1.301470 A    
C17   C130  1.406531 A    
C46   N10   1.388575 Am   
C26   C38   1.405246 A    
C41   O31   1.222757 D    
C15   C144  1.420264 A    
C48   O38   1.222777 D    
O21   Cr6   1.905129 S    
N8    C164  1.448060 S    
C156  H27   1.083379 S    
N25   O75   1.301476 A    
C125  H41   1.083190 S    
N1    C157  1.448872 S    
C11   C19   1.488306 S    
C12   C20   1.490379 S    
C77   C82   1.414305 A    
N6    C54   1.381299 Am   
H1    C104  1.083394 S    
C121  H37   1.082871 S    
C64   C76   1.410081 A    
C28   C76   1.411875 A    
C156  C168  1.399404 A    
N35   O95   1.301558 A    
C138  N21   1.438803 S    
C153  C165  1.401025 A    
C136  C148  1.401926 A    
N15   O56   1.301306 A    
C88   H23   1.083432 S    
C148  C160  1.399311 A    
C22   C137  1.416536 A    
N10   C58   1.389978 Am   
C112  C160  1.408324 A    
C29   C77   1.406032 A    
C92   H13   1.083155 S    
C129  H45   1.084564 S    
N22   O69   1.301283 A    
C32   C92   1.405908 A    
C24   C135  1.418658 A    
C114  N30   1.441006 S    
C54   O44   1.222937 D    
N24   O74   1.301550 A    
C59   C71   1.403542 A    
C60   C72   1.408472 A    
C138  C150  1.405010 A    
C64   C100  1.405818 A    
N22   O70   1.300978 A    
C51   O41   1.222122 D    
C115  N31   1.443221 S    
C63   C99   1.407045 A    
C49   O39   1.222488 D    
C35   C47   1.403990 A    
C146  H31   1.083188 S    
C54   C66   1.402646 A    
O22   Cr4   1.896270 S    
C27   C87   1.405925 A    
C28   C88   1.405975 A    
C23   C136  1.416879 A    
C27   C39   1.404190 A    
N21   O68   1.301445 A    
O22   C10   1.286620 A    
C37   N1    1.385546 Am   
C113  C125  1.409734 A    
C20   C133  1.420267 A    
O8    Cr5   2.005625 S    
N27   O80   1.301359 A    
C22   C125  1.406528 A    
C110  C122  1.404684 A    
C154  H29   1.082397 S    
C55   O45   1.222928 D    
N14   O54   1.301386 A    
C116  C128  1.410486 A    
C150  C162  1.401400 A    
O2    Cr2   2.006972 S    
C63   C75   1.410023 A    
C86   H19   1.083458 S    
H10   C101  1.083228 S    
O8    C10   1.284988 A    
C62   C74   1.412179 A    
C29   C41   1.403434 A    
C135  N24   1.444743 S    
C31   C43   1.407085 A    
C142  N17   1.436685 S    
C89   H22   1.083349 S    
C16   C143  1.416857 A    
O20   C8    1.285983 A    
C115  C163  1.413391 A    
C141  C153  1.405357 A    
C113  C161  1.418994 A    
C139  C151  1.401469 A    
C70   C106  1.407784 A    
C101  C106  1.398454 A    
C145  C157  1.399392 A    
C66   C78   1.411100 A    
C13   C140  1.418635 A    
C71   C83   1.411972 A    
C73   C80   1.416358 A    
C60   O50   1.222484 D    
C74   C79   1.416291 A    
H9    C102  1.083497 S    
C58   C70   1.409884 A    
C61   C73   1.408950 A    
O6    C2    1.284337 A    
C135  C147  1.395658 A    
O17   Cr2   1.896320 S    
C38   N2    1.383156 Am   
C19   C134  1.418475 A    
C118  C130  1.409738 A    
C25   C85   1.406214 A    
C133  C145  1.395552 A    
O19   Cr4   1.895380 S    
C147  H36   1.083196 S    
Cr4   O26   1.975058 S    
C124  H40   1.083549 S    
N26   O78   1.300841 A    
N36   O97   1.301477 A    
C1    C15   1.490392 S    
C2    C16   1.483930 S    
C118  N34   1.439333 S    
C4    C18   1.465584 S    
C20   C121  1.408004 A    
C141  N18   1.440387 S    
C69   C105  1.405031 A    
O24   Cr6   1.896773 S    
C110  C158  1.414158 A    
C72   C108  1.407268 A    
O19   C7    1.291090 A    
C34   C46   1.403434 A    
C71   C107  1.405535 A    
C56   C68   1.409596 A    
C13   C128  1.404168 A    
N28   O82   1.301294 A    
C61   C97   1.407253 A    
C41   N5    1.388571 Am   
N16   O57   1.301399 A    
N32   O90   1.301365 A    
C43   N7    1.381696 Am   
C67   C103  1.406522 A    
C126  H42   1.083169 S    
C36   C84   1.409300 A    
C78   C81   1.413975 A    
C122  H38   1.082378 S    
C136  N23   1.438115 S    
C58   O48   1.221746 D    
N12   C168  1.448905 S    
C76   C83   1.413750 A    
N20   O66   1.301223 A    
N33   O92   1.301009 A    
C98   C103  1.394386 A    
O16   Cr1   1.905280 S    
N23   O71   1.301514 A    
C120  N36   1.439866 S    
O5    Cr2   2.004850 S    
N1    C49   1.386886 Am   
N3    C51   1.385609 Am   
N18   O62   1.301510 A    
N11   C167  1.434651 S    
N29   O84   1.301478 A    
C33   C81   1.411555 A    
C70   C82   1.406932 A    
C66   C102  1.405521 A    
N7    C55   1.383045 Am   
H4    C107  1.083533 S    
N30   O86   1.301145 A    
C30   C78   1.411206 A    
C57   O47   1.223127 D    
N3    C159  1.448084 S    
C25   C73   1.409292 A    
Cr1   O25   1.964961 S    
C49   C61   1.408447 A    
O18   Cr3   1.896139 S    
N13   O51   1.297827 A    
C50   O40   1.222410 D    
C149  C161  1.403983 A    
C149  H34   1.082388 S    
N31   O87   1.300947 A    
N5    C161  1.455998 S    
C93   H18   1.083445 S    
C27   C75   1.408469 A    
N34   O94   1.301479 A    
N17   O60   1.300981 A    
O24   C12   1.290670 A    
C44   O34   1.223032 D    
C5    C13   1.470334 S    
O23   C11   1.288846 A    
Cr5   O26   1.964406 S    
C69   C81   1.410690 A    
C87   H24   1.083152 S    
C29   C89   1.406193 A    
C8    C22   1.486658 S    
C33   C93   1.406275 A    
C152  C164  1.399164 A    
N35   O96   1.300956 A    
C150  H33   1.083054 S    
C144  C156  1.395577 A    
N27   O79   1.301456 A    
C154  C166  1.403977 A    
N10   C166  1.455990 S    
C118  C166  1.419005 A    
C40   N4    1.381240 Am   
C47   N11   1.381803 Am   
C90   H21   1.083062 S    
C42   O32   1.222638 D    
C16   C131  1.409349 A    
C25   C37   1.405497 A    
C44   N8    1.385423 Am   
C115  C127  1.402671 A    
O4    Cr1   2.006930 S    
N2    C158  1.439767 S    
O9    C11   1.285683 A    
O6    Cr3   2.012593 S    
O10   C12   1.294006 A    
C90   C93   1.394031 A    
O16   C4    1.288573 A    
C146  C158  1.398378 A    
C65   C101  1.407793 A    
C132  H48   1.082869 S    
N17   O59   1.301283 A    
C67   C79   1.410498 A    
C96   H15   1.083396 S    
O20   Cr5   1.903787 S    
C62   C98   1.406504 A    
N21   O67   1.301432 A    
C91   H14   1.083492 S    
O9    Cr6   2.006823 S    
C120  C132  1.407826 A    
C116  C164  1.416027 A    
C26   C86   1.406603 A    
C21   C138  1.414911 A    
N9    C57   1.381427 Am   
C143  N16   1.436001 S    
N11   C59   1.380373 Am   
O3    C5    1.285120 A    
C40   O30   1.222512 D    
C112  N28   1.438020 S    
C23   C124  1.405214 A    
C3    C17   1.486663 S    
C137  C149  1.394202 A    
H8    C97   1.082650 S    
C46   O36   1.222758 D    
N4    C160  1.438035 S    
C111  N27   1.439840 S    
N25   O76   1.301398 A    
O7    Cr4   2.006873 S    
O18   C6    1.289046 A    
C116  N32   1.439842 S    
C32   C44   1.404173 A    
O13   Cr1   1.896906 S    
C119  C167  1.409149 A    
C85   C92   1.393179 A    
C147  C159  1.399158 A    
C86   C91   1.393980 A    
O12   C8    1.288263 A    
C24   C123  1.404169 A    
O13   C1    1.290573 A    
C59   O49   1.222766 D    
C155  C167  1.398856 A    
C43   O33   1.222479 D    
C111  C159  1.416048 A    
C114  C126  1.394257 A    
N23   O72   1.301441 A    
C119  N35   1.442466 S    
C152  H25   1.083200 S    
C140  C152  1.395652 A    
C130  H46   1.083195 S    
C137  N22   1.436687 S    
C35   C95   1.405883 A    
C36   C96   1.406214 A    
Cr3   O25   1.964749 S    
C21   C126  1.405873 A    
C123  H39   1.083448 S    
C140  N13   1.444731 S    
H2    C103  1.083045 S    
C151  C163  1.398865 A    
N24   O73   1.297823 A    
C17   C142  1.416549 A    
C37   O27   1.222777 D    
C14   C139  1.418055 A    
C68   C104  1.407045 A    
C39   O29   1.223031 D    
C30   C42   1.405457 A    
C72   C84   1.408946 A    
C143  C155  1.400935 A    
N31   O88   1.301678 A    
C55   C67   1.405845 A    
C34   C82   1.406021 A    
N36   O98   1.301400 A    
C111  C123  1.410500 A    
C31   C91   1.406230 A    
C53   C65   1.409886 A    
C15   C132  1.407999 A    
C9    C23   1.476634 S    
C127  H43   1.082850 S    
C31   C79   1.411992 A    
C128  H44   1.083440 S    
C32   C80   1.408472 A    
C114  C162  1.408419 A    
C26   C74   1.410470 A    
C35   C83   1.410825 A    
C133  N20   1.434519 S    
C50   C62   1.407669 A    
C148  H35   1.083133 S    
C75   C84   1.416375 A    
C144  N15   1.434523 S    
N14   O53   1.301484 A    
H3    C108  1.082650 S    
N16   O58   1.301379 A    
C95   H16   1.083173 S    
C14   C127  1.407751 A    
C6    C14   1.487493 S    
C18   C129  1.402168 A    
C39   N3    1.385428 Am   
O11   Cr5   2.012797 S    
C119  C131  1.397627 A    
C134  C146  1.401004 A    
C30   C90   1.406025 A    
C117  C129  1.393580 A    
O11   C7    1.280842 A    
C113  N29   1.439332 S    
N12   C60   1.386894 Am   
C34   C94   1.406204 A    
O2    C4    1.283888 A    
C53   O43   1.221743 D    
N33   O91   1.300767 A    
H6    C105  1.082962 S    
O4    C6    1.284940 A    
C87   C96   1.393184 A    
H12   C99   1.083400 S    
