data_mof_unit_59202.cif
_audit_creation_date              2012-10-26T19:33:11-0400
_audit_creation_method            fapswitch 2.2
_symmetry_space_group_name_H-M    P1
_symmetry_Int_Tables_number       1
_space_group_crystal_system       triclinic
_cell_length_a                    15.856267
_cell_length_b                    15.103558
_cell_length_c                    13.917475
_cell_angle_alpha                 89.662138
_cell_angle_beta                  89.374278
_cell_angle_gamma                 90.856509
_cell_volume                      3332.40873267

loop_
_atom_site_label
_atom_site_type_symbol
_atom_type_description
_atom_site_fract_x
_atom_site_fract_y
_atom_site_fract_z
_atom_type_partial_charge
C1    C     C_R   0.500226 0.329846 0.500142 0.534047
C2    C     C_R   0.545862 0.905179 0.566545 -0.140739
C3    C     C_R   0.500570 0.047951 0.497878 0.064274
C4    C     C_R   0.501687 0.950906 0.495561 0.048304
C5    C     C_R   0.571029 0.532950 0.106821 0.206905
C6    C     C_R   0.468694 0.425146 0.893012 0.207542
C7    C     C_R   0.565293 0.540105 0.208431 0.364059
C8    C     C_R   0.461610 0.431667 0.791492 0.364031
C9    C     C_R   0.436488 0.458255 0.209585 0.350031
C10   C     C_R   0.539091 0.566912 0.791151 0.352646
C11   C     C_R   0.434613 0.461675 0.108147 -0.166400
C12   C     C_R   0.500375 0.669916 0.499640 0.532036
C13   C     C_R   0.535808 0.568613 0.892422 -0.156587
C14   C     C_R   0.502749 0.497297 0.054628 -0.034200
C15   C     C_R   0.502330 0.496782 0.945627 -0.032560
C16   C     C_R   0.339770 0.499319 0.500505 0.537641
C17   C     C_R   0.660061 0.501110 0.499510 0.528194
C18   C     C_3   0.967403 0.434472 0.551392 0.256310
C19   C     C_3   0.031166 0.569488 0.449905 0.257621
C20   C     C_3   0.024980 0.423272 0.461780 -0.174409
C21   C     C_3   0.973629 0.580593 0.539571 -0.179539
C22   C     C_1   0.249960 0.498334 0.501837 -0.010733
C23   C     C_R   0.478281 0.185180 0.583003 -0.120890
C24   C     C_1   0.749547 0.503688 0.498317 -0.017872
C25   C     C_3   0.024681 0.508154 0.591281 0.248636
C26   C     C_3   0.974052 0.495713 0.410143 0.256620
C27   C     C_3   0.082569 0.498464 0.502283 0.005141
C28   C     C_3   0.916458 0.505525 0.498920 0.009830
C29   C     C_1   0.174339 0.497897 0.502657 0.002538
C30   C     C_1   0.824981 0.505413 0.497918 0.007274
C31   C     C_R   0.475606 0.092906 0.581815 0.252657
C32   C     C_R   0.458640 0.904132 0.423254 0.250893
C33   C     C_3   0.366590 0.326207 0.242730 0.015031
C34   C     C_R   0.458100 0.811286 0.425946 -0.130013
C35   C     C_3   0.278840 0.300970 0.206484 -0.269286
C36   C     C_3   0.269797 0.201232 0.192120 -0.490405
C37   C     C_3   0.665965 0.626784 0.740257 0.023118
C38   C     C_3   0.708514 0.696275 0.803817 -0.288512
C39   C     C_3   0.804314 0.694893 0.791894 -0.495069
C40   C     C_3   0.983399 0.308632 0.643490 -0.009320
C41   C     C_3   0.936317 0.232816 0.693687 -0.380614
C42   C     C_3   0.010144 0.699509 0.366748 -0.007560
C43   C     C_3   0.050039 0.763309 0.293961 -0.375104
C44   C     C_3   0.005124 0.473109 0.250065 -0.002014
C45   C     C_R   0.500852 0.233111 0.499915 -0.039676
C46   C     C_3   0.970200 0.479415 0.148953 -0.384160
C47   C     C_3   0.992635 0.535648 0.750091 -0.012371
C48   C     C_3   0.021647 0.519106 0.852345 -0.386560
C49   C     C_3   0.364738 0.027164 0.659723 -0.004644
C50   C     C_3   0.335892 0.985704 0.754540 -0.371723
C51   C     C_3   0.432972 0.927700 0.262570 -0.018128
C52   C     C_3   0.401787 0.998941 0.194477 -0.380677
C53   C     C_3   0.702104 0.491399 0.060288 0.004479
C54   C     C_3   0.775589 0.514817 0.993353 -0.388290
C55   C     C_3   0.506036 0.286067 0.935800 0.005210
C56   C     C_R   0.501177 0.766207 0.498139 -0.027789
C57   C     C_3   0.474509 0.199636 0.980964 -0.374812
C58   C     C_3   0.626484 0.673097 0.246298 0.032096
C59   C     C_3   0.687038 0.716490 0.317344 -0.248615
C60   C     C_3   0.685457 0.817267 0.310068 -0.501233
C61   C     C_3   0.334086 0.369710 0.755073 0.028256
C62   C     C_3   0.291920 0.301525 0.690148 -0.262638
C63   C     C_3   0.196253 0.306612 0.696082 -0.501263
C64   C     C_R   0.523929 0.188025 0.416124 -0.164458
C65   C     C_R   0.545184 0.813332 0.568184 -0.156260
C66   C     C_R   0.525041 0.096154 0.415641 -0.130781
Cu1   Cu    Cu3+1 0.500000 0.499990 0.596430 1.018561
Cu2   Cu    Cu3+1 0.500000 0.500010 0.403570 1.025084
H1    H     H_    0.047169 0.359954 0.431137 0.089530
H2    H     H_    0.580708 0.940804 0.620970 0.149780
H3    H     H_    0.376814 0.291585 0.312192 0.160457
H4    H     H_    0.415493 0.301658 0.191490 0.108741
H5    H     H_    0.230448 0.322663 0.259402 0.165777
H6    H     H_    0.267373 0.335226 0.137084 0.162736
H7    H     H_    0.315566 0.178565 0.136904 0.145728
H8    H     H_    0.205059 0.185029 0.167454 0.143484
H9    H     H_    0.280832 0.165510 0.260748 0.157028
H10   H     H_    0.687599 0.638690 0.665031 0.153034
H11   H     H_    0.687557 0.559122 0.760512 0.121408
H12   H     H_    0.950988 0.643630 0.570465 0.081451
H13   H     H_    0.685703 0.763146 0.784130 0.166102
H14   H     H_    0.692103 0.683238 0.880369 0.176997
H15   H     H_    0.828686 0.628806 0.811658 0.133971
H16   H     H_    0.833469 0.745183 0.839541 0.148802
H17   H     H_    0.822812 0.710436 0.716365 0.137384
H18   H     H_    0.022188 0.343242 0.698004 0.168749
H19   H     H_    0.024764 0.280073 0.586858 0.123406
H20   H     H_    0.897020 0.196065 0.641231 0.163738
H21   H     H_    0.982144 0.186667 0.725900 0.087982
H22   H     H_    0.895012 0.258975 0.751570 0.153849
H23   H     H_    0.379650 0.435683 0.071936 0.164713
H24   H     H_    0.988414 0.738263 0.429828 0.124828
H25   H     H_    0.954761 0.666965 0.332352 0.161025
H26   H     H_    0.071575 0.726431 0.229602 0.153166
H27   H     H_    0.003097 0.813004 0.271598 0.088359
H28   H     H_    0.104889 0.798223 0.326230 0.167888
H29   H     H_    0.028193 0.404660 0.261389 0.123894
H30   H     H_    0.058924 0.520963 0.255460 0.170617
H31   H     H_    0.947000 0.547308 0.135180 0.152587
H32   H     H_    0.020434 0.464357 0.095533 0.088967
H33   H     H_    0.917291 0.431177 0.140517 0.156265
H34   H     H_    0.559712 0.626573 0.928959 0.163519
H35   H     H_    0.933417 0.496456 0.739213 0.155503
H36   H     H_    0.979318 0.607364 0.741857 0.133085
H37   H     H_    0.079863 0.558422 0.866664 0.161802
H38   H     H_    0.971588 0.538886 0.904033 0.088687
H39   H     H_    0.034779 0.447684 0.862868 0.144741
H40   H     H_    0.351869 0.978907 0.601323 0.156896
H41   H     H_    0.327039 0.087753 0.647273 0.114438
H42   H     H_    0.346997 0.032870 0.814198 0.148918
H43   H     H_    0.267494 0.969170 0.751718 0.094235
H44   H     H_    0.371362 0.924129 0.768335 0.167614
H45   H     H_    0.461075 0.218876 0.648520 0.176583
H46   H     H_    0.402765 0.863720 0.242270 0.131082
H47   H     H_    0.502702 0.923340 0.252830 0.107055
H48   H     H_    0.430620 0.064077 0.212832 0.144837
H49   H     H_    0.419444 0.982358 0.119348 0.092428
H50   H     H_    0.332065 0.003479 0.200016 0.159303
H51   H     H_    0.673244 0.428076 0.034743 0.111833
H52   H     H_    0.726963 0.481616 0.134037 0.176004
H53   H     H_    0.805911 0.578060 0.015739 0.158038
H54   H     H_    0.823011 0.461523 0.995227 0.087213
H55   H     H_    0.752604 0.521627 0.918725 0.146597
H56   H     H_    0.422085 0.774138 0.373798 0.118883
H57   H     H_    0.561997 0.309842 0.976504 0.114382
H58   H     H_    0.525282 0.272087 0.860186 0.161410
H59   H     H_    0.417763 0.175054 0.942681 0.162233
H60   H     H_    0.524456 0.149054 0.976085 0.097100
H61   H     H_    0.458235 0.209919 0.057760 0.132997
H62   H     H_    0.561605 0.697802 0.260510 0.122842
H63   H     H_    0.646284 0.692749 0.172185 0.157904
H64   H     H_    0.669257 0.696070 0.391792 0.173693
H65   H     H_    0.752229 0.693705 0.302499 0.168266
H66   H     H_    0.703881 0.839440 0.236453 0.140840
H67   H     H_    0.542517 0.223738 0.351376 0.127493
H68   H     H_    0.730612 0.846330 0.361971 0.144722
H69   H     H_    0.621484 0.841648 0.327510 0.145883
H70   H     H_    0.311201 0.436907 0.735940 0.148968
H71   H     H_    0.315535 0.354421 0.830757 0.161171
H72   H     H_    0.312692 0.312964 0.614461 0.172220
H73   H     H_    0.311363 0.234209 0.712479 0.158688
H74   H     H_    0.173804 0.295146 0.771077 0.143293
H75   H     H_    0.168122 0.254937 0.649425 0.128409
H76   H     H_    0.175310 0.372556 0.671029 0.186099
H77   H     H_    0.579717 0.779191 0.623488 0.162550
H78   H     H_    0.545659 0.062606 0.351185 0.125545
N1    N     N_R   0.500000 0.500020 0.258690 -0.234158
N2    N     N_R   0.500000 0.499980 0.741310 -0.232726
O1    O     O_R   0.500010 0.371450 0.581430 -0.456527
O2    O     O_3   0.577254 0.636903 0.742559 -0.549436
O3    O     O_3   0.924619 0.366820 0.603585 -0.556773
O4    O     O_3   0.070747 0.637428 0.395083 -0.554173
O5    O     O_3   0.940469 0.492322 0.316751 -0.555778
O6    O     O_3   0.057075 0.511200 0.685238 -0.570497
O7    O     O_3   0.451776 0.047473 0.664442 -0.573252
O8    O     O_3   0.410221 0.950198 0.357770 -0.563136
O9    O     O_3   0.643694 0.561054 0.059264 -0.587275
O10   O     O_3   0.441084 0.348891 0.939827 -0.584556
O11   O     O_3   0.630288 0.580274 0.257905 -0.524703
O12   O     O_R   0.499990 0.628550 0.418570 -0.513820
O13   O     O_3   0.422242 0.364209 0.742102 -0.546108
O14   O     O_R   0.500010 0.371460 0.418560 -0.504679
O15   O     O_R   0.499990 0.628540 0.581440 -0.446562
O16   O     O_R   0.379080 0.499990 0.581420 -0.502592
O17   O     O_R   0.620920 0.500010 0.418580 -0.441498
O18   O     O_R   0.379080 0.500000 0.418550 -0.438848
O19   O     O_R   0.620920 0.500000 0.581450 -0.512718
O20   O     O_3   0.370329 0.418553 0.259852 -0.531792

loop_
_geom_bond_atom_site_label_1
_geom_bond_atom_site_label_2
_ccdc_geom_bond_type
C41   H21   S    
C54   H55   S    
C35   H6    S    
C34   C56   A    
C23   C45   A    
C22   C29   T    
Cu1   O1    S    
C42   H25   S    
C35   C36   S    
C37   O2    S    
C46   H31   S    
C2    C65   A    
C57   H60   S    
C53   H52   S    
C53   C54   S    
C16   O16   A    
C37   H11   S    
C62   C63   S    
C61   O13   S    
C44   O5    S    
C40   H19   S    
C57   H61   S    
C19   C21   S    
C39   H16   S    
C36   H9    S    
C38   C39   S    
C11   C14   A    
C61   H70   S    
C48   H39   S    
C7    O11   S    
C56   C65   A    
C50   H42   S    
C43   H26   S    
C27   C29   S    
C40   H18   S    
C19   C26   S    
C46   H32   S    
C36   H8    S    
C33   H4    S    
C6    C15   A    
C32   O8    S    
C44   H30   S    
Cu1   O16   S    
C55   O10   S    
C48   H38   S    
C55   H57   S    
C16   O18   A    
C43   H27   S    
C63   H76   S    
C1    O1    A    
C19   C27   S    
C60   H68   S    
C42   H24   S    
C60   H69   S    
C52   H49   S    
C41   H22   S    
C54   H54   S    
C64   H67   S    
C59   C60   S    
C48   H37   S    
C38   H14   S    
C58   O11   S    
C34   H56   S    
C8    N2    A    
C18   C25   S    
C6    O10   S    
C44   C46   S    
C19   O4    S    
C49   H40   S    
C7    N1    A    
C52   H48   S    
C51   O8    S    
C46   H33   S    
C59   H64   S    
C51   H46   S    
C47   H35   S    
Cu2   O12   S    
Cu1   Cu2   S    
C17   C24   S    
C18   C28   S    
C17   O19   A    
C5    C7    A    
C61   H71   S    
C6    C8    A    
C58   C59   S    
C59   H65   S    
C51   H47   S    
C51   C52   S    
C40   O3    S    
C23   C31   A    
C2    C4    A    
C37   C38   S    
C36   H7    S    
C11   H23   S    
C23   H45   S    
C52   H50   S    
C44   H29   S    
C47   C48   S    
C55   H58   S    
C58   H63   S    
C50   H44   S    
C43   H28   S    
C12   C56   S    
C12   O12   A    
C3    C31   A    
C9    C11   A    
C64   C66   A    
C5    C14   A    
C4    C32   A    
Cu2   N1    S    
C40   C41   S    
C20   C27   S    
C54   H53   S    
C1    O14   A    
C5    O9    S    
C55   C57   S    
C38   H13   S    
C20   H1    S    
C3    C66   A    
C42   C43   S    
C39   H17   S    
C62   H73   S    
C65   H77   S    
C18   O3    S    
C60   H66   S    
C42   O4    S    
C49   H41   S    
Cu1   O19   S    
C41   H20   S    
C21   C25   S    
C35   H5    S    
C16   C22   S    
C47   H36   S    
C25   O6    S    
C53   O9    S    
C49   O7    S    
C9    O20   S    
C10   C13   A    
C57   H59   S    
C31   O7    S    
C53   H51   S    
C47   O6    S    
Cu2   O14   S    
C25   C27   S    
C37   H10   S    
C45   C64   A    
C26   C28   S    
C8    O13   S    
C13   C15   A    
C39   H15   S    
C17   O17   A    
Cu2   O17   S    
C12   O15   A    
C1    C45   S    
C20   C26   S    
C58   H62   S    
C21   H12   S    
C28   C30   S    
C50   H43   S    
C33   C35   S    
C63   H74   S    
C9    N1    A    
C18   C20   S    
C61   C62   S    
C24   C30   T    
C66   H78   S    
C33   H3    S    
C21   C28   S    
C33   O20   S    
Cu1   O15   S    
C49   C50   S    
C10   N2    A    
Cu1   N2    S    
C63   H75   S    
C14   C15   S    
C26   O5    S    
C62   H72   S    
C13   H34   S    
C2    H2    S    
C10   O2    S    
C3    C4    S    
C32   C34   A    
Cu2   O18   S    
