data_mof_unit_62400.cif
_audit_creation_date              2012-12-10T17:55:41-0500
_audit_creation_method            fapswitch 2.2
_symmetry_space_group_name_H-M    P1
_symmetry_Int_Tables_number       1
_space_group_crystal_system       triclinic
_cell_length_a                    18.328123
_cell_length_b                    18.317772
_cell_length_c                    26.060615
_cell_angle_alpha                 89.804836
_cell_angle_beta                  89.855379
_cell_angle_gamma                 90.055052
_cell_volume                      8749.25739251

loop_
_atom_site_label
_atom_site_type_symbol
_atom_type_description
_atom_site_fract_x
_atom_site_fract_y
_atom_site_fract_z
_atom_type_partial_charge
C1    C     C_R   0.140111 0.859812 0.250015 0.589355
C2    C     C_R   0.268637 0.821697 0.241891 0.379990
C3    C     C_2   0.797207 0.597010 0.254288 0.685695
C4    C     C_2   0.958403 0.867724 0.055947 0.625694
C5    C     C_2   0.948795 0.870798 0.944409 0.648577
C6    C     C_2   0.041845 0.128318 0.054789 0.628825
C7    C     C_2   0.048498 0.127346 0.943575 0.629445
C8    C     C_2   0.458194 0.367785 0.555945 0.625688
C9    C     C_2   0.448590 0.370870 0.444410 0.648578
C10   C     C_2   0.542047 0.628238 0.554783 0.628809
C11   C     C_2   0.548691 0.627266 0.443576 0.629438
C12   C     C_R   0.789924 0.762822 0.794326 0.376463
C13   C     C_R   0.731454 0.821723 0.242220 0.379669
C14   C     C_R   0.730890 0.283901 0.294936 0.380443
C15   C     C_R   0.768637 0.321697 0.741891 0.379978
C16   C     C_R   0.290014 0.262731 0.294292 0.376459
C17   C     C_R   0.231454 0.321723 0.742220 0.379656
C18   C     C_R   0.784756 0.230889 0.294362 0.407124
C19   C     C_R   0.821451 0.267674 0.741379 0.411894
C20   C     C_R   0.236031 0.209381 0.293550 0.411329
C21   C     C_R   0.140147 0.859958 0.749928 0.592058
C22   C     C_R   0.178590 0.267685 0.741607 0.406879
C23   C     C_R   0.284758 0.730892 0.794362 0.407122
C24   C     C_R   0.321451 0.767673 0.241379 0.411903
C25   C     C_R   0.735941 0.709472 0.793583 0.411321
C26   C     C_R   0.678590 0.767685 0.241607 0.406876
C27   C     C_R   0.806103 0.198690 0.247862 -0.095474
C28   C     C_R   0.801514 0.194129 0.747624 -0.095752
C29   C     C_R   0.194634 0.198233 0.249044 -0.083550
C30   C     C_R   0.198459 0.194137 0.747499 -0.097303
C31   C     C_R   0.306103 0.698690 0.747862 -0.095484
C32   C     C_R   0.859957 0.859817 0.250041 0.584936
C33   C     C_R   0.301514 0.694129 0.247624 -0.095756
C34   C     C_R   0.694635 0.698236 0.749045 -0.083580
C35   C     C_R   0.698459 0.694137 0.247500 -0.097312
C36   C     C_R   0.976697 0.935634 0.027179 0.012769
C37   C     C_R   0.975651 0.936051 0.972766 0.001788
C38   C     C_R   0.022517 0.061223 0.026617 0.015968
C39   C     C_R   0.023157 0.061454 0.972392 0.009699
C40   C     C_R   0.476591 0.435665 0.527178 0.012791
C41   C     C_R   0.475546 0.436083 0.472766 0.001747
C42   C     C_R   0.522618 0.561175 0.526615 0.016020
C43   C     C_R   0.860417 0.859515 0.750550 0.614813
C44   C     C_R   0.523257 0.561408 0.472391 0.009710
C45   C     C_R   0.999520 0.998881 0.945580 -0.028676
C46   C     C_R   0.999827 0.998495 0.054048 -0.031814
C47   C     C_R   0.499519 0.498874 0.445579 -0.028686
C48   C     C_R   0.499825 0.498488 0.554047 -0.031824
C49   C     C_R   0.860541 0.140744 0.249399 0.581872
C50   C     C_R   0.859199 0.139507 0.749308 0.589943
C51   C     C_R   0.139769 0.140536 0.249710 0.603990
C52   C     C_R   0.140745 0.139499 0.749265 0.578786
C53   C     C_R   0.360540 0.640744 0.749399 0.581847
C54   C     C_R   0.640111 0.359812 0.750015 0.589345
C55   C     C_R   0.359199 0.639507 0.249307 0.589950
C56   C     C_R   0.639768 0.640537 0.749710 0.603920
C57   C     C_R   0.640745 0.639499 0.249265 0.578774
C58   C     C_R   0.000004 0.999097 0.110928 0.543726
C59   C     C_R   0.999868 0.999317 0.888945 0.581192
C60   C     C_R   0.500004 0.499094 0.610928 0.543586
C61   C     C_R   0.499868 0.499313 0.388945 0.581205
C62   C     C_R   0.999084 0.999937 0.388591 0.563675
C63   C     C_R   0.000901 0.000124 0.611426 0.569160
C64   C     C_R   0.499084 0.499937 0.888591 0.563670
C65   C     C_R   0.640147 0.359958 0.249928 0.592066
C66   C     C_R   0.500901 0.500124 0.111426 0.569162
C67   C     C_2   0.993257 0.057910 0.527558 0.421072
C68   C     C_2   0.005098 0.058022 0.472220 0.430721
C69   C     C_2   0.493257 0.557909 0.027558 0.421079
C70   C     C_2   0.505099 0.558022 0.972220 0.430730
C71   C     C_2   0.011291 0.999880 0.556450 0.413725
C72   C     C_2   0.988788 0.999370 0.443611 0.412034
C73   C     C_2   0.511291 0.499880 0.056450 0.413716
C74   C     C_2   0.488788 0.499370 0.943611 0.412025
C75   C     C_R   0.773776 0.221188 0.201034 -0.019111
C76   C     C_R   0.359957 0.359817 0.750041 0.584918
C77   C     C_R   0.727168 0.174429 0.753609 -0.025021
C78   C     C_R   0.206135 0.242580 0.205081 -0.021678
C79   C     C_R   0.272769 0.174427 0.753221 -0.024587
C80   C     C_R   0.273773 0.721184 0.701035 -0.019120
C81   C     C_R   0.227168 0.674429 0.253609 -0.025022
C82   C     C_R   0.706226 0.742499 0.705052 -0.021652
C83   C     C_R   0.772769 0.674427 0.253222 -0.024580
C84   C     C_R   0.217929 0.773177 0.702419 0.320578
C85   C     C_R   0.174649 0.729776 0.255478 0.322941
C86   C     C_R   0.762905 0.793914 0.705732 0.312945
C87   C     C_R   0.360414 0.359517 0.250547 0.614920
C88   C     C_R   0.825341 0.729777 0.255171 0.318007
C89   C     C_R   0.717933 0.273180 0.202419 0.320576
C90   C     C_R   0.674649 0.229776 0.755478 0.322942
C91   C     C_R   0.262810 0.294003 0.205758 0.312917
C92   C     C_R   0.325341 0.229777 0.755170 0.318009
C93   C     C_R   0.196844 0.804568 0.749168 -0.036544
C94   C     C_R   0.195359 0.803027 0.249428 -0.031134
C95   C     C_R   0.804002 0.804077 0.750199 -0.019671
C96   C     C_R   0.804692 0.803027 0.249497 -0.033984
C97   C     C_R   0.696845 0.304568 0.249168 -0.036536
C98   C     C_R   0.230892 0.783903 0.794936 0.380440
C99   C     C_R   0.695360 0.303027 0.749429 -0.031131
C100  C     C_R   0.303997 0.304079 0.250194 -0.019621
C101  C     C_R   0.304693 0.303027 0.749496 -0.034011
C102  C     C_2   0.799567 0.194736 0.150231 0.684793
C103  C     C_2   0.702630 0.097003 0.754989 0.682157
C104  C     C_2   0.156870 0.240847 0.159975 0.681868
C105  C     C_2   0.297207 0.097010 0.754287 0.685694
C106  C     C_2   0.299559 0.694729 0.650231 0.684809
C107  C     C_2   0.202630 0.597002 0.254989 0.682140
C108  C     C_2   0.657035 0.740708 0.659907 0.681889
F1    F     F_    0.965681 0.119708 0.549010 -0.536902
F2    F     F_    0.102793 0.712124 0.260005 -0.503723
F3    F     F_    0.775417 0.837816 0.664431 -0.540346
F4    F     F_    0.897178 0.712170 0.259405 -0.506375
F5    F     F_    0.687162 0.296760 0.157911 -0.520717
F6    F     F_    0.602793 0.212124 0.760004 -0.503717
F7    F     F_    0.275239 0.337985 0.164486 -0.540427
F8    F     F_    0.397178 0.212170 0.759404 -0.506361
F9    F     F_    0.210261 0.813321 0.840497 -0.506007
F10   F     F_    0.289402 0.892558 0.236693 -0.507964
F11   F     F_    0.829679 0.773165 0.837593 -0.549044
F12   F     F_    0.030908 0.120645 0.450492 -0.526352
F13   F     F_    0.710778 0.892610 0.237366 -0.511096
F14   F     F_    0.710257 0.313316 0.340497 -0.506029
F15   F     F_    0.789402 0.392558 0.736694 -0.507998
F16   F     F_    0.329860 0.272986 0.337528 -0.549034
F17   F     F_    0.210778 0.392610 0.737366 -0.511095
F18   F     F_    0.814669 0.209437 0.339616 -0.501811
F19   F     F_    0.892561 0.287533 0.736274 -0.480494
F20   F     F_    0.224434 0.167934 0.336128 -0.514181
F21   F     F_    0.107505 0.287514 0.736786 -0.484021
F22   F     F_    0.314674 0.709442 0.839615 -0.501802
F23   F     F_    0.465682 0.619708 0.049010 -0.536891
F24   F     F_    0.392561 0.787533 0.236273 -0.480474
F25   F     F_    0.724257 0.668110 0.836190 -0.514118
F26   F     F_    0.607505 0.787514 0.236786 -0.484013
F27   F     F_    0.530909 0.620645 0.950492 -0.526296
F28   F     F_    0.045650 0.940885 0.535857 -0.548500
F29   F     F_    0.956056 0.939413 0.464514 -0.553918
F30   F     F_    0.545650 0.440885 0.035857 -0.548514
F31   F     F_    0.456056 0.439413 0.964514 -0.553925
F32   F     F_    0.187156 0.796754 0.657912 -0.520708
H1    H     H_    0.773441 0.164302 0.078244 0.366307
H2    H     H_    0.872466 0.791824 0.938506 0.411529
H3    H     H_    0.017873 0.233706 0.069624 0.368817
H4    H     H_    0.031311 0.198070 0.885295 0.364159
H5    H     H_    0.396379 0.319002 0.610314 0.356278
H6    H     H_    0.372138 0.292014 0.438509 0.411546
H7    H     H_    0.518172 0.733636 0.569662 0.368840
H8    H     H_    0.531599 0.698020 0.385300 0.364144
H9    H     H_    0.713584 0.994899 0.727060 0.362319
H10   H     H_    0.144351 0.262174 0.084277 0.365611
H11   H     H_    0.286053 0.995055 0.726156 0.353940
H12   H     H_    0.273427 0.664287 0.578247 0.366305
H13   H     H_    0.213584 0.494899 0.227060 0.362387
H14   H     H_    0.644645 0.761961 0.584186 0.365624
H15   H     H_    0.786054 0.495055 0.226158 0.353938
H16   H     H_    0.896705 0.818860 0.110345 0.356299
O1    O     O_3   0.000000 1.000000 0.250030 -0.538115
O2    O     O_R   0.585480 0.353820 0.219950 -0.472606
O3    O     O_R   0.414520 0.353820 0.780050 -0.465253
O4    O     O_R   0.414520 0.353820 0.219950 -0.486649
O5    O     O_R   0.914530 0.146170 0.280090 -0.465948
O6    O     O_R   0.914530 0.146170 0.719910 -0.444746
O7    O     O_R   0.085470 0.146170 0.280090 -0.476280
O8    O     O_R   0.085470 0.146170 0.719910 -0.454450
O9    O     O_R   0.414530 0.646170 0.780090 -0.465961
O10   O     O_R   0.414530 0.646170 0.219910 -0.444737
O11   O     O_R   0.585470 0.646170 0.780090 -0.476224
O12   O     O_3   0.000000 1.000000 0.749970 -0.531250
O13   O     O_R   0.585470 0.646170 0.219910 -0.454442
O14   O     O_R   0.146180 0.085440 0.219990 -0.494322
O15   O     O_R   0.146180 0.085440 0.780010 -0.525238
O16   O     O_R   0.853820 0.085440 0.219990 -0.508919
O17   O     O_R   0.853820 0.085440 0.780010 -0.524773
O18   O     O_R   0.646180 0.585440 0.719990 -0.494338
O19   O     O_R   0.646180 0.585440 0.280010 -0.525236
O20   O     O_R   0.353820 0.585440 0.719990 -0.508906
O21   O     O_R   0.353820 0.585440 0.280010 -0.524799
O22   O     O_R   0.853820 0.914550 0.219980 -0.481514
O23   O     O_3   0.500000 0.500000 0.750030 -0.538121
O24   O     O_R   0.853820 0.914550 0.780020 -0.505595
O25   O     O_R   0.146180 0.914550 0.219980 -0.488636
O26   O     O_R   0.146180 0.914550 0.780020 -0.486331
O27   O     O_R   0.353820 0.414550 0.719980 -0.481542
O28   O     O_R   0.353820 0.414550 0.280020 -0.505650
O29   O     O_R   0.646180 0.414550 0.719980 -0.488633
O30   O     O_R   0.646180 0.414550 0.280020 -0.486348
O31   O     O_R   0.060720 0.999990 0.135450 -0.497319
O32   O     O_R   0.060720 0.999990 0.864550 -0.494796
O33   O     O_R   0.939280 0.999990 0.135450 -0.483055
O34   O     O_3   0.500000 0.500000 0.249970 -0.531234
O35   O     O_R   0.939280 0.999990 0.864550 -0.501846
O36   O     O_R   0.560720 0.499990 0.635450 -0.497310
O37   O     O_R   0.560720 0.499990 0.364550 -0.494794
O38   O     O_R   0.439280 0.499990 0.635450 -0.483052
O39   O     O_R   0.439280 0.499990 0.364550 -0.501914
O40   O     O_R   1.000000 0.939270 0.364600 -0.493880
O41   O     O_R   0.000000 0.939270 0.635400 -0.468073
O42   O     O_R   0.500000 0.439270 0.864600 -0.493887
O43   O     O_R   0.500000 0.439270 0.135400 -0.468107
O44   O     O_R   0.000000 0.060730 0.364620 -0.486354
O45   O     O_R   0.085480 0.853820 0.280050 -0.468513
O46   O     O_R   1.000000 0.060730 0.635380 -0.507793
O47   O     O_R   0.500000 0.560730 0.864620 -0.486327
O48   O     O_R   0.500000 0.560730 0.135380 -0.507784
O49   O     O_2   0.864772 0.186177 0.142142 -0.483693
O50   O     O_R   0.749272 0.181519 0.111080 -0.546404
O51   O     O_2   0.653071 0.078441 0.783733 -0.361821
O52   O     O_R   0.734936 0.045606 0.722511 -0.663374
O53   O     O_2   0.092283 0.225843 0.165441 -0.503349
O54   O     O_R   0.183688 0.260061 0.111447 -0.529567
O55   O     O_2   0.346757 0.078311 0.782788 -0.353717
O56   O     O_R   0.085480 0.853820 0.719950 -0.472617
O57   O     O_R   0.264792 0.045777 0.721804 -0.678152
O58   O     O_2   0.364764 0.686172 0.642139 -0.483641
O59   O     O_R   0.249261 0.681507 0.611084 -0.546399
O60   O     O_2   0.153071 0.578441 0.283734 -0.361841
O61   O     O_R   0.234935 0.545606 0.222511 -0.663311
O62   O     O_2   0.592435 0.725737 0.665334 -0.503495
O63   O     O_R   0.683938 0.759845 0.611388 -0.529508
O64   O     O_2   0.846756 0.578311 0.282791 -0.353715
O65   O     O_R   0.764792 0.545777 0.221806 -0.678153
O66   O     O_2   0.990819 0.811066 0.046287 -0.428118
O67   O     O_R   0.914520 0.853820 0.280050 -0.465267
O68   O     O_R   0.903815 0.868332 0.093486 -0.633277
O69   O     O_2   0.982662 0.847586 0.907409 -0.438497
O70   O     O_R   0.884736 0.835820 0.960345 -0.600109
O71   O     O_2   0.094333 0.128194 0.083513 -0.441044
O72   O     O_R   0.000438 0.191591 0.047742 -0.625783
O73   O     O_2   0.104615 0.158530 0.956304 -0.430451
O74   O     O_R   0.008219 0.153523 0.901887 -0.671605
O75   O     O_2   0.490565 0.311092 0.546315 -0.428159
O76   O     O_R   0.403557 0.368460 0.593448 -0.633099
O77   O     O_2   0.482418 0.347607 0.407408 -0.438364
O78   O     O_R   0.914520 0.853820 0.719950 -0.486589
O79   O     O_R   0.384479 0.335989 0.460349 -0.600225
O80   O     O_2   0.594597 0.628061 0.583449 -0.440874
O81   O     O_R   0.500665 0.691540 0.547792 -0.625826
O82   O     O_2   0.604858 0.658363 0.456301 -0.430451
O83   O     O_R   0.508442 0.653507 0.401893 -0.671595
O84   O     O_R   0.585480 0.353820 0.780050 -0.468516
Zn1   Zn    Zn3+2 0.000000 0.086760 0.292960 1.110905
Zn2   Zn    Zn3+2 0.586770 0.499990 0.292890 1.066320
Zn3   Zn    Zn3+2 0.413230 0.499990 0.707110 1.071930
Zn4   Zn    Zn3+2 0.413230 0.499990 0.292890 1.060211
Zn5   Zn    Zn3+2 1.000000 0.913240 0.292940 1.099456
Zn6   Zn    Zn3+2 0.000000 0.913240 0.707060 1.111942
Zn7   Zn    Zn3+2 0.500000 0.413240 0.792940 1.099441
Zn8   Zn    Zn3+2 0.500000 0.413240 0.207060 1.111940
Zn9   Zn    Zn3+2 0.000000 0.086760 0.707040 1.119266
Zn10  Zn    Zn3+2 0.500000 0.586760 0.792960 1.110908
Zn11  Zn    Zn3+2 0.500000 0.586760 0.207040 1.119293
Zn12  Zn    Zn3+2 0.086770 0.999990 0.207110 1.081258
Zn13  Zn    Zn3+2 0.086770 0.999990 0.792890 1.066312
Zn14  Zn    Zn3+2 0.913230 0.999990 0.207110 1.071964
Zn15  Zn    Zn3+2 0.913230 0.999990 0.792890 1.060239
Zn16  Zn    Zn3+2 0.586770 0.499990 0.707110 1.081225

loop_
_geom_bond_atom_site_label_1
_geom_bond_atom_site_label_2
_ccdc_geom_bond_type
C33   C55   S    
O19   Zn2   S    
O12   Zn6   S    
O39   Zn4   S    
C81   C107  S    
C76   O3    A    
C34   C56   S    
C13   C26   A    
C14   F14   S    
C63   O46   A    
C64   O42   A    
O40   Zn5   S    
C10   C42   S    
H8    O83   S    
O37   Zn2   S    
C14   C18   A    
C59   O35   A    
C104  O54   S    
H3    O72   S    
C80   C84   A    
C1    O45   A    
O29   Zn16  S    
C4    C36   S    
C2    F10   S    
C60   O38   A    
C31   C80   A    
H9    O52   S    
C87   O4    A    
C11   O82   D    
C15   C19   A    
O12   Zn9   S    
O21   Zn4   S    
O16   Zn14  S    
O11   Zn10  S    
C15   F15   S    
C108  O63   S    
C50   O17   A    
H10   O54   S    
H4    O74   S    
O32   Zn13  S    
C103  O51   D    
C20   F20   S    
O6    Zn9   S    
C5    C37   S    
C29   C51   S    
C38   C39   A    
C8    O75   D    
C9    O79   S    
C73   F30   S    
C11   O83   S    
O47   Zn10  S    
C80   C106  S    
O41   Zn6   S    
O12   Zn15  S    
C5    O70   S    
C79   C105  S    
O31   Zn12  S    
C17   C101  A    
H1    O50   S    
O1    Zn1   S    
C107  O61   S    
O48   Zn11  S    
C28   C50   S    
C67   F1    S    
C29   C78   A    
C91   F7    S    
C3    O64   D    
O36   Zn16  S    
C54   O29   A    
C6    O72   S    
O34   Zn4   S    
C70   C74   D    
C75   C102  S    
C43   C95   S    
C6    C38   S    
C12   C95   A    
C36   C46   A    
O33   Zn14  S    
C17   C22   A    
C62   O40   A    
C91   C100  A    
C76   O27   A    
C25   F25   S    
C61   O39   A    
O5    Zn1   S    
C66   O43   A    
C44   C47   A    
C68   C72   D    
C25   C34   A    
C39   C45   A    
C48   C60   S    
C66   O48   A    
C83   C88   A    
C14   C97   A    
C3    O65   S    
C57   O19   A    
C46   C58   S    
C84   F32   S    
C55   O21   A    
C32   O22   A    
O27   Zn3   S    
C104  O53   D    
O4    Zn8   S    
C27   C75   A    
C52   O15   A    
O26   Zn13  S    
O24   Zn15  S    
H2    O70   S    
C57   O13   A    
C20   C29   A    
H7    O81   S    
O28   Zn4   S    
C21   O26   A    
C106  O58   D    
H12   O59   S    
C89   F5    S    
C77   C90   A    
C105  O57   S    
O38   Zn3   S    
C107  O60   D    
C13   C96   A    
C78   C104  S    
O9    Zn10  S    
C51   O7    A    
C2    C94   A    
O45   Zn5   S    
C103  O52   S    
O56   Zn6   S    
C85   F2    S    
C87   O28   A    
O30   Zn2   S    
O23   Zn10  S    
C35   C83   A    
C33   C81   A    
C1    C94   S    
C42   C48   A    
C9    C41   S    
C82   C86   A    
C66   C73   S    
C9    O77   D    
O25   Zn12  S    
O67   Zn5   S    
C63   O41   A    
C23   F22   S    
C56   O18   A    
C88   C96   A    
C23   C31   A    
C67   C68   S    
O35   Zn15  S    
C26   F26   S    
O84   Zn7   S    
C12   F11   S    
C13   F13   S    
C85   C94   A    
C24   F24   S    
O42   Zn7   S    
C69   F23   S    
C6    O71   D    
C23   C98   A    
C58   O33   A    
C106  O59   S    
C41   C47   A    
C62   C72   S    
C59   O32   A    
C16   C20   A    
C31   C53   S    
C69   C73   D    
C28   C77   A    
C102  O50   S    
O3    Zn7   S    
C79   C92   A    
C18   F18   S    
C92   C101  A    
C52   O8    A    
O20   Zn3   S    
O23   Zn16  S    
O43   Zn8   S    
C64   C74   S    
O18   Zn16  S    
C72   F29   S    
C32   C96   S    
C64   O47   A    
C63   C71   S    
O34   Zn2   S    
C82   C108  S    
O15   Zn13  S    
C2    C24   A    
C70   F27   S    
C60   O36   A    
H15   O65   S    
C30   C79   A    
C37   C45   A    
O1    Zn12  S    
C61   O37   A    
C90   C99   A    
C71   F28   S    
C32   O67   A    
C10   O80   D    
C98   F9    S    
C87   C100  S    
C7    O73   D    
C53   O9    A    
C76   C101  S    
C40   C48   A    
C30   C52   S    
H6    O79   S    
C45   C59   S    
C1    O25   A    
C22   C30   A    
C58   O31   A    
C49   O5    A    
H5    O76   S    
C51   O14   A    
C16   C100  A    
C18   C27   A    
O10   Zn11  S    
C15   C99   A    
C65   O2    A    
C43   O78   A    
C105  O55   D    
C47   C61   S    
C49   O16   A    
O23   Zn7   S    
O2    Zn8   S    
O22   Zn14  S    
C78   C91   A    
C8    C40   S    
C74   F31   S    
O34   Zn8   S    
C24   C33   A    
C92   F8    S    
C21   O56   A    
H16   O68   S    
C12   C25   A    
C35   C57   S    
C50   O6    A    
O13   Zn11  S    
O8    Zn9   S    
C16   F16   S    
C42   C44   A    
C108  O62   D    
C22   F21   S    
C4    O68   S    
C65   O30   A    
C68   F12   S    
C3    C83   S    
C8    O76   S    
C19   C28   A    
C17   F17   S    
O78   Zn6   S    
C62   O44   A    
C21   C93   S    
C43   O24   A    
O17   Zn15  S    
C4    O66   D    
O12   Zn13  S    
O44   Zn1   S    
C56   O11   A    
C19   F19   S    
O34   Zn11  S    
C5    O69   D    
C86   F3    S    
O7    Zn1   S    
C67   C71   D    
C84   C93   A    
C90   F6    S    
C69   C70   S    
C54   C99   S    
C102  O49   D    
C81   C85   A    
C11   C44   S    
C38   C46   A    
C77   C103  S    
C86   C95   A    
C75   C89   A    
C54   O84   A    
C88   F4    S    
C27   C49   S    
C26   C35   A    
O46   Zn9   S    
C65   C97   S    
C10   O81   S    
C36   C37   A    
H11   O57   S    
C89   C97   A    
C7    C39   S    
C40   C41   A    
C34   C82   A    
C55   O10   A    
H14   O63   S    
O1    Zn14  S    
O1    Zn5   S    
C93   C98   A    
O23   Zn3   S    
O14   Zn12  S    
C53   O20   A    
H13   O61   S    
C7    O74   S    
