data_mof_unit_17658.cif
_audit_creation_date              2012-12-11T15:24:36-0500
_audit_creation_method            fapswitch 2.2
_symmetry_space_group_name_H-M    P1
_symmetry_Int_Tables_number       1
_space_group_crystal_system       triclinic
_cell_length_a                    23.025907
_cell_length_b                    6.942626
_cell_length_c                    20.728904
_cell_angle_alpha                 89.850891
_cell_angle_beta                  92.985028
_cell_angle_gamma                 89.760704
_cell_volume                      3309.18979681

loop_
_atom_site_label
_atom_site_type_symbol
_atom_type_description
_atom_site_fract_x
_atom_site_fract_y
_atom_site_fract_z
_atom_type_partial_charge
O1    O     O_R   0.188030 0.379840 0.189340 -0.535138
O2    O     O_R   0.811970 0.620160 0.810660 -0.535474
O3    O     O_R   0.311970 0.879840 0.310660 -0.540827
O4    O     O_R   0.688030 0.120160 0.689340 -0.535922
O5    O     O_R   0.307090 0.708420 0.185790 -0.537094
O6    O     O_R   0.692910 0.291580 0.814210 -0.537280
O7    O     O_R   0.192910 0.208420 0.314210 -0.536966
O8    O     O_R   0.807090 0.791580 0.685790 -0.538070
C1    C     C_R   0.326773 0.540626 0.170660 0.729325
C2    C     C_R   0.673216 0.459377 0.829325 0.730869
C3    C     C_R   0.173196 0.040843 0.329303 0.733821
C4    C     C_R   0.826768 0.959168 0.670656 0.732752
O9    O     O_R   0.188180 0.709480 0.181650 -0.538860
O10   O     O_R   0.811820 0.290520 0.818350 -0.539367
O11   O     O_R   0.311820 0.209480 0.318350 -0.537405
O12   O     O_R   0.688180 0.790520 0.681650 -0.541014
O13   O     O_R   0.192210 0.880960 0.306500 -0.536667
O14   O     O_R   0.807790 0.119040 0.693500 -0.535997
O15   O     O_R   0.307790 0.380960 0.193500 -0.536066
O16   O     O_R   0.692210 0.619040 0.806500 -0.537433
C5    C     C_R   0.167300 0.541162 0.166221 0.731292
C6    C     C_R   0.832698 0.458839 0.833781 0.729996
C7    C     C_R   0.332552 0.039358 0.334476 0.727763
C8    C     C_R   0.667082 0.959908 0.666762 0.733849
O17   O     O_3   0.251460 0.546730 0.290970 -0.370088
O18   O     O_3   0.748540 0.453270 0.709030 -0.369551
O19   O     O_3   0.248540 0.046730 0.209030 -0.367430
O20   O     O_3   0.751460 0.953270 0.790970 -0.369517
V1    V     V_3+5 0.249730 0.821120 0.242400 1.400438
V2    V     V_3+5 0.750270 0.178880 0.757600 1.407511
V3    V     V_3+5 0.250270 0.321120 0.257600 1.403936
V4    V     V_3+5 0.749730 0.678880 0.742400 1.405971
C9    C     C_R   0.564128 0.872408 0.630572 0.083920
C10   C     C_R   0.429182 0.159618 0.382228 0.091912
C11   C     C_R   0.931377 0.347510 0.878629 0.076830
C12   C     C_R   0.068619 0.652494 0.121375 0.076848
C13   C     C_R   0.616079 0.974164 0.619976 -0.096556
C14   C     C_R   0.382440 0.026943 0.383987 -0.108263
C15   C     C_R   0.882127 0.468918 0.883045 -0.100069
C16   C     C_R   0.117869 0.531082 0.116960 -0.100388
C17   C     C_R   0.618551 0.100220 0.566318 0.073052
C18   C     C_R   0.383624 0.883312 0.433422 0.041547
C19   C     C_R   0.879771 0.601040 0.934921 0.073847
C20   C     C_R   0.120223 0.398956 0.065085 0.073740
C21   C     C_R   0.567272 0.139558 0.527087 0.083715
C22   C     C_R   0.423814 0.899257 0.487768 0.086393
C23   C     C_R   0.930160 0.631837 0.976613 0.074915
C24   C     C_R   0.069833 0.368161 0.023393 0.074982
C25   C     C_R   0.518663 0.016648 0.531756 -0.048800
C26   C     C_R   0.471580 0.026066 0.484279 -0.041865
C27   C     C_R   0.976351 0.495254 0.976412 -0.047666
C28   C     C_R   0.023643 0.504748 0.023593 -0.047627
C29   C     C_R   0.516838 0.884875 0.583823 0.057401
C30   C     C_R   0.472982 0.160731 0.433120 0.059474
C31   C     C_R   0.975577 0.349267 0.928955 0.056599
C32   C     C_R   0.024418 0.650733 0.071051 0.056614
C33   C     C_R   0.562225 0.297434 0.483337 0.157168
C34   C     C_R   0.418337 0.793445 0.546003 0.164741
C35   C     C_R   0.936366 0.792971 0.018789 0.156378
C36   C     C_R   0.063625 0.207018 0.981221 0.156318
C37   C     C_R   0.517042 0.300708 0.435603 -0.184587
C38   C     C_R   0.465800 0.777885 0.590465 -0.177327
C39   C     C_R   0.981636 0.795589 0.066436 -0.177046
C40   C     C_R   0.018354 0.204399 0.933574 -0.176970
H1    H     H_    0.515500 0.420243 0.401918 0.144410
H2    H     H_    0.460908 0.685610 0.631932 0.143913
H3    H     H_    0.984627 0.918725 0.098341 0.144481
H4    H     H_    0.015358 0.081251 0.901674 0.144493
C41   C     C_3   0.039277 0.130738 0.521068 -0.139397
C42   C     C_3   0.960611 0.869316 0.478807 -0.139214
C43   C     C_3   0.469859 0.664479 0.989749 -0.137198
C44   C     C_3   0.529993 0.335637 0.010054 -0.137166
C45   C     C_3   0.022382 0.947166 0.558422 -0.137391
C46   C     C_3   0.977506 0.052889 0.441452 -0.137213
C47   C     C_3   0.476843 0.503154 0.939083 -0.137863
C48   C     C_3   0.523011 0.496961 0.060716 -0.137888
H5    H     H_    0.040668 0.903449 0.606894 0.109796
H6    H     H_    0.959220 0.096606 0.392980 0.109664
H7    H     H_    0.458040 0.505643 0.888675 0.109529
H8    H     H_    0.541822 0.494482 0.111121 0.109674
H9    H     H_    0.071906 0.238769 0.538273 0.107905
H10   H     H_    0.927981 0.761286 0.461603 0.107795
H11   H     H_    0.444907 0.800325 0.981605 0.107019
H12   H     H_    0.554946 0.199791 0.018196 0.107080
H13   H     H_    0.047317 0.684409 0.492085 0.109971
H14   H     H_    0.952569 0.315644 0.507791 0.110135
H15   H     H_    0.434418 0.224779 0.983505 0.106899
H16   H     H_    0.565435 0.775335 0.016295 0.106932
C49   C     C_1   0.872266 0.968700 0.624839 -0.193004
C50   C     C_1   0.127659 0.031329 0.375078 -0.194375
C51   C     C_1   0.627680 0.469248 0.875081 -0.192507
C52   C     C_1   0.372254 0.530777 0.124834 -0.192264
C53   C     C_3   0.974063 0.172909 0.504142 -0.138701
C54   C     C_3   0.025824 0.827146 0.495734 -0.139032
C55   C     C_3   0.535730 0.650841 0.009009 -0.137108
C56   C     C_3   0.464122 0.349273 0.990793 -0.137039
C57   C     C_3   0.957787 0.989474 0.540884 0.169331
C58   C     C_3   0.042101 0.010581 0.458991 0.169419
C59   C     C_3   0.542095 0.489663 0.958962 0.168471
C60   C     C_3   0.457759 0.510450 0.040843 0.168505
C61   C     C_1   0.910673 0.977742 0.586887 -0.063225
C62   C     C_1   0.089229 0.022302 0.413002 -0.063782
C63   C     C_1   0.589238 0.478219 0.912991 -0.062105
C64   C     C_1   0.410650 0.521852 0.086862 -0.062608
C65   C     C_3   0.558001 0.754503 0.691805 -0.783149
H17   H     H_    0.555174 0.599050 0.679595 0.208074
H18   H     H_    0.593843 0.773752 0.728765 0.209464
H19   H     H_    0.518240 0.800060 0.715858 0.196187
C66   C     C_3   0.436998 0.283238 0.322590 -0.774958
H20   H     H_    0.482167 0.268038 0.306881 0.197184
H21   H     H_    0.409220 0.239593 0.279986 0.206451
H22   H     H_    0.428383 0.436616 0.333425 0.200369
C67   C     C_3   0.937681 0.218581 0.820240 -0.772725
H23   H     H_    0.925485 0.068601 0.832240 0.206593
H24   H     H_    0.911070 0.267798 0.777209 0.204034
H25   H     H_    0.983186 0.221189 0.804970 0.198122
C68   C     C_3   0.062313 0.781432 0.179762 -0.772647
H26   H     H_    0.074462 0.931442 0.167744 0.206658
H27   H     H_    0.016815 0.778699 0.195056 0.198057
H28   H     H_    0.088955 0.732327 0.222785 0.204177
C69   C     C_3   0.677772 0.165606 0.546040 -0.753223
H29   H     H_    0.677457 0.197164 0.493597 0.211598
H30   H     H_    0.692671 0.293236 0.574337 0.220551
H31   H     H_    0.710410 0.048503 0.553974 0.181705
C70   C     C_3   0.349224 0.698816 0.422519 -0.706870
H32   H     H_    0.301973 0.726108 0.426283 0.200367
H33   H     H_    0.357543 0.638341 0.374512 0.217955
H34   H     H_    0.363640 0.580628 0.455490 0.208229
C71   C     C_3   0.820911 0.680773 0.951542 -0.736207
H35   H     H_    0.818005 0.693400 0.004572 0.203419
H36   H     H_    0.812200 0.821138 0.927173 0.219746
H37   H     H_    0.785249 0.580620 0.936632 0.180459
C72   C     C_3   0.179081 0.319211 0.048464 -0.735971
H38   H     H_    0.181984 0.306532 0.995435 0.203415
H39   H     H_    0.214743 0.419386 0.063359 0.180597
H40   H     H_    0.187796 0.178869 0.072846 0.219873
C73   C     C_3   0.598044 0.478670 0.491274 -0.779322
H41   H     H_    0.570169 0.607863 0.481840 0.210746
H42   H     H_    0.616350 0.495058 0.541475 0.225066
H43   H     H_    0.633048 0.480115 0.456468 0.204254
C74   C     C_3   0.360973 0.720270 0.568454 -0.809281
H44   H     H_    0.355641 0.764922 0.619258 0.205555
H45   H     H_    0.323224 0.782645 0.540240 0.221786
H46   H     H_    0.359906 0.560496 0.566618 0.210633
C75   C     C_3   0.901112 0.976315 0.009726 -0.773404
H47   H     H_    0.925675 0.102868 0.029042 0.209246
H48   H     H_    0.891678 0.006350 0.957644 0.221636
H49   H     H_    0.860512 0.968600 0.036029 0.205485
C76   C     C_3   0.098874 0.023667 0.990290 -0.773304
H50   H     H_    0.074303 0.897113 0.970988 0.209256
H51   H     H_    0.139469 0.031348 0.963978 0.205517
H52   H     H_    0.108316 0.993661 0.042373 0.221671

loop_
_geom_bond_atom_site_label_1
_geom_bond_atom_site_label_2
_ccdc_geom_bond_type
C34   C38   A    
C59   C63   S    
O1    C5    A    
O19   V1    S    
C68   H26   S    
O13   V1    S    
O3    C7    A    
C34   C74   S    
C60   C64   S    
C44   C48   S    
O15   V3    S    
C68   H27   S    
C75   H47   S    
C46   C58   S    
O7    C3    A    
C65   H18   S    
C21   C33   A    
O5    C1    A    
C26   C30   A    
C40   H4    S    
O9    V1    S    
C42   C54   S    
C14   C18   A    
C41   C53   S    
C66   H21   S    
C48   C55   S    
O16   V4    S    
C11   C15   A    
O4    C8    A    
C55   C59   S    
C43   C55   S    
C54   C58   S    
C43   C60   S    
O1    V3    S    
O2    V4    S    
C18   C22   A    
C17   C69   S    
O3    V1    S    
C10   C30   A    
C50   C62   T    
C12   C16   A    
C18   C70   S    
C75   H48   S    
C28   C32   A    
C74   H44   S    
C1    O15   A    
C2    O16   A    
C69   H31   S    
O2    C6    A    
C70   H34   S    
C41   C45   S    
O14   V2    S    
C21   C25   A    
C16   C20   A    
C43   H11   S    
C42   C57   S    
C71   H37   S    
C41   C58   S    
O11   C7    A    
H16   C55   S    
O12   C8    A    
C22   C34   A    
O17   V1    S    
C46   C53   S    
C45   C54   S    
O10   V2    S    
C1    C52   S    
C65   H19   S    
C47   C56   S    
C24   C36   A    
O5    V1    S    
C9    C29   A    
C73   H43   S    
C39   H3    S    
O7    V3    S    
C38   H2    S    
C11   C31   A    
C27   C28   A    
O8    V4    S    
C4    C49   S    
O20   V4    S    
C9    C65   S    
C76   H52   S    
O18   V4    S    
C15   C19   A    
C58   C62   S    
O19   V3    S    
C9    C13   A    
C74   H45   S    
C45   C57   S    
C42   C46   S    
C12   C32   A    
H14   C53   S    
C72   H40   S    
C73   H42   S    
H13   C54   S    
C19   C71   S    
O8    C4    A    
C31   C40   A    
C47   C59   S    
C8    C13   S    
C32   C39   A    
C33   C73   S    
C33   C37   A    
C12   C68   S    
C69   H29   S    
C44   H12   S    
C35   C75   S    
O6    V2    S    
C2    C51   S    
O18   V2    S    
C70   H32   S    
C66   H22   S    
O12   V4    S    
C53   C57   S    
C75   H49   S    
C70   H33   S    
C67   H23   S    
C73   H41   S    
C20   C72   S    
C3    O13   A    
C17   C21   A    
C49   C61   T    
C10   C14   A    
O17   V3    S    
C48   H8    S    
C51   C63   T    
O6    C2    A    
C23   C27   A    
H15   C56   S    
O11   V3    S    
C74   H46   S    
C30   C37   A    
C48   C60   S    
C7    C14   S    
C65   H17   S    
C22   C26   A    
C35   C39   A    
C36   C40   A    
C67   H25   S    
C76   H51   S    
C71   H35   S    
C76   H50   S    
O9    C5    A    
C43   C47   S    
C3    C50   S    
O10   C6    A    
C72   H38   S    
C5    C16   S    
C47   H7    S    
C25   C29   A    
C6    C15   S    
C56   C60   S    
O20   V2    S    
C68   H28   S    
C11   C67   S    
C27   C31   A    
C36   C76   S    
C13   C17   A    
C42   H10   S    
C57   C61   S    
C69   H30   S    
C41   H9    S    
C52   C64   T    
C23   C35   A    
C44   C56   S    
C37   H1    S    
C24   C28   A    
C29   C38   A    
C25   C26   A    
C46   H6    S    
C4    O14   A    
C72   H39   S    
C10   C66   S    
C45   H5    S    
C67   H24   S    
C66   H20   S    
C19   C23   A    
O4    V2    S    
C20   C24   A    
C71   H36   S    
C44   C59   S    
