data_mof_unit_44502.cif
_audit_creation_date              2012-12-10T20:28:47-0500
_audit_creation_method            fapswitch 2.2
_symmetry_space_group_name_H-M    P1
_symmetry_Int_Tables_number       1
_space_group_crystal_system       triclinic
_cell_length_a                    10.682371
_cell_length_b                    10.615083
_cell_length_c                    9.956751
_cell_angle_alpha                 89.085178
_cell_angle_beta                  88.89798
_cell_angle_gamma                 92.874438
_cell_volume                      1127.24720755

loop_
_atom_site_label
_atom_site_type_symbol
_atom_type_description
_atom_site_fract_x
_atom_site_fract_y
_atom_site_fract_z
_atom_type_partial_charge
C1    C     C_R   0.500739 0.260641 0.500724 0.870493
C2    C     C_R   0.388897 0.929995 0.564686 0.152709
C3    C     C_R   0.485101 0.870564 0.493951 -0.134557
C4    C     C_R   0.260082 0.491414 0.502080 0.856351
C5    C     C_R   0.568883 0.939966 0.409779 0.109984
C6    C     C_3   0.708297 0.935700 0.397221 -0.507369
C7    C     C_3   0.712561 0.078599 0.399036 -0.486843
C8    C     C_R   0.426916 0.413360 0.073834 0.162984
C9    C     C_R   0.573287 0.586125 0.069082 0.220019
C10   C     C_R   0.573245 0.586425 0.925196 0.222522
C11   C     C_R   0.428214 0.412684 0.931609 0.140805
C12   C     C_R   0.055292 0.402422 0.599538 0.061598
C13   C     C_3   0.445329 0.274321 0.929450 -0.504668
C14   C     C_3   0.439779 0.274039 0.081359 -0.471391
C15   C     C_R   0.496436 0.739113 0.498863 0.868546
C16   C     C_R   0.738915 0.494729 0.498773 0.848578
C17   C     C_R   0.108355 0.329915 0.703217 -0.300395
C18   C     C_R   0.032082 0.257043 0.795498 0.223271
C19   C     C_R   0.902479 0.241571 0.773243 0.234906
C20   C     C_R   0.850968 0.309306 0.668572 -0.239120
C21   C     C_R   0.924529 0.396757 0.588460 0.052411
C22   C     C_3   0.661405 0.679716 0.137249 -0.852779
C23   C     C_R   0.126316 0.481614 0.505903 -0.078291
C24   C     C_3   0.661687 0.681175 0.851460 -0.812960
C25   C     C_3   0.089750 0.202124 0.919718 -0.415244
C26   C     C_3   0.137600 0.071632 0.894814 -0.901254
C27   C     C_3   0.817028 0.155277 0.860080 -0.945508
C28   C     C_3   0.279842 0.858142 0.636052 -0.398651
C29   C     C_3   0.154665 0.888360 0.574376 -0.883260
C30   C     C_R   0.068735 0.554313 0.409190 -0.208239
C31   C     C_R   0.941231 0.554252 0.405496 -0.228982
C32   C     C_R   0.869967 0.478814 0.496121 -0.071274
C33   C     C_R   0.572811 0.068388 0.411628 0.124723
C34   C     C_R   0.494777 0.128370 0.500003 -0.132666
C35   C     C_R   0.397216 0.061457 0.569234 -0.242712
H1    H     H_    0.122867 0.615531 0.339033 0.162930
H2    H     H_    0.751942 0.293652 0.651262 0.168971
H3    H     H_    0.898084 0.616504 0.334538 0.152745
H4    H     H_    0.328931 0.111882 0.625826 0.146893
H5    H     H_    0.750760 0.892375 0.486896 0.199899
H6    H     H_    0.664482 0.668743 0.245324 0.290361
H7    H     H_    0.759523 0.667796 0.103548 0.206823
H8    H     H_    0.634672 0.777346 0.114400 0.220485
H9    H     H_    0.667171 0.671902 0.743513 0.289284
H10   H     H_    0.634319 0.778559 0.872435 0.215629
H11   H     H_    0.759480 0.669674 0.882893 0.208634
H12   H     H_    0.739314 0.898316 0.299224 0.205493
H13   H     H_    0.060166 0.004156 0.867044 0.269383
H14   H     H_    0.208645 0.077066 0.812762 0.253792
H15   H     H_    0.181583 0.035895 0.987123 0.254725
H16   H     H_    0.167668 0.266473 0.953009 0.200393
H17   H     H_    0.021691 0.196172 0.005411 0.218437
H18   H     H_    0.809486 0.193134 0.963019 0.237039
H19   H     H_    0.721077 0.145757 0.819368 0.234373
H20   H     H_    0.853048 0.059238 0.864502 0.249373
H21   H     H_    0.136119 0.989732 0.584961 0.266571
H22   H     H_    0.154897 0.864278 0.466188 0.261814
H23   H     H_    0.757948 0.118234 0.489582 0.202483
H24   H     H_    0.077565 0.831672 0.626494 0.254674
H25   H     H_    0.287028 0.754756 0.630865 0.232050
H26   H     H_    0.279264 0.881960 0.744136 0.209458
H27   H     H_    0.745179 0.123353 0.302012 0.204120
H28   H     H_    0.366206 0.221240 0.883160 0.208190
H29   H     H_    0.538752 0.251890 0.888111 0.220349
H30   H     H_    0.354132 0.223642 0.124439 0.203718
H31   H     H_    0.529019 0.247483 0.127297 0.220203
H32   H     H_    0.208187 0.330311 0.716950 0.181547
N1    N     N_R   0.499160 0.499140 0.142800 -0.127619
N2    N     N_R   0.499160 0.499180 0.857150 -0.125145
O1    O     O_R   0.500020 0.316790 0.614690 -0.631205
O2    O     O_R   0.500000 0.316760 0.385350 -0.612078
O3    O     O_R   0.316770 0.500020 0.614690 -0.630862
O4    O     O_R   0.316760 0.499980 0.385350 -0.608273
O5    O     O_R   0.500000 0.683240 0.614650 -0.633737
O6    O     O_R   0.499980 0.683210 0.385310 -0.617286
O7    O     O_R   0.683240 0.500020 0.614650 -0.628418
O8    O     O_R   0.683230 0.499980 0.385310 -0.628064
Zn1   Zn    Zn3+2 0.500010 0.500020 0.653130 0.920419
Zn2   Zn    Zn3+2 0.499990 0.499980 0.346870 0.937693

loop_
_geom_bond_atom_site_label_1
_geom_bond_atom_site_label_2
_ccdc_geom_bond_type
C2    C35   A    
C15   O6    A    
O1    Zn1   S    
C19   C20   A    
O2    Zn2   S    
C27   H19   S    
C12   C23   A    
C1    O2    A    
C5    C6    S    
C24   H10   S    
C28   C29   S    
O7    Zn1   S    
C16   O8    A    
C26   H15   S    
C30   C31   A    
C27   H20   S    
C9    C22   S    
C22   H6    S    
C34   C35   A    
O3    Zn1   S    
C29   H24   S    
C5    C33   A    
C12   C17   A    
C19   C27   S    
C9    C10   A    
C7    H23   S    
C26   H13   S    
C28   H26   S    
N1    Zn2   S    
O8    Zn2   S    
C13   C14   S    
C7    C33   S    
N2    Zn1   S    
C18   C25   S    
C1    C34   S    
C33   C34   A    
C28   H25   S    
C14   H31   S    
C21   C32   A    
C17   H32   S    
C6    H12   S    
C23   C30   A    
C26   H14   S    
C4    C23   S    
C18   C19   A    
C10   C24   S    
C25   C26   S    
C12   C21   A    
C35   H4    S    
C25   H16   S    
C7    H27   S    
C22   H8    S    
C13   H28   S    
C27   H18   S    
C17   C18   A    
O4    Zn2   S    
C4    O4    A    
C29   H22   S    
C8    N1    A    
C24   H9    S    
C6    H5    S    
C4    O3    A    
C3    C15   S    
C8    C14   S    
C16   O7    A    
C31   C32   A    
C3    C5    A    
C11   N2    A    
C6    C7    S    
C29   H21   S    
C16   C32   S    
C1    O1    A    
C31   H3    S    
C30   H1    S    
C24   H11   S    
C2    C3    A    
C25   H17   S    
C20   H2    S    
C11   C13   S    
C22   H7    S    
C13   H29   S    
C8    C11   A    
C14   H30   S    
C9    N1    A    
C10   N2    A    
C15   O5    A    
C20   C21   A    
O5    Zn1   S    
C2    C28   S    
O6    Zn2   S    
