data_mof_unit_66352.cif
_audit_creation_date              2012-12-10T18:31:41-0500
_audit_creation_method            fapswitch 2.2
_symmetry_space_group_name_H-M    P1
_symmetry_Int_Tables_number       1
_space_group_crystal_system       triclinic
_cell_length_a                    27.487962
_cell_length_b                    27.652809
_cell_length_c                    27.689533
_cell_angle_alpha                 109.618913
_cell_angle_beta                  109.435908
_cell_angle_gamma                 109.307114
_cell_volume                      16212.5016953

loop_
_atom_site_label
_atom_site_type_symbol
_atom_type_description
_atom_site_fract_x
_atom_site_fract_y
_atom_site_fract_z
_atom_type_partial_charge
C1    C     C_R   0.918719 0.918849 0.499957 0.898473
C2    C     C_3   0.768834 0.728398 0.449808 0.351466
C3    C     C_3   0.635593 0.331413 0.471655 -0.726271
C4    C     C_3   0.581435 0.795625 0.914499 0.145965
C5    C     C_3   0.645825 0.839652 0.962901 -0.752990
C6    C     C_3   0.716582 0.073030 0.353919 0.092404
C7    C     C_3   0.722787 0.101698 0.414685 -0.777809
C8    C     C_3   0.498870 0.770664 0.635470 -0.002557
C9    C     C_3   0.515229 0.802747 0.603357 -0.722332
C10   C     C_3   0.330471 0.682308 0.699474 0.083340
C11   C     C_3   0.286375 0.687026 0.719877 -0.771503
C12   C     C_3   0.389739 0.813657 0.728698 0.122786
C13   C     C_3   0.724560 0.679414 0.453377 -0.557718
C14   C     C_3   0.419955 0.876481 0.739928 -0.825814
C15   C     C_3   0.916315 0.856539 0.635598 0.054211
C16   C     C_3   0.975756 0.858293 0.652813 -0.670650
C17   C     C_R   0.918704 0.000045 0.418768 0.898054
C18   C     C_1   0.626137 0.625555 0.500412 -0.126809
C19   C     C_3   0.792101 0.791744 0.501208 -0.005864
C20   C     C_3   0.767563 0.746317 0.562428 0.480753
C21   C     C_3   0.709936 0.708742 0.501006 -0.038929
C22   C     C_3   0.687766 0.750205 0.487109 0.391639
C23   C     C_3   0.736746 0.800125 0.488532 -0.637589
C24   C     C_1   0.663991 0.663059 0.500790 0.097633
C25   C     C_3   0.791968 0.000564 0.291536 0.042397
C26   C     C_1   0.837089 0.837281 0.500461 0.041881
C27   C     C_1   0.874342 0.874579 0.500091 -0.180193
C28   C     C_3   0.265092 0.062030 0.749233 0.836727
C29   C     C_R   0.081162 0.081188 0.499895 0.897141
C30   C     C_3   0.225488 0.953512 0.680508 -0.598775
C31   C     C_3   0.276300 0.955725 0.728900 0.471465
C32   C     C_1   0.374408 0.999044 0.874474 -0.145255
C33   C     C_3   0.208393 0.999120 0.709275 -0.215741
C34   C     C_3   0.312306 0.061715 0.799629 0.180134
C35   C     C_3   0.290140 0.998418 0.791347 -0.240943
C36   C     C_3   0.764365 0.057559 0.266151 -0.338877
C37   C     C_3   0.232270 0.978743 0.795799 0.774678
C38   C     C_3   0.184285 0.981108 0.747798 0.957604
C39   C     C_1   0.336411 0.998509 0.836870 0.244804
C40   C     C_1   0.162645 0.998938 0.663117 0.235576
C41   C     C_R   0.081260 0.999849 0.581284 0.887945
C42   C     C_1   0.125397 0.999283 0.625615 -0.150954
C43   C     C_3   0.205878 0.266278 0.521343 -0.502808
C44   C     C_3   0.199985 0.188084 0.436683 -0.480790
C45   C     C_3   0.247733 0.236949 0.436362 -0.442619
C46   C     C_1   0.373984 0.374139 0.499431 -0.125920
C47   C     C_3   0.709542 0.001109 0.209895 0.014752
C48   C     C_3   0.209430 0.208641 0.500154 0.022481
C49   C     C_3   0.255219 0.315412 0.522786 0.437148
C50   C     C_3   0.291179 0.290901 0.499848 -0.065961
C51   C     C_3   0.320770 0.269858 0.540705 0.925697
C52   C     C_3   0.272246 0.221800 0.542448 0.832309
C53   C     C_3   0.697376 0.970594 0.245450 -0.346561
C54   C     C_1   0.336506 0.336620 0.499425 0.139819
C55   C     C_1   0.163154 0.162981 0.499749 0.090245
C56   C     C_1   0.125557 0.125559 0.499739 -0.162566
C57   C     C_R   0.500528 0.081104 0.081700 0.879585
C58   C     C_3   0.804023 0.030773 0.255866 -0.277828
C59   C     C_R   0.582143 0.000096 0.081964 0.897921
C60   C     C_R   0.500918 0.918828 0.919634 0.894548
C61   C     C_R   0.419296 0.999696 0.919217 0.881825
C62   C     C_R   0.499755 0.581019 0.580916 0.901966
C63   C     C_R   0.581336 0.581090 0.500017 0.905999
C64   C     C_R   0.500348 0.418871 0.418880 0.883301
C65   C     C_3   0.737391 0.944292 0.235275 -0.284915
C66   C     C_R   0.418672 0.418636 0.499726 0.885736
C67   C     C_3   0.433262 0.197517 0.185708 0.660365
C68   C     C_3   0.540436 0.269851 0.221555 0.259475
C69   C     C_3   0.748611 0.974966 0.199661 0.739892
C70   C     C_3   0.544152 0.318870 0.273140 1.096805
C71   C     C_1   0.500410 0.374324 0.374710 -0.146062
C72   C     C_3   0.498149 0.207400 0.208401 -0.324172
C73   C     C_3   0.434702 0.249464 0.235528 0.738456
C74   C     C_3   0.499245 0.289930 0.291417 -0.393711
C75   C     C_3   0.518675 0.251790 0.315371 0.062025
C76   C     C_3   0.519986 0.203616 0.266451 0.860717
C77   C     C_1   0.874446 0.000336 0.374495 -0.164203
C78   C     C_1   0.500171 0.336496 0.337364 0.301716
C79   C     C_1   0.499181 0.162316 0.162856 0.327966
C80   C     C_1   0.837151 0.000513 0.337046 0.039334
C81   C     C_1   0.499955 0.125291 0.125724 -0.146987
C82   C     C_3   0.515352 0.752139 0.812072 0.945395
C83   C     C_3   0.539448 0.819759 0.769273 -0.605152
C84   C     C_3   0.546392 0.772382 0.726863 1.064801
C85   C     C_1   0.499457 0.625480 0.625116 -0.148991
C86   C     C_3   0.495196 0.790071 0.787518 -0.031972
C87   C     C_3   0.512810 0.701659 0.762554 -0.444728
C88   C     C_3   0.497976 0.708681 0.706958 -0.085367
C89   C     C_1   0.626756 0.000529 0.126554 -0.165510
C90   C     C_3   0.433918 0.699778 0.684762 -0.644287
C91   C     C_1   0.664270 0.000838 0.164238 0.027778
C92   C     C_3   0.430786 0.748969 0.731015 0.875590
C93   C     C_1   0.498942 0.662974 0.662136 0.067359
C94   C     C_1   0.497448 0.836490 0.834836 0.063294
C95   C     C_1   0.499541 0.874391 0.873934 -0.192254
C96   C     C_3   0.752727 0.026589 0.301370 0.582402
C97   C     C_3   0.854066 0.716119 0.481654 0.201661
C98   C     C_3   0.871931 0.672718 0.453293 -0.809244
C99   C     C_3   0.320196 0.137324 0.735996 0.273881
C100  C     C_3   0.360363 0.149141 0.709732 -0.835929
C101  C     C_3   0.206297 0.990794 0.870213 0.258744
C102  C     C_3   0.814856 0.798182 0.564318 0.280741
C103  C     C_3   0.215333 0.038028 0.925653 -0.845468
C104  C     C_3   0.316839 0.168937 0.569939 0.227864
C105  C     C_3   0.328110 0.118529 0.544235 -0.828935
C106  C     C_3   0.352771 0.173033 0.098467 0.240001
C107  C     C_3   0.337563 0.192785 0.053121 -0.774893
C108  C     C_3   0.590986 0.180179 0.312637 0.240520
C109  C     C_3   0.657627 0.203415 0.344120 -0.812459
C110  C     C_3   0.364113 0.179419 0.247582 0.107958
C111  C     C_3   0.339494 0.183490 0.289634 -0.836052
C112  C     C_3   0.573450 0.290655 0.417977 0.123375
F1    F     F_    0.671993 0.775111 0.527645 -0.650068
F2    F     F_    0.280314 0.243493 0.599558 -0.686057
F3    F     F_    0.361194 0.317763 0.597488 -0.646470
F4    F     F_    0.352245 0.247085 0.519779 -0.660914
F5    F     F_    0.424872 0.285065 0.212519 -0.586880
F6    F     F_    0.596784 0.277807 0.234574 -0.550727
F7    F     F_    0.531712 0.356852 0.255595 -0.604869
F8    F     F_    0.601747 0.352764 0.320861 -0.535392
F9    F     F_    0.481120 0.147648 0.253712 -0.703932
F10   F     F_    0.396978 0.140601 0.172293 -0.693569
F11   F     F_    0.601350 0.779579 0.760581 -0.619206
F12   F     F_    0.366474 0.081890 0.800962 -0.650110
F13   F     F_    0.475938 0.725722 0.828693 -0.678248
F14   F     F_    0.789629 0.710957 0.575054 -0.634211
F15   F     F_    0.260880 0.899204 0.720304 -0.596832
F16   F     F_    0.168732 0.021211 0.774326 -0.621685
F17   F     F_    0.133026 0.925966 0.711885 -0.644073
F18   F     F_    0.249061 0.102749 0.774229 -0.664830
F19   F     F_    0.745348 0.948133 0.145725 -0.660948
F20   F     F_    0.211630 0.920677 0.784914 -0.602447
F21   F     F_    0.229900 0.336510 0.488533 -0.638275
H1    H     H_    0.727599 0.898207 0.222880 0.178430
H2    H     H_    0.186051 0.908156 0.653251 0.282678
H3    H     H_    0.011903 0.901997 0.692018 0.246958
H4    H     H_    0.974980 0.823045 0.663820 0.269180
H5    H     H_    0.239866 0.962796 0.649963 0.216181
H6    H     H_    0.316739 0.971800 0.724747 0.161959
H7    H     H_    0.320369 0.092742 0.843115 0.184659
H8    H     H_    0.161394 0.257463 0.491127 0.238712
H9    H     H_    0.202252 0.146721 0.419788 0.233835
H10   H     H_    0.154992 0.177872 0.406020 0.214753
H11   H     H_    0.225679 0.250731 0.406225 0.247846
H12   H     H_    0.272412 0.218853 0.418436 0.224466
H13   H     H_    0.847954 0.054414 0.260078 0.178756
H14   H     H_    0.741866 0.650802 0.463058 0.252959
H15   H     H_    0.210729 0.281696 0.566193 0.209378
H16   H     H_    0.285444 0.353069 0.569025 0.145346
H17   H     H_    0.523161 0.273704 0.181346 0.171327
H18   H     H_    0.774396 0.103653 0.278257 0.172656
H19   H     H_    0.484609 0.228669 0.324842 0.090361
H20   H     H_    0.555589 0.701430 0.778763 0.235330
H21   H     H_    0.524814 0.844582 0.749251 0.200430
H22   H     H_    0.583683 0.853930 0.809342 0.250839
H23   H     H_    0.404621 0.655258 0.675839 0.199900
H24   H     H_    0.478649 0.657800 0.750984 0.199377
H25   H     H_    0.682988 0.649364 0.409537 0.175896
H26   H     H_    0.414835 0.696540 0.641010 0.183809
H27   H     H_    0.740579 0.726434 0.408742 0.139356
H28   H     H_    0.838569 0.702592 0.509556 0.225380
H29   H     H_    0.894272 0.760781 0.509554 0.194827
H30   H     H_    0.889422 0.685386 0.425987 0.266920
H31   H     H_    0.907061 0.673061 0.488200 0.225881
H32   H     H_    0.832793 0.627292 0.424734 0.271150
H33   H     H_    0.348659 0.162667 0.785106 0.192591
H34   H     H_    0.288638 0.153391 0.722754 0.169956
H35   H     H_    0.333655 0.122343 0.660745 0.245420
H36   H     H_    0.749124 0.844290 0.522797 0.247368
H37   H     H_    0.382658 0.196799 0.723340 0.219355
H38   H     H_    0.394742 0.136924 0.725504 0.288257
H39   H     H_    0.215411 0.958091 0.880529 0.179850
H40   H     H_    0.159111 0.968325 0.834863 0.194745
H41   H     H_    0.206871 0.071679 0.916983 0.288645
H42   H     H_    0.184175 0.017502 0.939225 0.213649
H43   H     H_    0.261665 0.059979 0.962157 0.249914
H44   H     H_    0.299263 0.162198 0.599354 0.170608
H45   H     H_    0.360021 0.211213 0.596477 0.205872
H46   H     H_    0.345040 0.123802 0.514026 0.285254
H47   H     H_    0.718769 0.799105 0.445521 0.181061
H48   H     H_    0.361715 0.118801 0.580452 0.211188
H49   H     H_    0.286195 0.075444 0.519209 0.258864
H50   H     H_    0.332489 0.185003 0.126061 0.177839
H51   H     H_    0.332949 0.124111 0.074466 0.164286
H52   H     H_    0.355019 0.179259 0.023153 0.260516
H53   H     H_    0.288544 0.172096 0.026414 0.206222
H54   H     H_    0.357537 0.241683 0.075911 0.295544
H55   H     H_    0.568468 0.132805 0.278375 0.157596
H56   H     H_    0.576046 0.183895 0.345788 0.144829
H57   H     H_    0.681325 0.250718 0.378759 0.284043
H58   H     H_    0.817407 0.839298 0.594089 0.037042
H59   H     H_    0.667515 0.177562 0.365277 0.184208
H60   H     H_    0.673760 0.199159 0.311901 0.266329
H61   H     H_    0.395404 0.163051 0.259138 0.212888
H62   H     H_    0.326136 0.147135 0.201855 0.205225
H63   H     H_    0.306418 0.198386 0.278998 0.272824
H64   H     H_    0.317469 0.139422 0.285367 0.227287
H65   H     H_    0.376209 0.215557 0.335998 0.252325
H66   H     H_    0.556784 0.245816 0.413188 0.122906
H67   H     H_    0.544042 0.308166 0.425707 0.133900
H68   H     H_    0.653092 0.376722 0.477809 0.273438
H69   H     H_    0.756919 0.765036 0.597337 0.112862
H70   H     H_    0.634174 0.333375 0.511851 0.198215
H71   H     H_    0.665790 0.314521 0.465480 0.248455
H72   H     H_    0.569340 0.752472 0.913278 0.188693
H73   H     H_    0.553177 0.812987 0.925789 0.173945
H74   H     H_    0.658974 0.883316 0.965322 0.264141
H75   H     H_    0.651098 0.845071 0.006254 0.238243
H76   H     H_    0.675412 0.823477 0.953448 0.271635
H77   H     H_    0.670312 0.035262 0.322733 0.139860
H78   H     H_    0.724553 0.106545 0.339481 0.140196
H79   H     H_    0.768103 0.140618 0.446681 0.262394
H80   H     H_    0.647493 0.723791 0.442360 0.128225
H81   H     H_    0.689550 0.116528 0.412238 0.197152
H82   H     H_    0.715136 0.069361 0.430459 0.262811
H83   H     H_    0.472297 0.786155 0.651911 0.188307
H84   H     H_    0.472013 0.722553 0.602742 0.164811
H85   H     H_    0.541196 0.787909 0.584916 0.278831
H86   H     H_    0.474179 0.792976 0.566538 0.205474
H87   H     H_    0.542297 0.851284 0.634475 0.258472
H88   H     H_    0.322987 0.636595 0.684937 0.166596
H89   H     H_    0.320653 0.688979 0.660587 0.152538
H90   H     H_    0.291647 0.731930 0.734471 0.243727
H91   H     H_    0.653327 0.946433 0.240785 0.170049
H92   H     H_    0.240241 0.653982 0.682882 0.218247
H93   H     H_    0.293893 0.678299 0.757309 0.277155
H94   H     H_    0.392276 0.815844 0.770262 0.176992
H95   H     H_    0.341940 0.791833 0.695640 0.179393
H96   H     H_    0.415090 0.875493 0.698098 0.266769
H97   H     H_    0.399179 0.901007 0.757162 0.235402
H98   H     H_    0.467992 0.900004 0.772945 0.249015
H99   H     H_    0.908597 0.864540 0.673848 0.169270
H100  H     H_    0.918734 0.892442 0.625024 0.142799
H101  H     H_    0.984926 0.851437 0.615610 0.244049
O1    O     O_R   0.938480 0.973210 0.534620 -0.617480
O2    O     O_R   0.465120 0.561230 0.526490 -0.619721
O3    O     O_R   0.596160 0.561300 0.534600 -0.599756
O4    O     O_R   0.938660 0.903940 0.465380 -0.605585
O5    O     O_R   0.526700 0.561310 0.465150 -0.612595
O6    O     O_R   0.534880 0.438520 0.473260 -0.622947
O7    O     O_R   0.465420 0.438530 0.403810 -0.589970
O8    O     O_R   0.473300 0.438440 0.534600 -0.601957
O9    O     O_R   0.403840 0.438450 0.465150 -0.610313
O10   O     O_R   0.938390 0.034620 0.473090 -0.607752
O11   O     O_R   0.938570 0.965350 0.403850 -0.615047
O12   O     O_R   0.535350 0.096040 0.062000 -0.600025
O13   O     O_R   0.061340 0.096060 0.534620 -0.606595
O14   O     O_R   0.061520 0.026790 0.465380 -0.613895
O15   O     O_R   0.061430 0.034650 0.596150 -0.593526
O16   O     O_R   0.061610 0.965380 0.526910 -0.618272
O17   O     O_R   0.465990 0.026750 0.062060 -0.604305
O18   O     O_3   0.810859 0.716355 0.436687 -0.603260
O19   O     O_3   0.287982 0.075669 0.713439 -0.617429
O20   O     O_3   0.246338 0.017754 0.853654 -0.660504
O21   O     O_3   0.274438 0.168268 0.523221 -0.636572
O22   O     O_3   0.415376 0.200453 0.132631 -0.612426
O23   O     O_R   0.527600 0.965350 0.062260 -0.616740
O24   O     O_3   0.579111 0.213237 0.285573 -0.519803
O25   O     O_3   0.390547 0.235579 0.252961 -0.600904
O26   O     O_3   0.575992 0.288664 0.367233 -0.498343
O27   O     O_3   0.575480 0.789113 0.859672 -0.626435
O28   O     O_3   0.758328 0.053472 0.357629 -0.596045
O29   O     O_3   0.551625 0.782841 0.681226 -0.573206
O30   O     O_3   0.389307 0.723190 0.747694 -0.587418
O31   O     O_3   0.415018 0.781989 0.704576 -0.686658
O32   O     O_3   0.870640 0.800422 0.586295 -0.596393
O33   O     O_R   0.596960 0.034640 0.062190 -0.606858
O34   O     O_R   0.466180 0.903930 0.939410 -0.604531
O35   O     O_R   0.535540 0.973220 0.939340 -0.614153
O36   O     O_R   0.404560 0.965340 0.939210 -0.604177
O37   O     O_R   0.473920 0.034630 0.939150 -0.603834
O38   O     O_R   0.534590 0.561220 0.595940 -0.601917
Zn1   Zn    Zn3+2 0.999880 0.046250 0.546230 1.018261
Zn2   Zn    Zn3+2 0.000120 0.953750 0.453770 1.000743
Zn3   Zn    Zn3+2 0.454450 0.953720 0.000750 1.018097
Zn4   Zn    Zn3+2 0.547080 0.046250 0.000660 1.025497
Zn5   Zn    Zn3+2 0.546380 0.499870 0.546250 1.029027
Zn6   Zn    Zn3+2 0.453620 0.499880 0.453500 1.024749

loop_
_geom_bond_atom_site_label_1
_geom_bond_atom_site_label_2
_ccdc_geom_bond_type
C9    H85   S    
C48   C55   S    
C55   C56   T    
O38   Zn5   S    
C30   H5    S    
C15   H99   S    
C25   C80   S    
C3    H70   S    
C73   C74   S    
C61   O36   A    
C108  O24   S    
C16   H4    S    
C31   F15   S    
C87   C88   S    
C15   O32   S    
C49   C50   S    
C98   H30   S    
C57   O12   A    
C4    H72   S    
C83   H21   S    
C67   O22   S    
C84   F11   S    
O14   Zn2   S    
C107  H53   S    
C26   C27   T    
C50   C54   S    
C104  O21   S    
C101  H39   S    
O2    Zn6   S    
C76   F9    S    
C35   C37   S    
C52   O21   S    
O17   Zn3   S    
C32   C61   S    
C46   C66   S    
C72   C79   S    
C36   C58   S    
C11   H93   S    
C111  H65   S    
C63   O5    A    
C30   C31   S    
C19   C102  S    
C65   C69   S    
C18   C63   S    
C12   H95   S    
C83   H22   S    
C66   O9    A    
C109  H59   S    
C82   C87   S    
O5    Zn6   S    
C107  H54   S    
C64   O6    A    
C97   H29   S    
C108  C109  S    
O34   Zn3   S    
C36   C47   S    
C34   C35   S    
C41   C42   S    
C32   C39   T    
C34   H7    S    
C90   H26   S    
C19   C26   S    
C2    C13   S    
C110  C111  S    
C47   C69   S    
C14   H96   S    
C43   H15   S    
C86   C94   S    
C10   H88   S    
C68   F6    S    
C12   O31   S    
C85   C93   T    
C22   F1    S    
C59   C89   S    
C83   C84   S    
C17   O10   A    
C70   F8    S    
C8    C9    S    
C41   O16   A    
C70   C74   S    
C45   H11   S    
C34   F12   S    
C87   H20   S    
C84   O29   S    
C109  H60   S    
C8    H84   S    
C16   H101  S    
C105  H49   S    
O13   Zn1   S    
C53   C65   S    
C43   C48   S    
C75   H19   S    
C112  H66   S    
C28   F18   S    
C65   H1    S    
C30   C33   S    
C68   C72   S    
C111  H63   S    
C47   C53   S    
C99   H33   S    
C9    H86   S    
C40   C42   T    
C28   C34   S    
C101  C103  S    
C21   C22   S    
C100  H38   S    
C3    H71   S    
C29   O13   A    
C15   H100  S    
C105  H46   S    
O7    Zn6   S    
O9    Zn6   S    
C17   C77   S    
C104  C105  S    
C44   H9    S    
C97   C98   S    
C97   O18   S    
C99   H34   S    
C2    H27   S    
C7    H79   S    
O37   Zn4   S    
C62   C85   S    
C104  H45   S    
O33   Zn4   S    
O23   Zn3   S    
C33   C40   S    
C62   O2    A    
C101  H40   S    
C64   C71   S    
C51   C52   S    
C7    H81   S    
C38   F17   S    
C106  O22   S    
C110  H61   S    
C67   C72   S    
C13   C21   S    
C73   F5    S    
C28   O19   S    
C18   C24   T    
C6    H77   S    
C74   C75   S    
C11   H90   S    
C79   C81   T    
C58   C69   S    
C19   C23   S    
C4    O27   S    
C12   H94   S    
C6    H78   S    
C66   O8    A    
C37   F20   S    
C82   C86   S    
C76   O24   S    
C103  H41   S    
C51   F3    S    
C87   H24   S    
C74   C78   S    
O11   Zn2   S    
C53   H91   S    
C35   C39   S    
C75   C76   S    
C82   F13   S    
C20   F14   S    
C37   C38   S    
C2    O18   S    
C5    H74   S    
C36   C96   S    
C90   C92   S    
C104  H44   S    
C23   H36   S    
C17   O11   A    
C3    C112  S    
C69   F19   S    
C46   C54   T    
C82   O27   S    
C103  H42   S    
C50   C51   S    
C23   H47   S    
C21   C24   S    
C25   C65   S    
C72   C76   S    
C6    O28   S    
C20   C21   S    
C8    O29   S    
C106  H51   S    
C14   H98   S    
C92   O30   S    
C49   H16   S    
C67   C73   S    
C92   O31   S    
C9    H87   S    
C11   H92   S    
C88   C90   S    
C28   C33   S    
C37   O20   S    
C60   O35   A    
C97   H28   S    
C102  O32   S    
O10   Zn1   S    
C3    H68   S    
C29   O14   A    
C45   H12   S    
C108  H56   S    
C43   H8    S    
C70   F7    S    
C57   O17   A    
C25   C58   S    
C13   H14   S    
C90   H23   S    
C16   H3    S    
C67   F10   S    
C13   H25   S    
C44   C45   S    
C77   C80   T    
C49   F21   S    
C88   C93   S    
C96   O28   S    
O35   Zn4   S    
C2    C19   S    
C22   C23   S    
C47   C91   S    
O36   Zn3   S    
C108  H55   S    
C43   C49   S    
C84   C88   S    
C12   C14   S    
C4    C5    S    
C8    H83   S    
C63   O3    A    
C38   F16   S    
C73   O25   S    
C36   H18   S    
C4    H73   S    
C6    C7    S    
C64   O7    A    
C29   C56   S    
C52   F2    S    
C1    O4    A    
C112  H67   S    
C5    H76   S    
C107  H52   S    
C51   F4    S    
O8    Zn5   S    
C99   C100  S    
C59   O33   A    
C58   H13   S    
C100  H35   S    
C98   H31   S    
O12   Zn4   S    
C101  O20   S    
C60   O34   A    
C20   H69   S    
C110  O25   S    
C99   O19   S    
C86   C92   S    
C111  H64   S    
C5    H75   S    
C100  H37   S    
C45   C50   S    
C1    O1    A    
C44   H10   S    
O1    Zn1   S    
C31   C35   S    
C89   C91   T    
C103  H43   S    
C10   O30   S    
O3    Zn5   S    
O15   Zn1   S    
O16   Zn2   S    
C94   C95   T    
C57   C81   S    
C7    H82   S    
C106  H50   S    
C14   H97   S    
C98   H32   S    
C68   H17   S    
C10   C11   S    
C10   H89   S    
C60   C95   S    
C44   C48   S    
C48   C52   S    
C83   C86   S    
C20   C102  S    
C75   O26   S    
C25   C96   S    
C68   C70   S    
C30   H2    S    
C106  C107  S    
C22   H80   S    
C41   O15   A    
C110  H62   S    
C1    C27   S    
O6    Zn5   S    
C59   O23   A    
C33   C38   S    
C109  H57   S    
C105  H48   S    
C102  H58   S    
O4    Zn2   S    
C31   H6    S    
C61   O37   A    
C71   C78   T    
C112  O26   S    
C15   C16   S    
C62   O38   A    
C53   C96   S    
