data_mof_unit_55154.cif
_audit_creation_date              2013-03-05T15:55:19-0500
_audit_creation_method            fapswitch 2.2
_symmetry_space_group_name_H-M    P1
_symmetry_Int_Tables_number       1
_space_group_crystal_system       triclinic
_cell_length_a                    14.736417
_cell_length_b                    14.748434
_cell_length_c                    33.327293
_cell_angle_alpha                 96.072203
_cell_angle_beta                  96.17528
_cell_angle_gamma                 61.222313
_cell_volume                      6299.76303439

loop_
_atom_site_label
_atom_site_type_symbol
_atom_site_description
_atom_site_fract_x
_atom_site_fract_y
_atom_site_fract_z
_atom_type_partial_charge
O1    O     O_R   0.679450 0.499830 0.463150 -0.498337
O2    O     O_R   0.480650 0.664000 0.464630 -0.544864
C1    C     C_R   0.391491 0.699100 0.445882 0.852723
O3    O     O_R   0.323930 0.675950 0.455370 -0.496924
O4    O     O_R   0.354700 0.475360 0.451930 -0.513396
C2    C     C_R   0.405289 0.385729 0.434050 0.903409
O5    O     O_R   0.494470 0.320860 0.448390 -0.496892
O6    O     O_R   0.662580 0.357570 0.460050 -0.542008
C3    C     C_R   0.700353 0.410236 0.447327 0.861067
O7    O     O_R   0.680900 0.502040 0.551870 -0.471707
O8    O     O_R   0.481990 0.666040 0.546870 -0.491651
C4    C     C_R   0.393418 0.701500 0.561264 0.828767
O9    O     O_R   0.325370 0.678160 0.544080 -0.546662
O10   O     O_R   0.356040 0.477400 0.534170 -0.535092
C5    C     C_R   0.407071 0.388727 0.548834 0.780625
O11   O     O_R   0.495910 0.323070 0.537100 -0.543278
O12   O     O_R   0.663920 0.359620 0.542290 -0.551786
C6    C     C_R   0.701552 0.413479 0.562687 0.863439
Cr1   Cr    Cr6+3 0.576280 0.580550 0.506370 1.098708
Cr2   Cr    Cr6+3 0.346780 0.572400 0.496520 1.065860
Cr3   Cr    Cr6+3 0.576960 0.347070 0.497150 1.012583
O13   O     O_3   0.500010 0.500010 0.500010 -0.380842
H1    H     H_    0.422151 0.143768 0.114367 0.168796
H2    H     H_    0.431843 0.179859 0.186937 0.184991
C7    C     C_R   0.369107 0.363823 0.392536 -0.364790
C8    C     C_R   0.270890 0.433456 0.374661 0.309745
C9    C     C_R   0.252197 0.427054 0.332575 -0.213617
C10   C     C_R   0.326984 0.349952 0.308396 -0.175574
C11   C     C_R   0.419977 0.273537 0.326147 0.310710
C12   C     C_R   0.440494 0.280967 0.368055 0.535436
C13   C     C_R   0.374821 0.240365 0.168215 -0.087865
C14   C     C_R   0.369699 0.220550 0.126595 -0.212111
C15   C     C_R   0.226433 0.395248 0.119052 0.377229
C16   C     C_R   0.231457 0.413307 0.161331 -0.160396
C17   C     C_R   0.303678 0.335139 0.185705 0.021359
C18   C     C_1   0.304430 0.348888 0.228884 0.050649
C19   C     C_1   0.310937 0.352626 0.265197 0.143537
C20   C     C_R   0.292918 0.295344 0.101584 -0.167719
H3    H     H_    0.178943 0.487960 0.175224 0.187429
H4    H     H_    0.179165 0.482943 0.318556 0.216578
N1    N     N_R   0.805983 0.404079 0.225108 -0.247934
N2    N     N_R   0.801369 0.410274 0.264956 -0.134308
C21   C     C_R   0.753187 0.374830 0.409206 -0.303502
C22   C     C_R   0.791177 0.433462 0.393002 0.592173
C23   C     C_R   0.816554 0.414808 0.352777 0.639260
C24   C     C_R   0.804836 0.336976 0.328177 -0.239506
C25   C     C_R   0.776751 0.272173 0.345496 -0.160895
C26   C     C_R   0.751102 0.290930 0.385626 -0.187066
N3    N     N_R   0.829127 0.239946 0.261907 -0.261090
N4    N     N_R   0.834102 0.233606 0.221998 -0.263808
C27   C     C_R   0.822492 0.315678 0.202815 0.527004
C28   C     C_R   0.813904 0.328085 0.284205 0.603645
C29   C     C_R   0.821819 0.393101 0.139797 -0.186409
C30   C     C_R   0.855065 0.381487 0.101119 0.663543
C31   C     C_R   0.911194 0.197225 0.099270 -0.234507
C32   C     C_R   0.877863 0.209139 0.137972 -0.110036
C33   C     C_R   0.837542 0.306350 0.159306 -0.073744
C34   C     C_R   0.904894 0.282289 0.081314 -0.185332
H5    H     H_    0.723041 0.243786 0.397262 0.237146
H6    H     H_    0.768419 0.210816 0.327413 0.233256
H7    H     H_    0.788439 0.469503 0.155181 0.189338
H8    H     H_    0.948343 0.120037 0.084640 0.180429
H9    H     H_    0.889684 0.141019 0.152026 0.179180
N5    N     N_R   0.293848 0.772151 0.215625 -0.173743
N6    N     N_R   0.298784 0.762373 0.255119 -0.261002
C35   C     C_R   0.378258 0.744538 0.406865 -0.224831
C36   C     C_R   0.281619 0.791035 0.384394 0.398105
C37   C     C_R   0.279987 0.802405 0.343038 -0.228178
C38   C     C_R   0.372081 0.770781 0.324081 -0.162145
C39   C     C_R   0.467748 0.730610 0.347104 0.390363
C40   C     C_R   0.469231 0.720630 0.388283 -0.254370
N7    N     N_R   0.428190 0.812415 0.265162 -0.178328
N8    N     N_R   0.423253 0.822030 0.225688 -0.253029
C41   C     C_R   0.356288 0.801722 0.200057 0.542817
C42   C     C_R   0.366198 0.782219 0.280555 0.577754
C43   C     C_R   0.268215 0.811834 0.130473 0.671723
C44   C     C_R   0.245474 0.850184 0.092170 -0.204061
C45   C     C_R   0.381872 0.898715 0.104177 -0.144685
C46   C     C_R   0.404633 0.860834 0.142507 -0.186335
C47   C     C_R   0.344867 0.821642 0.156855 -0.119906
C48   C     C_R   0.298869 0.898146 0.079492 -0.136338
H10   H     H_    0.544194 0.684120 0.404849 0.217762
H11   H     H_    0.182322 0.847076 0.073280 0.186569
H12   H     H_    0.206257 0.837039 0.325527 0.204232
H13   H     H_    0.425073 0.934369 0.095005 0.161184
H14   H     H_    0.465498 0.867692 0.161655 0.191803
N9    N     N_R   0.249970 0.423542 0.765506 -0.207712
N10   N     N_R   0.254698 0.427037 0.726128 -0.262089
C49   C     C_R   0.368978 0.368092 0.583954 -0.059525
C50   C     C_R   0.283177 0.448352 0.602928 -0.132894
C51   C     C_R   0.260411 0.436804 0.640907 -0.110560
C52   C     C_R   0.322574 0.344590 0.660370 0.004583
C53   C     C_R   0.402608 0.261107 0.639841 -0.094987
C54   C     C_R   0.425877 0.272897 0.601950 -0.117289
N11   N     N_R   0.362038 0.247702 0.721054 -0.265475
N12   N     N_R   0.357017 0.244127 0.760394 -0.196558
C55   C     C_R   0.301081 0.331974 0.783321 0.637534
C56   C     C_R   0.310593 0.339174 0.703126 0.506729
C57   C     C_R   0.200404 0.385942 0.845607 0.321892
C58   C     C_R   0.197032 0.373266 0.886292 -0.203518
C59   C     C_R   0.378845 0.245439 0.889412 -0.167677
C60   C     C_R   0.384446 0.259635 0.849312 0.630695
C61   C     C_R   0.294916 0.326991 0.826637 -0.259164
C62   C     C_R   0.284270 0.299105 0.907710 -0.209112
H15   H     H_    0.237357 0.522406 0.589629 0.156308
H16   H     H_    0.491889 0.209409 0.587819 0.170263
H17   H     H_    0.122977 0.414311 0.899863 0.196996
H18   H     H_    0.197097 0.501831 0.655767 0.163279
H19   H     H_    0.451260 0.188707 0.653971 0.172834
H20   H     H_    0.447353 0.188429 0.905446 0.203114
H21   H     H_    0.886229 0.149690 0.803102 0.216324
H22   H     H_    0.743203 0.238087 0.596706 0.213417
C63   C     C_R   0.756197 0.378802 0.602599 -0.253766
C64   C     C_R   0.786979 0.441639 0.628935 0.682492
C65   C     C_R   0.818113 0.418084 0.669206 -0.236026
C66   C     C_R   0.819861 0.331722 0.683834 -0.129033
C67   C     C_R   0.796647 0.263494 0.657232 0.409822
C68   C     C_R   0.764884 0.288173 0.616799 -0.309878
C69   C     C_R   0.883882 0.214546 0.822454 -0.252952
C70   C     C_R   0.909524 0.203169 0.863895 0.659695
C71   C     C_R   0.881946 0.380007 0.872373 -0.297968
C72   C     C_R   0.856524 0.390888 0.830999 0.717994
C73   C     C_R   0.860368 0.307149 0.805840 -0.151878
C74   C     C_1   0.846167 0.314263 0.762799 0.163664
C75   C     C_1   0.835207 0.321136 0.726766 0.139390
C76   C     C_R   0.912384 0.284995 0.889167 -0.288001
H23   H     H_    0.883130 0.444473 0.890844 0.215452
H24   H     H_    0.836561 0.470200 0.689538 0.205438
H25   H     H_    0.454193 0.896576 0.819147 0.192612
H26   H     H_    0.510280 0.791547 0.686419 0.175179
C77   C     C_R   0.375437 0.756025 0.601865 -0.193872
C78   C     C_R   0.280343 0.788269 0.618853 -0.221543
C79   C     C_R   0.269415 0.818173 0.659903 -0.109005
C80   C     C_R   0.352970 0.816916 0.684449 0.007710
C81   C     C_R   0.445490 0.792004 0.667500 -0.181188
C82   C     C_R   0.456983 0.762058 0.626377 0.643752
C83   C     C_R   0.392487 0.890096 0.831401 -0.170274
C84   C     C_R   0.374427 0.916630 0.872304 0.573649
C85   C     C_R   0.230887 0.877166 0.863010 0.623087
C86   C     C_R   0.249799 0.850761 0.822152 -0.191988
C87   C     C_R   0.328401 0.860212 0.806142 -0.090831
C88   C     C_1   0.339220 0.845024 0.763391 0.075684
C89   C     C_1   0.346077 0.833276 0.727402 0.023626
C90   C     C_R   0.290541 0.914394 0.888389 -0.344863
H27   H     H_    0.216002 0.785063 0.600943 0.187585
H28   H     H_    0.200618 0.826432 0.802693 0.187175
H29   H     H_    0.197267 0.837902 0.672820 0.163120
O14   O     O_R   0.170070 0.978950 0.027680 -0.544663
O15   O     O_R   0.001760 0.175230 0.026640 -0.548943
C91   C     C_R   0.962975 0.264425 0.045420 0.826260
O16   O     O_R   0.984760 0.333570 0.037150 -0.487804
O17   O     O_R   0.183410 0.309240 0.041890 -0.502388
C92   C     C_R   0.273252 0.260291 0.059822 0.828840
O18   O     O_R   0.340240 0.172500 0.045430 -0.553819
O19   O     O_R   0.309670 0.000990 0.032050 -0.541532
C93   C     C_R   0.259412 0.959139 0.043546 0.797653
O20   O     O_R   0.168330 0.982130 0.939200 -0.481778
O21   O     O_R   0.000140 0.178170 0.944610 -0.492653
C94   C     C_R   0.963088 0.267433 0.930541 0.857193
O22   O     O_R   0.983010 0.336750 0.948660 -0.548653
O23   O     O_R   0.181800 0.312190 0.959860 -0.535860
C95   C     C_R   0.270282 0.263625 0.945047 0.850597
O24   O     O_R   0.338500 0.175680 0.956950 -0.521658
O25   O     O_R   0.308050 0.003930 0.950020 -0.503408
C96   C     C_R   0.256189 0.965067 0.928838 0.896061
Cr4   Cr    Cr6+3 0.087320 0.083240 0.984860 1.055036
Cr5   Cr    Cr6+3 0.087720 0.316210 0.996740 1.068941
Cr6   Cr    Cr6+3 0.317350 0.090340 0.995890 1.018322
O26   O     O_3   0.164130 0.163270 0.992500 -0.375370
F1    F     F_    0.843317 0.466557 0.084156 -0.619564
F2    F     F_    0.849446 0.475214 0.337697 -0.550516
N13   N     N_R   0.185329 0.827567 0.402952 0.144914
O27   O     O_R   0.173477 0.872123 0.439268 -0.340801
O28   O     O_R   0.104853 0.829739 0.381768 -0.298876
N14   N     N_R   0.564845 0.690461 0.328772 0.134746
O29   O     O_R   0.640502 0.702529 0.347847 -0.270038
O30   O     O_R   0.584128 0.626321 0.296953 -0.343373
F3    F     F_    0.211045 0.770707 0.142174 -0.621717
N15   N     N_R   0.495532 0.190234 0.301795 0.148286
O31   O     O_R   0.594209 0.157925 0.310206 -0.305233
O32   O     O_R   0.466388 0.142219 0.272539 -0.357776
N16   N     N_R   0.105220 0.450741 0.823370 0.141976
O33   O     O_R   0.037583 0.537687 0.840295 -0.303132
O34   O     O_R   0.077391 0.414424 0.789784 -0.342317
F4    F     F_    0.476981 0.204777 0.832257 -0.619501
F5    F     F_    0.937269 0.110250 0.878542 -0.595635
N17   N     N_R   0.800855 0.171886 0.670883 0.114149
O35   O     O_R   0.745936 0.131639 0.651474 -0.350976
O36   O     O_R   0.865856 0.122956 0.700486 -0.360412
F6    F     F_    0.781744 0.528942 0.616594 -0.590628
F7    F     F_    0.832969 0.481507 0.815268 -0.604629
F8    F     F_    0.531931 0.207957 0.384572 -0.590999
F9    F     F_    0.435684 0.949981 0.895303 -0.626171
F10   F     F_    0.549884 0.733074 0.611446 -0.605787
F11   F     F_    0.151114 0.870755 0.877011 -0.581911
N18   N     N_R   0.189490 0.510312 0.398586 0.162883
O37   O     O_R   0.168341 0.485006 0.431269 -0.326485
O38   O     O_R   0.125860 0.600090 0.384519 -0.289948
N19   N     N_R   0.154572 0.478460 0.094604 0.131334
O39   O     O_R   0.067021 0.548854 0.108487 -0.312014
O40   O     O_R   0.182884 0.492936 0.061214 -0.346018
F12   F     F_    0.798851 0.512369 0.415282 -0.565996

loop_
_geom_bond_atom_site_label_1
_geom_bond_atom_site_label_2
_geom_bond_distance
_ccdc_geom_bond_type
O6    C3    1.276591 A    
C57   C61   1.415157 A    
C31   C32   1.393246 A    
C53   C54   1.392641 A    
C64   F6    1.357413 S    
C4    C77   1.479722 S    
O14   Cr4   2.042903 S    
N1    N2    1.328284 A    
C30   F1    1.357789 S    
N11   N12   1.329096 A    
O15   C91   1.275833 A    
N9    N10   1.329397 A    
C8    N18   1.436971 S    
O23   C95   1.273340 A    
N11   C56   1.356490 A    
C52   C56   1.469628 S    
C73   C74   1.434740 S    
N14   O30   1.301498 A    
O4    Cr2   1.922717 S    
C76   C94   1.481312 S    
C32   C33   1.403243 A    
C4    O9    1.272459 A    
O8    Cr1   1.923252 S    
C8    C9    1.402160 A    
O11   Cr3   2.042893 S    
C48   C93   1.468685 S    
C78   H27   1.083020 S    
C10   C11   1.406303 A    
N13   O27   1.301481 A    
C63   C64   1.407848 A    
C43   F3    1.357393 S    
C94   O22   1.271282 A    
C62   C95   1.470197 S    
O4    C2    1.279998 A    
C70   C76   1.412042 A    
N18   O37   1.301494 A    
C2    C7    1.488448 S    
C15   N19   1.437372 S    
C65   C66   1.399184 A    
C31   H8    1.083207 S    
C24   C28   1.472160 S    
C58   C62   1.404429 A    
C66   C67   1.411756 A    
H21   C69   1.083754 S    
C16   C17   1.397282 A    
N8    C41   1.357310 A    
O22   Cr5   2.039869 S    
C49   C54   1.403726 A    
N16   O33   1.301272 A    
C57   N16   1.437213 S    
C25   H6    1.082965 S    
C29   H7    1.083005 S    
C88   C89   1.201699 T    
C57   C58   1.397517 A    
C85   F11   1.357562 S    
C78   C79   1.394061 A    
C38   C42   1.466559 S    
C39   C40   1.392415 A    
C27   C33   1.472547 S    
C12   F8    1.359033 S    
C21   C26   1.405467 A    
O19   Cr6   1.926282 S    
O9    Cr2   2.038520 S    
C40   H10   1.083528 S    
C81   C82   1.397119 A    
C35   C36   1.413550 A    
C80   C89   1.432580 S    
N19   O39   1.301413 A    
C41   C47   1.475604 S    
Cr3   O13   1.974301 S    
C22   F12   1.358039 S    
O18   Cr6   2.039232 S    
C38   C39   1.409429 A    
N7    C42   1.355348 A    
C23   F2    1.357982 S    
C6    C63   1.481978 S    
N13   O28   1.301536 A    
C15   C16   1.406762 A    
C2    O5    1.273526 A    
C72   C73   1.398316 A    
O1    Cr1   2.041862 S    
C60   F4    1.358065 S    
C3    C21   1.474440 S    
C36   C37   1.402224 A    
C37   H12   1.083663 S    
C59   C60   1.391480 A    
O10   Cr2   1.925402 S    
C72   F7    1.357912 S    
Cr1   O13   1.974858 S    
O1    C3    1.270678 A    
C86   C87   1.396408 A    
Cr5   O26   1.974101 S    
C77   C82   1.412703 A    
C67   N17   1.442058 S    
C64   C65   1.394682 A    
C86   H28   1.083800 S    
C51   C52   1.403128 A    
C29   C33   1.404114 A    
C45   C46   1.390992 A    
C37   C38   1.404002 A    
N4    C27   1.357921 A    
C7    C8    1.420281 A    
C29   C30   1.392590 A    
O12   Cr3   1.922070 S    
C65   H24   1.084091 S    
C16   H3    1.083688 S    
C70   F5    1.357420 S    
C17   C18   1.431455 S    
C21   C22   1.408111 A    
C35   C40   1.407978 A    
C82   F10   1.357441 S    
C11   C12   1.400992 A    
O25   C96   1.277116 A    
C5    C49   1.469322 S    
C85   C90   1.412848 A    
C25   C26   1.392093 A    
C44   C48   1.403097 A    
O7    Cr1   2.041269 S    
O8    C4    1.277364 A    
N3    C28   1.357591 A    
N12   C55   1.356350 A    
O12   C6    1.276483 A    
C1    O3    1.275020 A    
C32   H9    1.082845 S    
O23   Cr5   1.925716 S    
C43   C44   1.392826 A    
C69   C70   1.397884 A    
C71   C72   1.394718 A    
C55   C61   1.467902 S    
N15   O31   1.301371 A    
C79   H29   1.083744 S    
C45   H13   1.083243 S    
N18   O38   1.301381 A    
Cr6   O26   1.974930 S    
H26   C81   1.083703 S    
Cr2   O13   1.975047 S    
C59   C62   1.399784 A    
C14   C20   1.407753 A    
C66   C75   1.437509 S    
C11   N15   1.440201 S    
O21   C94   1.278491 A    
C13   C17   1.393137 A    
C46   C47   1.406304 A    
C1    C35   1.477126 S    
O20   C96   1.273977 A    
C77   C78   1.408044 A    
C49   C50   1.404407 A    
O19   C93   1.275725 A    
O17   Cr5   1.923511 S    
C22   C23   1.394095 A    
O21   Cr4   1.924801 S    
C26   H5    1.083141 S    
C95   O24   1.271986 A    
C30   C34   1.407448 A    
C84   F9    1.357658 S    
C7    C12   1.414781 A    
C83   C87   1.394993 A    
C24   C25   1.402443 A    
C54   H16   1.083115 S    
C58   H17   1.083566 S    
N5    C41   1.357577 A    
C9    H4    1.084055 S    
O2    Cr1   1.925185 S    
C91   O16   1.269922 A    
C51   H18   1.083009 S    
C13   C14   1.388529 A    
O15   Cr4   1.923605 S    
C43   C47   1.409504 A    
C50   H15   1.083149 S    
N7    N8    1.328550 A    
O6    Cr3   1.925881 S    
O20   Cr4   2.039907 S    
C85   C86   1.395884 A    
C71   H23   1.083074 S    
C80   C81   1.397293 A    
C69   C73   1.398218 A    
C36   N13   1.438224 S    
C83   C84   1.395401 A    
C15   C20   1.421667 A    
N6    C42   1.355547 A    
C90   C96   1.483735 S    
C39   N14   1.437718 S    
N5    N6    1.329673 A    
O2    C1    1.273431 A    
C59   H20   1.083258 S    
H2    C13   1.083857 S    
C71   C76   1.408835 A    
N14   O29   1.301338 A    
O5    Cr3   2.040203 S    
C87   C88   1.432688 S    
H1    C14   1.083181 S    
H22   C68   1.082907 S    
C45   C48   1.401766 A    
C50   C51   1.391279 A    
C79   C80   1.396507 A    
C10   C19   1.435276 S    
O7    C6    1.273522 A    
O16   Cr5   2.043042 S    
C52   C53   1.404386 A    
O24   Cr6   2.043469 S    
C34   C91   1.472923 S    
C60   C61   1.407474 A    
N16   O34   1.301474 A    
N17   O36   1.301330 A    
C63   C68   1.408190 A    
O3    Cr2   2.043318 S    
C23   C24   1.407459 A    
N17   O35   1.301677 A    
H25   C83   1.083805 S    
O17   C92   1.277486 A    
Cr4   O26   1.974827 S    
C18   C19   1.201208 T    
N3    N4    1.330880 A    
O25   Cr6   1.921149 S    
C31   C34   1.405469 A    
N2    C28   1.355890 A    
C9    C10   1.395557 A    
N19   O40   1.301463 A    
C44   H11   1.083257 S    
O10   C5    1.274327 A    
C84   C90   1.414977 A    
O14   C93   1.269210 A    
C20   C92   1.481091 S    
N9    C55   1.355613 A    
C92   O18   1.273122 A    
C67   C68   1.404074 A    
N1    C27   1.356308 A    
C46   H14   1.082817 S    
N10   C56   1.357691 A    
C5    O11   1.270425 A    
C53   H19   1.082871 S    
C74   C75   1.202812 T    
N15   O32   1.301262 A    
