data_mof_unit_24168.cif
_audit_creation_date              2012-12-10T17:57:48-0500
_audit_creation_method            fapswitch 2.2
_symmetry_space_group_name_H-M    P1
_symmetry_Int_Tables_number       1
_space_group_crystal_system       triclinic
_cell_length_a                    10.904024
_cell_length_b                    9.523326
_cell_length_c                    15.058264
_cell_angle_alpha                 89.618156
_cell_angle_beta                  89.974649
_cell_angle_gamma                 89.150297
_cell_volume                      1563.48214929

loop_
_atom_site_label
_atom_site_type_symbol
_atom_type_description
_atom_site_fract_x
_atom_site_fract_y
_atom_site_fract_z
_atom_type_partial_charge
C1    C     C_R   0.262177 0.501156 0.501750 0.983587
C2    C     C_R   0.738013 0.498731 0.498458 0.942493
C3    C     C_R   0.276425 0.535374 0.046315 0.206451
C4    C     C_R   0.721503 0.483106 0.953640 0.220798
C5    C     C_R   0.066498 0.388672 0.540477 0.366976
C6    C     C_R   0.934431 0.614283 0.462788 0.337378
C7    C     C_R   0.939352 0.378558 0.528955 0.397629
C8    C     C_R   0.062167 0.618074 0.467044 0.385380
C9    C     C_R   0.872240 0.495961 0.495542 -0.340953
C10   C     C_R   0.128246 0.503244 0.503178 -0.342443
C11   C     C_R   0.432218 0.076127 0.439443 -0.043293
C12   C     C_R   0.568190 0.923855 0.560326 0.006051
C13   C     C_R   0.568094 0.072623 0.560364 -0.018990
C14   C     C_R   0.432566 0.927359 0.439268 -0.024157
C15   C     C_R   0.500369 0.500202 0.328961 0.885811
C16   C     C_R   0.499996 0.499646 0.670955 0.908971
C17   C     C_R   0.603679 0.459647 0.813924 0.212042
C18   C     C_R   0.391194 0.539151 0.187226 0.216697
C19   C     C_R   0.497647 0.499996 0.767418 -0.199580
C20   C     C_R   0.498924 0.500372 0.232450 -0.184540
C21   C     C_R   0.390548 0.544295 0.811560 0.229827
C22   C     C_R   0.605586 0.463278 0.185845 0.185912
C23   C     C_R   0.387369 0.540329 0.905677 -0.062796
C24   C     C_R   0.608962 0.484153 0.093235 -0.071042
C25   C     C_R   0.498136 0.510220 0.952653 -0.099584
C26   C     C_R   0.498028 0.507889 0.046588 -0.093216
C27   C     C_R   0.609305 0.482176 0.906163 -0.063173
C28   C     C_R   0.386976 0.526814 0.093980 -0.047216
C29   C     C_R   0.277530 0.560804 0.954765 0.446828
C30   C     C_R   0.720629 0.489441 0.046455 0.470312
Cu1   Cu    Cu3+1 0.500000 0.640660 0.500000 1.010913
Cu2   Cu    Cu3+1 0.500000 0.359340 0.500000 1.006775
H1    H     H_    0.377458 0.133481 0.391117 0.143328
H2    H     H_    0.623137 0.866481 0.608534 0.143492
H3    H     H_    0.622938 0.127177 0.608569 0.184057
H4    H     H_    0.378488 0.872739 0.390617 0.181343
N1    N     N_R   0.500000 0.852070 0.500000 -0.169890
N2    N     N_R   0.500000 0.147930 0.500000 -0.174339
O1    O     O_R   0.319640 0.618740 0.499990 -0.545919
O2    O     O_R   0.680360 0.381260 0.500010 -0.556056
O3    O     O_R   0.680360 0.618740 0.500010 -0.553755
O4    O     O_R   0.319640 0.381260 0.499990 -0.590273
O5    O     O_R   0.499970 0.618800 0.370260 -0.575761
O6    O     O_R   0.500030 0.381200 0.629740 -0.558552
O7    O     O_R   0.500030 0.618800 0.629740 -0.588817
O8    O     O_R   0.499970 0.381200 0.370260 -0.571043
Br1   Br    Br    0.727211 0.350628 0.750799 -0.392259
Br2   Br    Br    0.260380 0.629603 0.253588 -0.476244
Br3   Br    Br    0.250179 0.596304 0.738023 -0.432404
Br4   Br    Br    0.740864 0.373446 0.248838 -0.501362
O9    O     O_3   0.167459 0.592122 0.913472 -0.479408
C31   C     C_3   0.137705 0.734714 0.929439 -0.123070
H5    H     H_    0.055298 0.763899 0.889908 0.214755
H6    H     H_    0.115130 0.752617 0.000544 0.155412
H7    H     H_    0.212914 0.805268 0.907968 0.136521
O10   O     O_3   0.829501 0.513684 0.090443 -0.475960
C32   C     C_3   0.836991 0.659247 0.107137 -0.186690
H8    H     H_    0.762011 0.696120 0.151755 0.119399
H9    H     H_    0.835778 0.721607 0.044359 0.155732
H10   H     H_    0.925081 0.680004 0.140893 0.212221
Br5   Br    Br    0.124015 0.470465 0.095525 -0.327648
Br6   Br    Br    0.878930 0.509006 0.897622 -0.306451
O11   O     O_3   0.126309 0.306589 0.604025 -0.494377
C33   C     C_3   0.152897 0.171441 0.571301 -0.166204
H11   H     H_    0.238584 0.132229 0.603211 0.182230
H12   H     H_    0.168677 0.169495 0.498196 0.102499
H13   H     H_    0.079097 0.098719 0.590942 0.175801
O12   O     O_3   0.870909 0.731834 0.432028 -0.565700
C34   C     C_3   0.857887 0.722587 0.339272 -0.199821
H14   H     H_    0.821989 0.824736 0.313822 0.172388
H15   H     H_    0.789965 0.641665 0.322299 0.176324
H16   H     H_    0.946844 0.701059 0.305272 0.208155
O13   O     O_3   0.880516 0.259757 0.559262 -0.514587
C35   C     C_3   0.872924 0.163049 0.488438 -0.245567
H17   H     H_    0.808546 0.200130 0.435978 0.210621
H18   H     H_    0.838237 0.062185 0.514904 0.185914
H19   H     H_    0.963117 0.141078 0.456798 0.122766
O14   O     O_3   0.122506 0.731503 0.430805 -0.518778
C36   C     C_3   0.120672 0.841988 0.492575 -0.219559
H20   H     H_    0.173101 0.929742 0.463822 0.144186
H21   H     H_    0.165233 0.810707 0.556337 0.178024
H22   H     H_    0.026077 0.881648 0.505278 0.175476

loop_
_geom_bond_atom_site_label_1
_geom_bond_atom_site_label_2
_ccdc_geom_bond_type
C11   N2    A    
O13   C35   S    
C6    C9    A    
C21   Br3   S    
C7    O13   S    
Cu1   O5    S    
C23   C29   A    
C3    C28   A    
C19   C21   A    
C24   C26   A    
C13   H3    S    
C14   H4    S    
C11   C14   A    
C32   H9    S    
C2    O3    A    
C4    Br6   S    
O10   C32   S    
C5    O11   S    
C34   H15   S    
C12   N1    A    
C3    C29   A    
O12   C34   S    
C35   H19   S    
Cu2   N2    S    
C16   O6    A    
C31   H7    S    
C22   Br4   S    
C6    O12   S    
C8    O14   S    
C31   H6    S    
C3    Br5   S    
C15   C20   S    
C35   H17   S    
O9    C31   S    
C17   C27   A    
C33   H13   S    
C11   H1    S    
C18   C28   A    
C36   H21   S    
O14   C36   S    
C32   H10   S    
C6    C8    A    
C25   C26   A    
C30   O10   S    
O11   C33   S    
Cu1   N1    S    
C33   H12   S    
C34   H16   S    
Cu1   Cu2   S    
Cu2   O6    S    
C13   N2    A    
C35   H18   S    
C20   C22   A    
C21   C23   A    
C22   C24   A    
C12   H2    S    
C4    C27   A    
C31   H5    S    
C5    C7    A    
C29   O9    S    
C7    C9    A    
Cu1   O3    S    
Cu2   O8    S    
C1    C10   S    
C17   Br1   S    
C18   Br2   S    
C16   O7    A    
C36   H22   S    
C25   C27   A    
C26   C28   A    
C33   H11   S    
C15   O5    A    
C5    C10   A    
C14   N1    A    
C32   H8    S    
C16   C19   S    
C17   C19   A    
Cu1   O1    S    
C18   C20   A    
Cu2   O2    S    
C34   H14   S    
C24   C30   A    
C1    O1    A    
C36   H20   S    
C2    O2    A    
C1    O4    A    
C23   C25   A    
C12   C13   A    
C8    C10   A    
Cu1   O7    S    
Cu2   O4    S    
C15   O8    A    
C2    C9    S    
C4    C30   A    
