data_mof_unit_14420.cif
_audit_creation_date              2012-10-26T20:55:49-0400
_audit_creation_method            fapswitch 2.2
_symmetry_space_group_name_H-M    P1
_symmetry_Int_Tables_number       1
_space_group_crystal_system       triclinic
_cell_length_a                    10.871236
_cell_length_b                    16.186906
_cell_length_c                    17.269817
_cell_angle_alpha                 93.582986
_cell_angle_beta                  92.654855
_cell_angle_gamma                 91.530353
_cell_volume                      3028.46718228

loop_
_atom_site_label
_atom_site_type_symbol
_atom_type_description
_atom_site_fract_x
_atom_site_fract_y
_atom_site_fract_z
_atom_type_partial_charge
C1    C     C_R   0.497322 0.491018 0.350149 0.540439
C2    C     C_R   0.462282 0.446321 0.773110 -0.149714
C3    C     C_R   0.517547 0.557230 0.147723 -0.133794
C4    C     C_R   0.474860 0.447629 0.853268 -0.133304
C5    C     C_R   0.457836 0.490260 0.104543 0.048165
C6    C     C_R   0.535748 0.514695 0.895775 0.048307
C7    C     C_R   0.411004 0.422029 0.142445 0.016982
C8    C     C_R   0.586956 0.580798 0.856883 0.016235
C9    C     C_R   0.426483 0.422615 0.223310 -0.123649
C10   C     C_R   0.574120 0.578221 0.775888 -0.123988
C11   C     C_2   0.447510 0.492098 0.019970 -0.152443
C12   C     C_R   0.502647 0.509073 0.649813 0.538569
C13   C     C_2   0.544552 0.514591 0.980524 -0.152215
C14   C     C_R   0.453422 0.755123 0.454834 0.144842
C15   C     C_R   0.542980 0.245032 0.546803 0.143843
C16   C     C_R   0.262885 0.501174 0.500513 0.541489
C17   C     C_R   0.737216 0.498757 0.500736 0.541524
C18   C     C_R   0.450024 0.841386 0.464383 -0.113100
C19   C     C_R   0.548991 0.158958 0.537113 -0.112001
C20   C     C_R   0.516178 0.885047 0.525136 0.019014
C21   C     C_R   0.490642 0.114834 0.473668 0.021320
C22   C     C_R   0.582695 0.840102 0.580080 -0.018261
C23   C     C_R   0.871288 0.496457 0.502066 -0.010261
C24   C     C_R   0.429171 0.159495 0.416160 -0.018969
C25   C     C_R   0.579692 0.752833 0.571148 0.048103
C26   C     C_R   0.427723 0.246773 0.426235 0.045612
C27   C     C_2   0.509021 0.976940 0.531216 -0.161783
C28   C     C_2   0.499992 0.022829 0.468004 -0.158735
C29   C     C_R   0.230924 0.763532 0.616068 -0.123996
C30   C     C_R   0.774993 0.230749 0.395859 -0.124993
C31   C     C_R   0.190895 0.682100 0.597599 -0.063753
C32   C     C_R   0.813670 0.312908 0.411112 -0.065317
C33   C     C_R   0.121199 0.661082 0.528473 0.004783
C34   C     C_R   0.129021 0.503086 0.501901 -0.009562
C35   C     C_R   0.880174 0.337770 0.480500 0.004692
C36   C     C_R   0.089470 0.723288 0.477118 0.033035
C37   C     C_R   0.910856 0.278555 0.535241 0.033878
C38   C     C_R   0.120247 0.807610 0.500664 0.019782
C39   C     C_R   0.880744 0.193274 0.515541 0.018462
C40   C     C_R   0.194359 0.825901 0.568843 -0.122077
C41   C     C_R   0.809449 0.171377 0.446929 -0.122939
C42   C     C_R   0.936495 0.571692 0.517240 -0.156313
C43   C     C_R   0.063893 0.427650 0.487964 -0.153339
C44   C     C_3   0.348114 0.347354 0.098571 -0.255449
C45   C     C_R   0.936468 0.422679 0.489302 -0.053393
C46   C     C_3   0.442290 0.291945 0.059112 -0.293629
C47   C     C_3   0.378962 0.217327 0.014027 -0.461279
C48   C     C_3   0.651638 0.655489 0.899638 -0.255698
C49   C     C_3   0.558501 0.714243 0.935666 -0.292571
C50   C     C_3   0.623509 0.788897 0.979681 -0.461794
C51   C     C_3   0.396258 0.711735 0.380651 -0.219094
C52   C     C_3   0.319019 0.763478 0.325796 -0.354297
C53   C     C_3   0.264202 0.709982 0.256028 -0.433162
C54   C     C_3   0.595349 0.288417 0.622210 -0.217187
C55   C     C_3   0.668236 0.237018 0.679515 -0.356618
C56   C     C_R   0.064084 0.576585 0.516489 -0.054162
C57   C     C_3   0.718588 0.290805 0.750305 -0.435229
C58   C     C_3   0.656523 0.882341 0.648257 -0.274661
C59   C     C_3   0.579834 0.886978 0.720587 -0.298011
C60   C     C_3   0.652233 0.930509 0.789892 -0.457981
C61   C     C_3   0.365860 0.116620 0.344130 -0.267480
C62   C     C_3   0.244890 0.073279 0.363287 -0.299070
C63   C     C_3   0.187432 0.022755 0.292598 -0.460946
C64   C     C_2   0.027616 0.696760 0.399790 0.185639
C65   C     C_2   0.970618 0.309176 0.611987 0.187983
C66   C     C_3   0.070672 0.879351 0.457791 -0.224763
C67   C     C_R   0.486956 0.489630 0.265790 0.002653
C68   C     C_3   0.932740 0.889583 0.471088 -0.253031
C69   C     C_3   0.871961 0.941015 0.409821 -0.446038
C70   C     C_3   0.927390 0.124033 0.563278 -0.226448
C71   C     C_3   0.064498 0.110180 0.550672 -0.256585
C72   C     C_3   0.122508 0.059047 0.613226 -0.445981
C73   C     C_R   0.512235 0.511289 0.734139 0.002588
C74   C     C_R   0.532973 0.556543 0.227617 -0.149095
Cu1   Cu    Cu3+1 0.493640 0.415410 0.495980 0.916234
Cu2   Cu    Cu3+1 0.506360 0.584590 0.504020 0.916121
H1    H     H_    0.222651 0.889106 0.586533 0.104888
H2    H     H_    0.394616 0.875644 0.424942 0.092733
H3    H     H_    0.286706 0.778920 0.668816 0.103307
H4    H     H_    0.721396 0.212430 0.342888 0.105752
H5    H     H_    0.213515 0.635117 0.637525 0.121258
H6    H     H_    0.792429 0.357460 0.368513 0.121608
H7    H     H_    0.887956 0.628441 0.529195 0.141158
H8    H     H_    0.112316 0.370760 0.476480 0.143995
H9    H     H_    0.581561 0.608183 0.259377 0.125275
H10   H     H_    0.412628 0.394841 0.741795 0.125413
H11   H     H_    0.612851 0.628479 0.745240 0.107194
H12   H     H_    0.780879 0.107683 0.432164 0.108088
H13   H     H_    0.390652 0.370915 0.253263 0.106008
H14   H     H_    0.630946 0.534025 0.011146 0.122874
H15   H     H_    0.361067 0.472460 0.989517 0.122595
H16   H     H_    0.327136 0.179401 0.053724 0.147804
H17   H     H_    0.314568 0.238073 0.967806 0.152859
H18   H     H_    0.449276 0.178287 0.986408 0.138562
H19   H     H_    0.495646 0.327303 0.018239 0.170205
H20   H     H_    0.507945 0.269646 0.103941 0.159506
H21   H     H_    0.296697 0.310004 0.139066 0.127956
H22   H     H_    0.278442 0.367602 0.055230 0.133516
H23   H     H_    0.437246 0.395762 0.882152 0.108356
H24   H     H_    0.683605 0.768457 0.028211 0.152033
H25   H     H_    0.680255 0.823630 0.940057 0.149179
H26   H     H_    0.553925 0.830885 0.004080 0.137710
H27   H     H_    0.496208 0.736390 0.888934 0.159196
H28   H     H_    0.501500 0.681497 0.976569 0.169780
H29   H     H_    0.718428 0.635441 0.944790 0.133056
H30   H     H_    0.706683 0.690187 0.858923 0.129727
H31   H     H_    0.338735 0.683796 0.221052 0.153159
H32   H     H_    0.205914 0.658544 0.275432 0.163035
H33   H     H_    0.206215 0.748443 0.218752 0.158761
H34   H     H_    0.552272 0.610441 0.119492 0.108201
H35   H     H_    0.242892 0.791583 0.357218 0.180765
H36   H     H_    0.377471 0.813380 0.303618 0.145324
H37   H     H_    0.473972 0.691015 0.346084 0.167407
H38   H     H_    0.336780 0.659256 0.395801 0.196663
H39   H     H_    0.777864 0.342452 0.732248 0.163608
H40   H     H_    0.641719 0.316595 0.783362 0.154771
H41   H     H_    0.774607 0.252640 0.788989 0.156238
H42   H     H_    0.607928 0.187183 0.700156 0.147243
H43   H     H_    0.746560 0.209017 0.650537 0.174037
H44   H     H_    0.657033 0.340340 0.608073 0.195835
H45   H     H_    0.381394 0.281633 0.382752 0.116337
H46   H     H_    0.515119 0.309147 0.654440 0.169774
H47   H     H_    0.736631 0.896148 0.804006 0.147202
H48   H     H_    0.678581 0.994807 0.776939 0.147674
H49   H     H_    0.594324 0.933008 0.841243 0.138756
H50   H     H_    0.494576 0.921440 0.708741 0.156444
H51   H     H_    0.552731 0.823385 0.735570 0.154531
H52   H     H_    0.741137 0.847119 0.660047 0.125825
H53   H     H_    0.688406 0.945393 0.634742 0.139417
H54   H     H_    0.170232 0.063143 0.243771 0.151630
H55   H     H_    0.249431 0.972496 0.274104 0.146739
H56   H     H_    0.628921 0.717715 0.613268 0.116909
H57   H     H_    0.098276 0.994364 0.307591 0.141043
H58   H     H_    0.260896 0.031158 0.410848 0.163295
H59   H     H_    0.179103 0.120817 0.382708 0.156043
H60   H     H_    0.344735 0.162354 0.300256 0.121160
H61   H     H_    0.428821 0.071924 0.316519 0.134422
H62   H     H_    0.025823 0.631984 0.379345 0.119060
H63   H     H_    0.968108 0.374403 0.630395 0.117375
H64   H     H_    0.922730 0.001025 0.407157 0.135860
H65   H     H_    0.871340 0.907173 0.351845 0.186439
H66   H     H_    0.775290 0.952707 0.424474 0.138355
H67   H     H_    0.501260 0.992145 0.410498 0.119071
H68   H     H_    0.882889 0.828625 0.469338 0.204402
H69   H     H_    0.921750 0.919980 0.529675 0.133683
H70   H     H_    0.120699 0.937747 0.478429 0.109021
H71   H     H_    0.088313 0.871659 0.395191 0.182046
H72   H     H_    0.122661 0.093808 0.670749 0.184028
H73   H     H_    0.070563 0.999476 0.616151 0.136269
H74   H     H_    0.219237 0.046104 0.599579 0.133083
H75   H     H_    0.073490 0.077718 0.492947 0.132926
H76   H     H_    0.117197 0.169958 0.550863 0.206704
H77   H     H_    0.911118 0.136536 0.625634 0.181529
H78   H     H_    0.507103 0.006648 0.589131 0.119210
H79   H     H_    0.874905 0.065356 0.546395 0.109891
H80   H     H_    0.601905 0.125403 0.578281 0.090138
N1    N     N_R   0.515930 0.711660 0.510070 -0.231680
N2    N     N_R   0.484070 0.288340 0.489930 -0.231940
O1    O     O_R   0.494030 0.420280 0.382610 -0.515799
O2    O     O_2   0.023142 0.263828 0.655669 -0.549490
O3    O     O_R   0.505970 0.579720 0.617390 -0.515402
O4    O     O_R   0.504770 0.563150 0.389400 -0.529414
O5    O     O_R   0.495230 0.436850 0.610600 -0.531449
O6    O     O_R   0.314270 0.428570 0.496610 -0.505571
O7    O     O_R   0.685730 0.571430 0.503390 -0.506546
O8    O     O_R   0.325020 0.571440 0.503400 -0.508990
O9    O     O_R   0.674980 0.428560 0.496600 -0.507223
O10   O     O_2   0.978942 0.745120 0.357440 -0.551562

loop_
_geom_bond_atom_site_label_1
_geom_bond_atom_site_label_2
_ccdc_geom_bond_type
C66   C68   S    
C58   H52   S    
C24   C61   S    
C23   C45   A    
C54   H44   S    
C13   H14   S    
C70   H77   S    
C47   H16   S    
C14   C18   A    
Cu2   O4    S    
C49   H28   S    
C9    C67   A    
C57   H39   S    
C39   C41   A    
C55   H43   S    
C16   O6    A    
C59   H50   S    
C34   C56   A    
C51   H37   S    
C23   C42   A    
C63   H57   S    
C60   H49   S    
C35   C37   A    
C24   C26   A    
C5    C11   S    
C72   H73   S    
C10   C73   A    
C52   H36   S    
C58   H53   S    
C53   H33   S    
C33   C36   A    
Cu1   O5    S    
C63   H54   S    
C60   H48   S    
C3    C74   A    
C42   C56   A    
C12   O3    A    
C46   C47   S    
C44   H22   S    
C39   C70   S    
C71   H75   S    
C46   H19   S    
C38   C66   S    
C16   O8    A    
C68   C69   S    
C22   C25   A    
C37   C65   S    
C31   C33   A    
C30   C41   A    
Cu2   O8    S    
C70   C71   S    
C26   H45   S    
C63   H55   S    
C59   H51   S    
C18   C20   A    
C30   H4    S    
C33   C56   S    
C54   H46   S    
C59   C60   S    
C48   H29   S    
C12   C73   S    
C43   H8    S    
Cu2   O3    S    
C65   O2    D    
C44   C46   S    
C57   H40   S    
C10   H11   S    
C48   H30   S    
Cu2   N1    S    
C51   H38   S    
C34   C43   A    
C14   N1    A    
C51   C52   S    
C32   C35   A    
C1    O1    A    
C15   N2    A    
C4    C6    A    
C15   C54   S    
C17   O9    A    
C9    H13   S    
C5    C7    A    
C6    C8    A    
C52   H35   S    
C69   H66   S    
C72   H72   S    
C70   H79   S    
Cu1   O6    S    
C62   H59   S    
C60   H47   S    
C15   C19   A    
Cu1   Cu2   S    
C8    C48   S    
C22   C58   S    
C62   C63   S    
C44   H21   S    
C53   H31   S    
C14   C51   S    
C29   H3    S    
C18   H2    S    
C16   C34   S    
C47   H17   S    
Cu2   O7    S    
C28   H67   S    
C17   C23   S    
C7    C44   S    
C43   C45   A    
C66   H71   S    
C2    C73   A    
Cu1   N2    S    
C48   C49   S    
C21   C28   S    
C20   C22   A    
C1    O4    A    
C50   H26   S    
C72   H74   S    
C55   C57   S    
C25   N1    A    
C64   O10   D    
C21   C24   A    
C35   C45   S    
C64   H62   S    
C52   C53   S    
C57   H41   S    
Cu1   O1    S    
C7    C9    A    
C41   H12   S    
C54   C55   S    
C19   C21   A    
C42   H7    S    
C3    C5    A    
C49   H27   S    
C68   H68   S    
C2    H10   S    
C20   C27   S    
C32   H6    S    
C50   H24   S    
C31   H5    S    
C62   H58   S    
C36   C38   A    
C58   C59   S    
C71   C72   S    
C29   C31   A    
C17   O7    A    
C12   O5    A    
C30   C32   A    
C11   C13   D    
C53   H32   S    
C61   H61   S    
C38   C40   A    
C27   H78   S    
C2    C4    A    
C29   C40   A    
C1    C67   S    
C47   H18   S    
C26   N2    A    
C67   C74   A    
C74   H9    S    
C61   C62   S    
C66   H70   S    
C69   H64   S    
C19   H80   S    
C65   H63   S    
C11   H15   S    
C37   C39   A    
C46   H20   S    
C50   H25   S    
C8    C10   A    
C49   C50   S    
C4    H23   S    
C27   C28   D    
C71   H76   S    
C40   H1    S    
Cu1   O9    S    
C3    H34   S    
C36   C64   S    
C25   H56   S    
C69   H65   S    
C68   H69   S    
C61   H60   S    
C6    C13   S    
C55   H42   S    
