data_mof_unit_19112.cif
_audit_creation_date              2012-12-11T17:10:37-0500
_audit_creation_method            fapswitch 2.2
_symmetry_space_group_name_H-M    P1
_symmetry_Int_Tables_number       1
_space_group_crystal_system       triclinic
_cell_length_a                    15.011814
_cell_length_b                    14.863552
_cell_length_c                    14.930072
_cell_angle_alpha                 109.801824
_cell_angle_beta                  109.407651
_cell_angle_gamma                 109.081946
_cell_volume                      2568.24438717

loop_
_atom_site_label
_atom_site_type_symbol
_atom_type_description
_atom_site_fract_x
_atom_site_fract_y
_atom_site_fract_z
_atom_type_partial_charge
C1    C     C_R   0.186667 0.280680 0.254254 -0.243437
C2    C     C_R   0.400788 0.489111 0.192199 -0.243816
C3    C     C_R   0.563504 0.815420 0.591468 -0.115780
C4    C     C_R   0.529434 0.436296 0.750575 -0.163016
C5    C     C_R   0.726867 0.492373 0.416558 0.610792
C6    C     C_R   0.549343 0.826143 0.499361 0.065621
C7    C     C_R   0.829785 0.563576 0.511603 -0.060792
C8    C     C_R   0.421784 0.417494 0.124562 -0.125941
C9    C     C_R   0.806497 0.809164 0.856682 0.141843
C10   C     C_R   0.157296 0.664899 0.263075 -0.091037
C11   C     C_R   0.142341 0.662689 0.349874 -0.210737
C12   C     C_R   0.458189 0.455444 0.783316 0.107938
C13   C     C_R   0.049250 0.576306 0.329402 -0.043633
C14   C     C_R   0.970669 0.491361 0.220038 0.631627
C15   C     C_R   0.986798 0.494892 0.133559 -0.297562
C16   C     C_R   0.518627 0.208822 0.409729 0.702915
C17   C     C_R   0.080058 0.580949 0.155181 -0.143423
C18   C     C_R   0.945656 0.584574 0.425845 -0.181844
C19   C     C_R   0.937531 0.607140 0.520720 -0.000826
C20   C     C_R   0.026450 0.634366 0.616627 0.002350
C21   C     C_R   0.094210 0.591835 0.603754 0.246042
C22   C     C_R   0.104342 0.570432 0.508497 -0.007671
C23   C     C_R   0.576017 0.202107 0.499131 -0.154348
C24   C     C_R   0.034341 0.577259 0.422943 0.012960
C25   C     C_R   0.096755 0.833772 0.737413 -0.122819
C26   C     C_R   0.143212 0.925538 0.840284 -0.132098
C27   C     C_R   0.157943 0.913094 0.931841 -0.134451
C28   C     C_R   0.289041 0.588656 0.592397 -0.151748
C29   C     C_R   0.124469 0.808433 0.920852 0.370097
C30   C     C_R   0.079131 0.716493 0.817733 -0.224767
C31   C     C_R   0.065576 0.728449 0.725206 0.092763
C32   C     C_R   0.456068 0.348580 0.879656 -0.024852
C33   C     C_R   0.413886 0.406023 0.838954 -0.019235
C34   C     C_R   0.189547 0.545919 0.502679 0.082526
C35   C     C_R   0.335227 0.422729 0.862064 -0.341053
C36   C     C_R   0.319126 0.405555 0.943803 0.661271
C37   C     C_R   0.388059 0.377775 0.006899 -0.117938
C38   C     C_R   0.439560 0.329992 0.958986 -0.197099
C39   C     C_3   0.547537 0.332866 0.004945 0.531130
C40   C     C_R   0.597629 0.291483 0.590240 -0.220128
C41   C     C_3   0.568421 0.362946 0.923777 0.294100
C42   C     C_R   0.567790 0.931639 0.400669 0.153919
C43   C     C_R   0.598728 0.928868 0.498668 0.052095
C44   C     C_R   0.665270 0.030835 0.597512 -0.228977
C45   C     C_R   0.475493 0.721953 0.407955 -0.147893
C46   C     C_R   0.672887 0.127213 0.597043 -0.172885
C47   C     C_R   0.613356 0.121707 0.497973 0.064587
C48   C     C_R   0.574979 0.026450 0.400108 0.138090
C49   C     C_3   0.474646 0.962097 0.289384 -0.373330
C50   C     C_3   0.466506 0.859096 0.290975 -0.605144
C51   C     C_R   0.016312 0.997638 0.147528 0.060194
C52   C     C_R   0.193830 0.490384 0.410010 -0.116226
C53   C     C_R   0.080647 0.083357 0.140245 0.064992
C54   C     C_R   0.060451 0.073724 0.037971 -0.431059
C55   C     C_R   0.967329 0.983991 0.943603 0.686978
C56   C     C_R   0.813758 0.565558 0.596933 -0.231916
C57   C     C_R   0.898735 0.902146 0.953292 -0.232374
C58   C     C_R   0.925736 0.906096 0.053749 -0.019383
C59   C     C_3   0.859436 0.899512 0.109816 0.558238
C60   C     C_3   0.959949 0.000437 0.213088 -0.590480
C61   C     C_R   0.439924 0.530702 0.755341 -0.157139
C62   C     C_R   0.276661 0.189179 0.264977 0.553654
C63   C     C_R   0.174528 0.179466 0.234505 -0.042561
C64   C     C_3   0.403539 0.201610 0.104818 -0.187074
C65   C     C_3   0.714883 0.597303 0.336005 -0.316758
C66   C     C_3   0.885385 0.314220 0.180055 -0.278491
C67   C     C_R   0.481629 0.389583 0.191310 0.688388
C68   C     C_3   0.141072 0.557116 0.684195 -1.032282
C69   C     C_3   0.136960 0.795824 0.019134 -1.029072
C70   C     C_3   0.624256 0.212394 0.326481 -0.248737
C71   C     C_3   0.161115 0.336765 0.945529 -0.310080
C72   C     C_3   0.449547 0.134154 0.897924 -0.076261
C73   C     C_3   0.687680 0.310698 0.890465 -0.227783
C74   C     C_3   0.910094 0.046477 0.828636 -0.288673
C75   C     C_3   0.728513 0.720225 0.035962 -0.231256
C76   C     C_3   0.255624 0.050877 0.307158 -0.271097
C77   C     C_R   0.712245 0.805605 0.798628 -0.138729
C78   C     C_R   0.803183 0.713162 0.799912 -0.090647
H1    H     H_    0.122173 0.299557 0.229455 0.132705
H2    H     H_    0.556897 0.378892 0.752634 0.180144
H3    H     H_    0.926802 0.430972 0.049508 0.121936
H4    H     H_    0.883618 0.570483 0.352355 0.207121
H5    H     H_    0.087724 0.845221 0.667651 0.114344
H6    H     H_    0.168374 0.006578 0.849201 0.123490
H7    H     H_    0.194880 0.984858 0.011305 0.145700
H8    H     H_    0.052156 0.635773 0.809452 0.129570
H9    H     H_    0.292713 0.457589 0.824125 0.162453
H10   H     H_    0.607182 0.401665 0.090374 0.072061
H11   H     H_    0.631819 0.450151 0.961673 -0.022250
H12   H     H_    0.872623 0.609125 0.682129 0.151452
H13   H     H_    0.699899 0.035409 0.676036 0.118527
H14   H     H_    0.713516 0.201583 0.675102 0.120299
H15   H     H_    0.405787 0.973654 0.290211 0.212192
H16   H     H_    0.491514 0.968817 0.224197 0.209536
H17   H     H_    0.393540 0.814818 0.294524 0.201096
H18   H     H_    0.321362 0.651638 0.675561 0.117182
H19   H     H_    0.478802 0.807755 0.227350 0.210458
H20   H     H_    0.115653 0.136951 0.031922 0.147814
H21   H     H_    0.791216 0.915731 0.078085 -0.011649
H22   H     H_    0.950618 0.074762 0.239124 0.157651
H23   H     H_    0.685539 0.863328 0.827161 0.078015
H24   H     H_    0.995732 0.984502 0.280268 0.217511
H25   H     H_    0.656054 0.323530 0.674502 0.139728
H26   H     H_    0.136829 0.458421 0.325783 0.091597
H27   H     H_    0.388066 0.563600 0.768017 0.107351
H28   H     H_    0.449706 0.697278 0.323135 0.120799
H29   H     H_    0.332202 0.196812 0.043847 0.084091
H30   H     H_    0.386759 0.184755 0.164817 0.196334
H31   H     H_    0.415978 0.133745 0.062366 0.185870
H32   H     H_    0.801337 0.662967 0.385823 0.149985
H33   H     H_    0.671562 0.624169 0.377555 0.149272
H34   H     H_    0.859626 0.686380 0.830243 0.097968
H35   H     H_    0.681182 0.592454 0.255119 0.165870
H36   H     H_    0.948639 0.328743 0.256813 0.135824
H37   H     H_    0.903008 0.285951 0.112031 0.117092
H38   H     H_    0.806911 0.246724 0.156479 0.192667
H39   H     H_    0.077639 0.513409 0.699853 0.250162
H40   H     H_    0.164715 0.495721 0.650999 0.255534
H41   H     H_    0.211437 0.629943 0.762772 0.253056
H42   H     H_    0.109990 0.708982 0.998781 0.244277
H43   H     H_    0.223565 0.847301 0.085050 0.269268
H44   H     H_    0.086917 0.822650 0.049656 0.258181
H45   H     H_    0.344690 0.517484 0.166329 0.200158
H46   H     H_    0.689623 0.279037 0.411637 0.106291
H47   H     H_    0.627269 0.246169 0.271144 0.228284
H48   H     H_    0.644092 0.145495 0.302860 0.142882
H49   H     H_    0.188656 0.302174 0.997670 0.145458
H50   H     H_    0.117639 0.273475 0.857011 0.147229
H51   H     H_    0.102129 0.358197 0.962682 0.172185
H52   H     H_    0.445500 0.124907 0.819793 0.175086
H53   H     H_    0.372984 0.128331 0.894936 0.092461
H54   H     H_    0.452689 0.062110 0.902187 0.116125
H55   H     H_    0.722661 0.320120 0.973635 0.196908
H56   H     H_    0.615379 0.879612 0.676232 0.093019
H57   H     H_    0.736623 0.386761 0.892533 0.116846
H58   H     H_    0.692643 0.242418 0.835968 0.150560
H59   H     H_    0.976039 0.133369 0.886653 0.125387
H60   H     H_    0.837479 0.032860 0.838862 0.122209
H61   H     H_    0.886227 0.031976 0.744167 0.182664
H62   H     H_    0.724775 0.694770 0.955138 0.141164
H63   H     H_    0.665609 0.744013 0.036491 0.126460
H64   H     H_    0.709324 0.647902 0.047701 0.161771
H65   H     H_    0.229124 0.095404 0.359989 0.129505
H66   H     H_    0.317619 0.040714 0.361737 0.145805
H67   H     H_    0.091986 0.583070 0.088152 0.140113
H68   H     H_    0.186506 0.967632 0.242208 0.177675
H69   H     H_    0.228331 0.732402 0.279510 0.113898
H70   H     H_    0.202951 0.728669 0.433131 0.139358
N1    N     N_R   0.291070 0.347930 0.293870 -0.071126
N2    N     N_R   0.497240 0.291100 0.443210 -0.095780
N3    N     N_R   0.347890 0.554050 0.556810 -0.039471
N4    N     N_R   0.554050 0.347900 0.556830 -0.074608
N5    N     N_R   0.291070 0.497250 0.443190 -0.032105
N6    N     N_R   0.497240 0.554030 0.706140 -0.042519
N7    N     N_R   0.347890 0.291110 0.293870 -0.118612
N8    N     N_R   0.445950 0.652100 0.443170 -0.035447
N9    N     N_R   0.708930 0.502750 0.556810 -0.080255
N10   N     N_R   0.502760 0.445970 0.293860 -0.096073
N11   N     N_R   0.652110 0.708890 0.706130 -0.040384
N12   N     N_R   0.708930 0.652070 0.706130 -0.041718
N13   N     N_R   0.445950 0.502780 0.293850 -0.084176
N14   N     N_R   0.502760 0.708900 0.556790 -0.041763
N15   N     N_R   0.652110 0.445950 0.443190 -0.109222
N16   N     N_R   0.554050 0.497220 0.706150 -0.047029
Ni1   Ni    Ni4+2 0.369690 0.500010 0.369700 0.196214
Ni2   Ni    Ni4+2 0.630310 0.499990 0.630300 0.184490
Ni3   Ni    Ni4+2 0.500000 0.369720 0.369720 0.263105
Ni4   Ni    Ni4+2 0.500000 0.630280 0.630280 0.200461
O1    O     O_3   0.500539 0.302188 0.158563 -0.597427
O2    O     O_3   0.300944 0.105864 0.258828 -0.633573
O3    O     O_3   0.701330 0.492349 0.318775 -0.615298
O4    O     O_3   0.875391 0.408849 0.197183 -0.615193
O5    O     O_3   0.517414 0.168867 0.310664 -0.628476
O6    O     O_3   0.248345 0.432975 0.970472 -0.628333
O7    O     O_3   0.543873 0.231266 0.991679 -0.558496
O8    O     O_3   0.577800 0.284033 0.847749 -0.603847
O9    O     O_3   0.945720 0.972578 0.841517 -0.600572
O10   O     O_3   0.833261 0.805782 0.122381 -0.593305

loop_
_geom_bond_atom_site_label_1
_geom_bond_atom_site_label_2
_ccdc_geom_bond_type
C16   O5    S    
C25   C31   A    
C41   H11   S    
C36   O6    S    
C6    C45   A    
C28   C34   A    
C27   C29   A    
C53   C63   S    
C59   H21   S    
C77   H23   S    
C35   C36   A    
C3    C6    A    
N6    Ni4   S    
C61   N6    A    
C64   H31   S    
C15   H3    S    
C53   C54   A    
N11   Ni4   S    
C74   H60   S    
C26   C27   A    
C37   C38   A    
C66   H38   S    
C65   O3    S    
C18   C24   A    
C18   H4    S    
C7    C56   A    
C66   O4    S    
C36   C37   A    
C4    H2    S    
C75   H62   S    
C68   H41   S    
C30   C31   A    
C60   H24   S    
C11   H70   S    
C46   H14   S    
C10   C17   A    
N3    Ni4   S    
C62   N7    A    
C40   N4    A    
C18   C19   A    
C72   O7    S    
C51   C58   A    
C64   O1    S    
C27   H7    S    
C75   O10   S    
C65   H33   S    
C34   C52   A    
C75   H63   S    
N10   N13   A    
C68   H40   S    
C46   C47   A    
C35   H9    S    
C73   H57   S    
N7    Ni3   S    
C32   C41   S    
C4    N16   A    
C1    N1    A    
N12   Ni2   S    
C49   H16   S    
C4    C12   A    
C29   C30   A    
C61   H27   S    
N9    N15   A    
C9    C57   S    
C3    N14   A    
C10   H69   S    
C70   H48   S    
C56   H12   S    
C76   H68   S    
C59   C60   S    
C21   C22   A    
C55   O9    S    
N11   N12   A    
C71   H49   S    
C39   H10   S    
C22   C34   S    
C1    C63   A    
C2    N13   A    
C25   C26   A    
C44   C46   A    
N10   Ni3   S    
C72   H54   S    
C29   C69   S    
C62   O2    S    
C74   H59   S    
C23   C47   S    
C66   H37   S    
C54   H20   S    
N1    Ni1   S    
C14   O4    S    
C5    C7    A    
C42   C48   A    
C58   C59   S    
C2    H45   S    
C67   O1    S    
C13   C24   S    
C51   C53   A    
C17   H67   S    
C43   C44   A    
C62   C63   A    
C75   H64   S    
C68   H39   S    
C71   H51   S    
C56   N9    A    
C47   C48   A    
C73   H58   S    
C69   H43   S    
N15   Ni3   S    
C5    O3    S    
C45   N8    A    
C9    C77   A    
C76   O2    S    
C44   H13   S    
C42   C50   S    
N14   Ni4   S    
C76   H66   S    
C70   H47   S    
C39   O7    S    
C48   C49   S    
C41   O8    S    
C77   N11   A    
C49   C50   S    
C16   C23   A    
C32   C38   A    
C6    C43   S    
C55   C57   A    
C21   C68   S    
C1    H1    S    
N2    N4    A    
C71   H50   S    
C30   H8    S    
C42   C43   A    
C5    N15   A    
C45   H28   S    
C72   H53   S    
N6    N16   A    
C15   C17   A    
C54   C55   A    
C52   H26   S    
C50   H19   S    
C26   H6    S    
C66   H36   S    
N5    Ni1   S    
C65   H35   S    
C59   O10   S    
C2    C8    A    
C73   H55   S    
C60   H22   S    
N9    Ni2   S    
N4    Ni2   S    
C72   H52   S    
C74   H61   S    
C69   H42   S    
C7    C19   S    
C71   O6    S    
C28   H18   S    
C3    H56   S    
C32   C33   A    
C19   C20   A    
N16   Ni2   S    
C52   N5    A    
C40   H25   S    
C12   C61   A    
C11   C13   A    
C57   C58   A    
C38   C39   S    
C74   O9    S    
C69   H44   S    
C73   O8    S    
N2    Ni3   S    
C78   N12   A    
C33   C35   A    
C67   N10   A    
C22   C24   A    
C9    C78   A    
N3    N5    A    
N1    N7    A    
C50   H17   S    
C70   O5    S    
N8    Ni1   S    
C65   H32   S    
C10   C11   A    
N8    N14   A    
C76   H65   S    
C70   H46   S    
C20   C21   A    
C39   C41   S    
C8    C67   A    
C64   H29   S    
C8    C37   S    
C25   H5    S    
C14   C15   A    
C28   N3    A    
C78   H34   S    
C51   C60   S    
C49   H15   S    
C12   C33   S    
C13   C14   A    
C16   N2    A    
N13   Ni1   S    
C23   C40   A    
C64   H30   S    
C20   C31   S    
