data_mof_unit_22478.cif
_audit_creation_date              2012-10-26T20:42:34-0400
_audit_creation_method            fapswitch 2.2
_symmetry_space_group_name_H-M    P1
_symmetry_Int_Tables_number       1
_space_group_crystal_system       triclinic
_cell_length_a                    10.818319
_cell_length_b                    9.519927
_cell_length_c                    10.936549
_cell_angle_alpha                 89.964296
_cell_angle_beta                  90.180411
_cell_angle_gamma                 89.494028
_cell_volume                      1126.30114423

loop_
_atom_site_label
_atom_site_type_symbol
_atom_type_description
_atom_site_fract_x
_atom_site_fract_y
_atom_site_fract_z
_atom_type_partial_charge
C1    C     C_R   0.262038 0.500983 0.502220 0.571866
C2    C     C_R   0.936790 0.393125 0.450000 -0.188678
C3    C     C_R   0.871256 0.498648 0.510982 0.019866
C4    C     C_R   0.127838 0.503735 0.506342 0.017590
C5    C     C_R   0.933336 0.604565 0.576303 0.141859
C6    C     C_R   0.062920 0.611387 0.569067 0.132723
C7    C     C_R   0.428795 0.075183 0.418745 0.005347
C8    C     C_R   0.571409 0.073643 0.581097 0.007663
C9    C     C_R   0.429187 0.926390 0.418441 0.000985
C10   C     C_R   0.571278 0.924828 0.581205 0.015085
C11   C     C_3   0.830074 0.644180 0.769007 -0.303943
C12   C     C_R   0.737638 0.499403 0.503401 0.566498
C13   C     C_3   0.141123 0.848830 0.560571 -0.277632
C14   C     C_R   0.498497 0.500088 0.265238 0.550244
C15   C     C_R   0.501609 0.500008 0.734746 0.552314
C16   C     C_2   0.498090 0.384670 0.933074 -0.164357
C17   C     C_2   0.503485 0.384698 0.067017 -0.164166
C18   C     C_2   0.508378 0.502258 0.866657 -0.124345
C19   C     C_2   0.492491 0.502488 0.133262 -0.118783
C20   C     C_R   0.064311 0.394610 0.449141 -0.188774
Cu1   Cu    Cu3+1 0.500000 0.640660 0.500000 0.956530
Cu2   Cu    Cu3+1 0.500000 0.359340 0.500000 0.927800
H1    H     H_    0.486941 0.283640 0.888411 0.145205
H2    H     H_    0.628401 0.868188 0.646246 0.123960
H3    H     H_    0.898969 0.800489 0.656972 0.243873
H4    H     H_    0.913680 0.624574 0.825985 0.129292
H5    H     H_    0.778512 0.544592 0.758076 0.156195
H6    H     H_    0.769225 0.720836 0.816773 0.129761
H7    H     H_    0.100976 0.737685 0.719082 0.243220
H8    H     H_    0.051917 0.906809 0.555306 0.112029
H9    H     H_    0.172621 0.826304 0.466030 0.159485
H10   H     H_    0.210298 0.917125 0.605655 0.151801
H11   H     H_    0.514804 0.283502 0.111851 0.144857
H12   H     H_    0.524710 0.603861 0.907572 0.095138
H13   H     H_    0.476224 0.604376 0.092139 0.098047
H14   H     H_    0.113505 0.312017 0.400891 0.128787
H15   H     H_    0.889117 0.310633 0.401109 0.136809
H16   H     H_    0.371538 0.131832 0.353785 0.104718
H17   H     H_    0.628733 0.129080 0.645982 0.106222
H18   H     H_    0.372524 0.870980 0.353007 0.099469
N1    N     N_R   0.500000 0.852070 0.500000 -0.222753
N2    N     N_R   0.500000 0.147940 0.500000 -0.223863
N3    N     N_2   0.864930 0.700187 0.651154 -0.509714
N4    N     N_2   0.128533 0.720146 0.630199 -0.496914
O1    O     O_R   0.319640 0.618740 0.499990 -0.477480
O2    O     O_R   0.680360 0.618740 0.500010 -0.467332
O3    O     O_R   0.319620 0.381170 0.499990 -0.512849
O4    O     O_R   0.680380 0.381170 0.500010 -0.516324
O5    O     O_R   0.500000 0.618750 0.321940 -0.509452
O6    O     O_R   0.500000 0.618750 0.678060 -0.499002
O7    O     O_R   0.499970 0.381180 0.321940 -0.504191
O8    O     O_R   0.500030 0.381180 0.678060 -0.504686

loop_
_geom_bond_atom_site_label_1
_geom_bond_atom_site_label_2
_ccdc_geom_bond_type
C15   C18   S    
Cu2   O4    S    
C11   N3    S    
C8    H17   S    
C13   H10   S    
C9    N1    A    
C14   O7    A    
C11   H5    S    
C12   O4    A    
C1    C4    S    
H3    N3    S    
Cu1   O5    S    
C2    C3    A    
C5    N3    S    
C6    N4    S    
C15   O8    A    
C10   N1    A    
C18   H12   S    
C2    H15   S    
C1    O1    A    
Cu2   N2    S    
C17   H11   S    
C11   H6    S    
Cu1   N1    S    
Cu2   O8    S    
Cu1   O6    S    
C17   C19   D    
C7    H16   S    
C8    N2    A    
Cu2   O3    S    
C16   H1    S    
Cu1   O1    S    
C9    H18   S    
H7    N4    S    
Cu2   O7    S    
C5    C6    A    
C8    C10   A    
C15   O6    A    
C4    C6    A    
C2    C20   A    
C4    C20   A    
C13   H8    S    
C14   O5    A    
C16   C18   D    
Cu1   O2    S    
C7    N2    A    
C7    C9    A    
C1    O3    A    
C19   H13   S    
C3    C12   S    
C11   H4    S    
C10   H2    S    
Cu1   Cu2   S    
C14   C19   S    
C13   H9    S    
C13   N4    S    
C16   C17   S    
C3    C5    A    
C12   O2    A    
C20   H14   S    
