data_mof_unit_26876.cif
_audit_creation_date              2013-03-05T16:04:07-0500
_audit_creation_method            fapswitch 2.2
_symmetry_space_group_name_H-M    P1
_symmetry_Int_Tables_number       1
_space_group_crystal_system       triclinic
_cell_length_a                    10.829013
_cell_length_b                    9.570511
_cell_length_c                    10.91627
_cell_angle_alpha                 89.988039
_cell_angle_beta                  90.169993
_cell_angle_gamma                 89.999014
_cell_volume                      1131.34835486

loop_
_atom_site_label
_atom_site_type_symbol
_atom_site_description
_atom_site_fract_x
_atom_site_fract_y
_atom_site_fract_z
_atom_type_partial_charge
O1    O     O_R   0.319640 0.618740 0.499990 -0.599569
O2    O     O_R   0.680360 0.618740 0.500010 -0.599403
O3    O     O_R   0.319620 0.381170 0.499990 -0.589155
O4    O     O_R   0.680380 0.381170 0.500010 -0.589282
C1    C     C_R   0.262227 0.499960 0.499886 0.785341
C2    C     C_R   0.737773 0.499958 0.500115 0.785421
O5    O     O_R   0.500000 0.618810 0.319650 -0.598854
O6    O     O_R   0.500000 0.618810 0.680350 -0.598526
O7    O     O_R   0.499970 0.381240 0.319640 -0.515370
O8    O     O_R   0.500030 0.381240 0.680360 -0.516048
C3    C     C_R   0.510119 0.499894 0.262428 0.850824
C4    C     C_R   0.489683 0.499848 0.737520 0.850534
Cu1   Cu    Cu3+1 0.500000 0.640660 0.500000 0.945411
Cu2   Cu    Cu3+1 0.500000 0.359340 0.500000 1.035391
C5    C     C_R   0.562007 0.752916 0.110814 -0.146113
C6    C     C_R   0.435709 0.752315 0.888829 -0.145632
H1    H     H_    0.617884 0.757497 0.192933 0.167519
H2    H     H_    0.379993 0.756286 0.806565 0.166881
C7    C     C_R   0.534354 0.877847 0.052552 -0.072181
C8    C     C_R   0.462292 0.877517 0.947082 -0.072694
H3    H     H_    0.566655 0.973923 0.091407 0.237671
H4    H     H_    0.429284 0.973324 0.908178 0.236696
C9    C     C_R   0.477858 0.625152 0.938971 0.046494
C10   C     C_R   0.520745 0.625339 0.060815 0.046101
C11   C     C_R   0.520197 0.498928 0.127450 -0.282636
C12   C     C_R   0.479205 0.498773 0.872429 -0.282484
C13   C     C_R   0.508953 0.371681 0.063069 0.268858
C14   C     C_R   0.490780 0.371601 0.936864 0.267710
C15   C     C_R   0.063881 0.372990 0.499932 -0.159855
C16   C     C_R   0.936124 0.372989 0.500042 -0.160066
H5    H     H_    0.111897 0.273690 0.499864 0.155201
H6    H     H_    0.888111 0.273689 0.500084 0.155210
C17   C     C_R   0.871706 0.499964 0.500092 -0.016205
C18   C     C_R   0.128295 0.499965 0.499914 -0.016148
C19   C     C_R   0.936119 0.626939 0.500072 -0.177212
C20   C     C_R   0.063878 0.626940 0.499969 -0.177381
H7    H     H_    0.888101 0.726237 0.500136 0.152704
H8    H     H_    0.111893 0.726238 0.499933 0.152674
C21   C     C_R   0.416308 0.074224 0.431635 0.057629
C22   C     C_R   0.583642 0.074193 0.568433 0.057151
H9    H     H_    0.348775 0.129770 0.377098 0.151027
H10   H     H_    0.651083 0.129715 0.623089 0.150342
C23   C     C_R   0.416675 0.925790 0.431152 -0.023657
C24   C     C_R   0.583295 0.925756 0.568887 -0.022780
H11   H     H_    0.349884 0.870275 0.375643 0.134905
H12   H     H_    0.650060 0.870211 0.624426 0.134912
N1    N     N_R   0.500000 0.852070 0.500000 -0.177829
N2    N     N_R   0.500000 0.147940 0.500000 -0.166982
N3    N     N_R   0.516845 0.240113 0.124445 0.138433
O9    O     O_R   0.417890 0.164627 0.137956 -0.404215
O10   O     O_R   0.620024 0.202166 0.176176 -0.377653
N4    N     N_R   0.482644 0.239970 0.875611 0.138243
O11   O     O_R   0.580999 0.162995 0.864011 -0.403121
O12   O     O_R   0.379597 0.202510 0.823365 -0.378232

loop_
_geom_bond_atom_site_label_1
_geom_bond_atom_site_label_2
_geom_bond_distance
_ccdc_geom_bond_type
C7    H3    1.070989 S    
O5    Cu1   1.979869 S    
O5    C3    1.303126 A    
O7    Cu2   1.979939 S    
C2    C17   1.450363 S    
C15   C16   1.383491 A    
C11   C13   1.411276 A    
C14   N4    1.428952 S    
C12   C14   1.410996 A    
C19   C20   1.383509 A    
C24   N1    1.368442 A    
O6    C4    1.303194 A    
C6    C8    1.386464 A    
C1    C18   1.450357 S    
N4    O12   1.302049 A    
C7    C8    1.388963 A    
C20   H8    1.083284 S    
C21   H9    1.081257 S    
Cu1   Cu2   2.692376 S    
N4    O11   1.301526 A    
C5    C7    1.386471 A    
C23   H11   1.081735 S    
O2    C2    1.295698 A    
O3    Cu2   1.964475 S    
O8    C4    1.300443 A    
O1    C1    1.295704 A    
O4    C2    1.295667 A    
C5    C10   1.409679 A    
C17   C19   1.401194 A    
C24   H12   1.081735 S    
C6    C9    1.409713 A    
C18   C20   1.401188 A    
O7    C3    1.300685 A    
O4    Cu2   1.964481 S    
C23   N1    1.368414 A    
O1    Cu1   1.964358 S    
C3    C11   1.477847 S    
C9    C10   1.407529 A    
C16   H6    1.083288 S    
O6    Cu1   1.979781 S    
O3    C1    1.295660 A    
C22   C24   1.420637 A    
C10   C11   1.411545 A    
C21   C23   1.420610 A    
C6    H2    1.081051 S    
N3    O9    1.301117 A    
O8    Cu2   1.980025 S    
C9    C12   1.411099 A    
C4    C12   1.477439 S    
C13   C14   1.391093 A    
C5    H1    1.080953 S    
O2    Cu1   1.964351 S    
C22   N2    1.368334 A    
C21   N2    1.368314 A    
Cu2   N2    2.023206 S    
C16   C17   1.401190 A    
C19   H7    1.083284 S    
C15   H5    1.083287 S    
Cu1   N1    2.023302 S    
C15   C18   1.401196 A    
C13   N3    1.428645 S    
C8    H4    1.071357 S    
C22   H10   1.081320 S    
N3    O10   1.302058 A    
