data_mof_unit_42857.cif
_audit_creation_date              2013-03-05T15:58:45-0500
_audit_creation_method            fapswitch 2.2
_symmetry_space_group_name_H-M    P1
_symmetry_Int_Tables_number       1
_space_group_crystal_system       triclinic
_cell_length_a                    6.996618
_cell_length_b                    14.313852
_cell_length_c                    15.97917
_cell_angle_alpha                 90.405998
_cell_angle_beta                  90.242861
_cell_angle_gamma                 89.955679
_cell_volume                      1600.23578418

loop_
_atom_site_label
_atom_site_type_symbol
_atom_site_description
_atom_site_fract_x
_atom_site_fract_y
_atom_site_fract_z
_atom_type_partial_charge
O1    O     O_R   0.494320 0.415010 0.412140 -0.571575
O2    O     O_R   0.824010 0.404260 0.587250 -0.533195
O3    O     O_R   0.994320 0.584990 0.587860 -0.594114
C1    C     C_R   0.656129 0.380220 0.614792 0.941424
O4    O     O_R   0.824040 0.403870 0.412760 -0.590391
O5    O     O_R   0.994350 0.584590 0.412130 -0.606207
C2    C     C_R   0.655124 0.382641 0.382805 0.879955
O6    O     O_R   0.494300 0.415410 0.587870 -0.575159
O7    O     O_3   0.660800 0.559290 0.500000 -0.299196
V1    V     V_3+5 0.935650 0.489000 0.500000 1.228049
O8    O     O_R   0.324060 0.595740 0.412750 -0.605481
C3    C     C_R   0.154715 0.617964 0.383618 0.824450
O9    O     O_R   0.324040 0.596130 0.587240 -0.602545
C4    C     C_R   0.155519 0.618341 0.616117 0.918016
V2    V     V_3+5 0.435660 0.511000 0.500000 1.190003
O10   O     O_3   0.160640 0.440710 0.500000 -0.203816
C5    C     C_3   0.056173 0.667831 0.772769 -0.118992
C6    C     C_3   0.228264 0.716453 0.816205 -0.156797
H1    H     H_    0.992708 0.600118 0.791572 0.111218
C7    C     C_3   0.121033 0.810303 0.812034 -0.106601
C8    C     C_3   0.948771 0.762475 0.769371 -0.101198
C9    C     C_3   0.038180 0.782277 0.682720 -0.133757
C10   C     C_3   0.210263 0.830904 0.726161 -0.087855
C11   C     C_3   0.317673 0.736259 0.729554 -0.111386
C12   C     C_3   0.145411 0.688415 0.686893 -0.091893
H2    H     H_    0.796515 0.773472 0.786075 0.109211
H3    H     H_    0.960019 0.809132 0.627268 0.109180
H4    H     H_    0.273688 0.898624 0.707355 0.128661
H5    H     H_    0.469937 0.725284 0.712852 0.111637
C13   C     C_3   0.220860 0.854608 0.264846 -0.342691
H6    H     H_    0.367553 0.878116 0.248482 0.151222
H7    H     H_    0.140032 0.917494 0.285793 0.144234
C14   C     C_3   0.233111 0.783312 0.337808 -0.353218
H8    H     H_    0.158166 0.812130 0.393605 0.138405
H9    H     H_    0.385554 0.773070 0.355723 0.154957
H10   H     H_    0.384725 0.743030 0.141832 0.153779
H11   H     H_    0.402605 0.638155 0.249238 0.147726
C15   C     C_3   0.237632 0.722568 0.160562 -0.358382
C16   C     C_3   0.919293 0.777888 0.213558 -0.348230
C17   C     C_3   0.121800 0.810685 0.186683 0.127416
H12   H     H_    0.844072 0.744841 0.159434 0.147726
C18   C     C_3   0.142688 0.688214 0.312123 0.128857
C19   C     C_3   0.249812 0.651309 0.233559 -0.358685
C20   C     C_3   0.931339 0.707050 0.286056 -0.338183
H13   H     H_    0.849779 0.734767 0.340529 0.152306
H14   H     H_    0.861733 0.640540 0.266137 0.142107
H15   H     H_    0.169069 0.688763 0.105169 0.126982
H16   H     H_    0.187065 0.583448 0.213032 0.127594
C21   C     C_3   0.464701 0.251868 0.680656 -0.371501
H17   H     H_    0.352147 0.303479 0.686736 0.282212
H18   H     H_    0.448727 0.215567 0.619677 0.240313
C22   C     C_3   0.449643 0.180768 0.752700 -0.381704
H19   H     H_    0.326121 0.200259 0.790398 0.286821
H20   H     H_    0.528430 0.406482 0.776170 0.146976
C23   C     C_3   0.652781 0.358072 0.772178 -0.316948
C24   C     C_3   0.811855 0.233155 0.677758 0.179302
C25   C     C_3   0.650597 0.308171 0.684967 -0.136133
H21   H     H_    0.784227 0.192715 0.618889 0.061958
C26   C     C_3   0.627517 0.184755 0.809958 -0.111702
C27   C     C_3   0.638898 0.286658 0.844457 -0.325718
C28   C     C_3   0.800993 0.161917 0.751231 0.186250
H22   H     H_    0.770345 0.092336 0.722141 0.024604
H23   H     H_    0.779199 0.403514 0.781085 0.195376
H24   H     H_    0.758495 0.296736 0.889128 0.193844
C29   C     C_3   0.485065 0.340855 0.246632 -0.319412
H25   H     H_    0.343890 0.348673 0.277288 0.194273
H26   H     H_    0.519046 0.410548 0.220055 0.122437
C30   C     C_3   0.469892 0.268214 0.174431 -0.342824
H27   H     H_    0.488037 0.303903 0.113335 0.130408
H28   H     H_    0.324237 0.237008 0.174633 0.174029
H29   H     H_    0.446645 0.107126 0.267831 0.183815
C31   C     C_3   0.608390 0.211192 0.342944 0.271015
C32   C     C_3   0.834184 0.310542 0.260523 -0.428149
C33   C     C_3   0.643673 0.312787 0.310599 -0.041384
H30   H     H_    0.955354 0.291608 0.302306 0.217387
H31   H     H_    0.865792 0.381083 0.235181 0.154308
C34   C     C_3   0.623454 0.190485 0.184089 0.078589
C35   C     C_3   0.589874 0.140944 0.268556 -0.467835
C36   C     C_3   0.823083 0.238707 0.187651 -0.339993
H32   H     H_    0.851501 0.274569 0.127408 0.150245
H33   H     H_    0.937459 0.185523 0.196459 0.175379
H34   H     H_    0.737275 0.190670 0.379821 0.080891
H35   H     H_    0.696452 0.083846 0.276497 0.129258
O11   O     O_R   0.771990 0.083520 0.910980 -0.537113
O12   O     O_R   0.442180 0.095020 0.086060 -0.601340
O13   O     O_R   0.271950 0.914280 0.086680 -0.600523
C37   C     C_R   0.611673 0.119469 0.113247 0.868102
O14   O     O_R   0.442270 0.094630 0.911580 -0.558188
O15   O     O_R   0.272040 0.913890 0.910940 -0.588298
C38   C     C_R   0.611527 0.115265 0.881497 0.912392
O16   O     O_R   0.771900 0.083910 0.086710 -0.598850
O17   O     O_3   0.605520 0.939610 0.998840 -0.293190
V3    V     V_3+5 0.330640 0.009880 0.998810 1.195070
O18   O     O_R   0.942330 0.902710 0.911540 -0.596445
C39   C     C_R   0.110904 0.880278 0.882864 0.981102
O19   O     O_R   0.942240 0.903100 0.086030 -0.604277
C40   C     C_R   0.111197 0.880924 0.115189 0.826488
V4    V     V_3+5 0.830640 0.987830 0.998780 1.181240
O20   O     O_3   0.105630 0.058150 0.998800 -0.228155
H36   H     H_    0.306424 0.689626 0.871669 0.102358
H37   H     H_    0.832262 0.839092 0.233812 0.149669
H38   H     H_    0.427431 0.109059 0.727130 0.182132
H39   H     H_    0.507876 0.301967 0.881432 0.151623
N1    N     N_R   0.999973 0.274998 0.669440 0.241858
O21   O     O_R   0.053593 0.340763 0.721046 -0.446500
O22   O     O_R   0.090838 0.263075 0.599200 -0.383026
N2    N     N_R   0.982837 0.152507 0.796195 0.252428
O23   O     O_R   0.032743 0.212658 0.853696 -0.413755
O24   O     O_R   0.077350 0.074455 0.789678 -0.454022
N3    N     N_R   0.442294 0.204366 0.398230 0.239933
O25   O     O_R   0.270058 0.218942 0.370257 -0.425417
O26   O     O_R   0.464129 0.169497 0.472502 -0.437250

loop_
_geom_bond_atom_site_label_1
_geom_bond_atom_site_label_2
_geom_bond_distance
_ccdc_geom_bond_type
C13   H7    1.112948 S    
C8    H2    1.110132 S    
H11   C19   1.113172 S    
C37   O16   1.302196 A    
C32   H30   1.111467 S    
C32   C33   1.557761 S    
H20   C23   1.113596 S    
C1    O6    1.311052 A    
N1    O22   1.302385 A    
O17   V4    1.720167 S    
C16   H12   1.113309 S    
C34   C35   1.548001 S    
C20   H13   1.113395 S    
C22   H38   1.112844 S    
O11   C38   1.298702 A    
C6    C11   1.549850 S    
C14   C18   1.553331 S    
C8    C9    1.549846 S    
O13   V3    2.011367 S    
O5    C3    1.304965 A    
C13   H6    1.113132 S    
O18   V4    2.005528 S    
V2    O10   2.172062 S    
V4    O20   2.172074 S    
C21   C25   1.531663 S    
C24   C25   1.560998 S    
O13   C40   1.307191 A    
C11   H5    1.110135 S    
C3    C18   1.529285 S    
C5    H1    1.110311 S    
N3    O25   1.300731 A    
O12   V3    2.001531 S    
C35   H35   1.113474 S    
C30   H27   1.112824 S    
C21   H18   1.106300 S    
C9    C12   1.540027 S    
O19   V4    2.009381 S    
C1    C25   1.529464 S    
C31   C35   1.556504 S    
N2    O23   1.301537 A    
O1    V2    2.000994 S    
C27   H39   1.113507 S    
C19   H16   1.113002 S    
V3    O20   1.718763 S    
C21   C22   1.545936 S    
C34   C36   1.559101 S    
C26   C27   1.557625 S    
O16   V4    2.002770 S    
C23   C27   1.551167 S    
N2    O24   1.301578 A    
O18   C39   1.306169 A    
C18   C20   1.558392 S    
N1    O21   1.301460 A    
C20   H14   1.113516 S    
C16   H37   1.113487 S    
C2    C33   1.523290 S    
O12   C37   1.308286 A    
C31   N3    1.466495 S    
C26   C28   1.570146 S    
C14   H8    1.112860 S    
C11   C12   1.540782 S    
C24   N1    1.453471 S    
C31   C33   1.566872 S    
C17   C40   1.528680 S    
C36   H33   1.113258 S    
C29   H26   1.113227 S    
C6    H36   1.110126 S    
C5    C8    1.549841 S    
C29   C33   1.559864 S    
C23   H23   1.106433 S    
C26   C38   1.525121 S    
O15   C39   1.302798 A    
O2    C1    1.303432 A    
C22   C26   1.542374 S    
C7    C10   1.540414 S    
C10   C11   1.549875 S    
C29   C30   1.550982 S    
O19   C40   1.308486 A    
C5    C6    1.550238 S    
C32   C36   1.549704 S    
C13   C17   1.554935 S    
C24   C28   1.562605 S    
C10   H4    1.110298 S    
C15   H15   1.112835 S    
O3    C4    1.302795 A    
C7    C39   1.507888 S    
O14   C38   1.314572 A    
C29   H25   1.109644 S    
O6    V2    2.008334 S    
O8    V2    2.009470 S    
C9    H3    1.110107 S    
C23   C25   1.561466 S    
C32   H31   1.113246 S    
C18   C19   1.553949 S    
O2    V1    2.014891 S    
C16   C17   1.556068 S    
C22   H19   1.090523 S    
O4    C2    1.308395 A    
O7    V1    2.169630 S    
C30   C34   1.554106 S    
O14   V3    2.014729 S    
C13   C14   1.556900 S    
O1    C2    1.304147 A    
O5    V1    2.011285 S    
O8    C3    1.310943 A    
C16   C20   1.546908 S    
C27   H24   1.106427 S    
C5    C12   1.540420 S    
O9    V2    2.005423 S    
O7    V2    1.720691 S    
O11   V4    2.008547 S    
O4    V1    2.001525 S    
O3    V1    1.999004 S    
V1    O10   1.718751 S    
C15   C17   1.554251 S    
H10   C15   1.113030 S    
O17   V3    2.169684 S    
C14   H9    1.113017 S    
C24   H21   1.117235 S    
C6    C7    1.539865 S    
C4    C12   1.508177 S    
O15   V3    1.999017 S    
C28   H22   1.116660 S    
C28   N2    1.465082 S    
N3    O26   1.299105 A    
C36   H32   1.112882 S    
C15   C19   1.556942 S    
C7    C8    1.540695 S    
C34   C37   1.518076 S    
C30   H28   1.113035 S    
C21   H17   1.083552 S    
C9    C10   1.550254 S    
O9    C4    1.306206 A    
H29   C35   1.113226 S    
C31   H34   1.115453 S    
