data_mof_unit_18330.cif
_audit_creation_date              2012-12-10T18:05:44-0500
_audit_creation_method            fapswitch 2.2
_symmetry_space_group_name_H-M    P1
_symmetry_Int_Tables_number       1
_space_group_crystal_system       triclinic
_cell_length_a                    10.927592
_cell_length_b                    10.823034
_cell_length_c                    9.604129
_cell_angle_alpha                 90.03843
_cell_angle_beta                  91.086872
_cell_angle_gamma                 90.026531
_cell_volume                      1135.67270726

loop_
_atom_site_label
_atom_site_type_symbol
_atom_type_description
_atom_site_fract_x
_atom_site_fract_y
_atom_site_fract_z
_atom_type_partial_charge
C1    C     C_R   0.499970 0.262352 0.499936 0.809808
C2    C     C_R   0.500030 0.737648 0.500064 0.809808
C3    C     C_R   0.871738 0.499614 0.504410 -0.083155
C4    C     C_R   0.128262 0.500386 0.495590 -0.083155
C5    C     C_R   0.942115 0.488130 0.628355 0.052660
C6    C     C_R   0.057885 0.511870 0.371645 0.052660
C7    C     C_R   0.491606 0.063786 0.373638 -0.137307
C8    C     C_R   0.508394 0.936214 0.626362 -0.137307
C9    C     C_R   0.491625 0.935991 0.373683 -0.142026
C10   C     C_R   0.508374 0.064009 0.626317 -0.142026
C11   C     C_R   0.500024 0.871642 0.500050 -0.026217
C12   C     C_R   0.499976 0.128358 0.499950 -0.026217
C13   C     C_R   0.490740 0.392268 0.073564 -0.024216
C14   C     C_R   0.509260 0.607731 0.926436 -0.024216
C15   C     C_R   0.491671 0.392268 0.925872 0.019378
C16   C     C_R   0.508328 0.607732 0.074128 0.019379
C17   C     C_R   0.262330 0.500260 0.498370 0.820180
C18   C     C_R   0.737670 0.499740 0.501630 0.820180
C19   C     C_R   0.197205 0.648187 0.051885 -0.141596
C20   C     C_R   0.802795 0.351813 0.948114 -0.141596
C21   C     C_R   0.146405 0.637372 0.183103 -0.109295
C22   C     C_R   0.853595 0.362628 0.816897 -0.109295
C23   C     C_R   0.110974 0.521236 0.232548 0.006503
C24   C     C_R   0.889026 0.478764 0.767452 0.006503
C25   C     C_R   0.124059 0.415345 0.148683 0.271285
C26   C     C_R   0.875941 0.584655 0.851317 0.271285
C27   C     C_R   0.175240 0.426953 0.016345 0.246583
C28   C     C_R   0.824760 0.573046 0.983655 0.246583
C29   C     C_R   0.212440 0.543424 0.969553 -0.226543
C30   C     C_R   0.787560 0.456576 0.030447 -0.226543
C31   C     C_R   0.931454 0.511808 0.378111 -0.145933
C32   C     C_R   0.068546 0.488192 0.621889 -0.145933
Cu1   Cu    Cu3+1 0.500000 0.500020 0.640660 0.974191
Cu2   Cu    Cu3+1 0.500000 0.499980 0.359340 0.974191
H1    H     H_    0.255004 0.553503 0.869942 0.190968
H2    H     H_    0.744996 0.446497 0.130058 0.190968
H3    H     H_    0.484853 0.305000 0.872010 0.147863
H4    H     H_    0.515146 0.695000 0.127990 0.147863
H5    H     H_    0.226074 0.737662 0.014398 0.172443
H6    H     H_    0.773926 0.262338 0.985602 0.172443
H7    H     H_    0.135522 0.719111 0.246826 0.170174
H8    H     H_    0.864477 0.280889 0.753174 0.170174
H9    H     H_    0.879910 0.521693 0.282746 0.186132
H10   H     H_    0.120090 0.478307 0.717254 0.186132
H11   H     H_    0.484710 0.111616 0.274830 0.151515
H12   H     H_    0.515290 0.888384 0.725170 0.151515
H13   H     H_    0.484696 0.887980 0.274899 0.149991
H14   H     H_    0.515304 0.112019 0.725101 0.149991
H15   H     H_    0.482894 0.305055 0.126914 0.140010
H16   H     H_    0.517106 0.694945 0.873086 0.140010
N1    N     N_R   0.500030 0.500030 0.852070 -0.173846
N2    N     N_R   0.499970 0.499970 0.147930 -0.173846
O1    O     O_R   0.499990 0.319660 0.618740 -0.591522
O2    O     O_R   0.500010 0.680340 0.381260 -0.591522
O3    O     O_R   0.499990 0.319630 0.381170 -0.597238
O4    O     O_R   0.500010 0.680370 0.618830 -0.597239
O5    O     O_R   0.319650 0.500020 0.618780 -0.582379
O6    O     O_R   0.680350 0.499980 0.381220 -0.582379
O7    O     O_R   0.319640 0.500000 0.381210 -0.570865
O8    O     O_R   0.680360 0.500000 0.618790 -0.570865
Br1   Br    Br    0.074282 0.255783 0.216115 -0.450389
Br2   Br    Br    0.925718 0.744217 0.783884 -0.450389
Br3   Br    Br    0.196700 0.285323 0.898796 -0.507157
Br4   Br    Br    0.803300 0.714677 0.101204 -0.507157

loop_
_geom_bond_atom_site_label_1
_geom_bond_atom_site_label_2
_ccdc_geom_bond_type
C17   O5    A    
C13   H15   S    
Cu1   O5    S    
Cu2   O2    S    
C31   H9    S    
C15   N1    A    
Cu1   N1    S    
C13   N2    A    
C29   H1    S    
Cu2   N2    S    
C14   N1    A    
C20   H6    S    
C30   H2    S    
C5    C32   A    
C7    C9    A    
Cu1   O4    S    
C28   C30   A    
C6    C31   A    
C1    O3    A    
Cu2   O3    S    
C20   C30   A    
C3    C31   A    
C9    C11   A    
C22   H8    S    
C1    C12   S    
C27   Br3   S    
C17   O7    A    
C8    C11   A    
C21   H7    S    
C2    C11   S    
C7    H11   S    
C18   O8    A    
C19   C21   A    
Cu1   Cu2   S    
C26   Br2   S    
C9    H13   S    
Cu1   O8    S    
C22   C24   A    
C13   C15   A    
C21   C23   A    
C10   H14   S    
C7    C12   A    
C10   C12   A    
C14   C16   A    
C4    C6    A    
C27   C29   A    
C14   H16   S    
C19   H5    S    
C4    C32   A    
C19   C29   A    
C28   Br4   S    
C23   C25   A    
Cu1   O1    S    
C32   H10   S    
C3    C18   S    
C8    C10   A    
C2    O2    A    
C16   H4    S    
C16   N2    A    
Cu2   O6    S    
C1    O1    A    
C5    C24   S    
C25   Br1   S    
C8    H12   S    
C6    C23   S    
Cu2   O7    S    
C26   C28   A    
C18   O6    A    
C2    O4    A    
C15   H3    S    
C24   C26   A    
C20   C22   A    
C3    C5    A    
C25   C27   A    
C4    C17   S    
