data_mof_unit_8456.cif
_audit_creation_date              2012-12-11T14:36:07-0500
_audit_creation_method            fapswitch 2.2
_symmetry_space_group_name_H-M    P1
_symmetry_Int_Tables_number       1
_space_group_crystal_system       triclinic
_cell_length_a                    13.477324
_cell_length_b                    13.494906
_cell_length_c                    27.504847
_cell_angle_alpha                 90.787416
_cell_angle_beta                  90.054758
_cell_angle_gamma                 60.050591
_cell_volume                      4333.94573337

loop_
_atom_site_label
_atom_site_type_symbol
_atom_type_description
_atom_site_fract_x
_atom_site_fract_y
_atom_site_fract_z
_atom_type_partial_charge
C1    C     C_R   0.620139 0.101391 0.570226 0.545468
C2    C     C_1   0.630239 0.733875 0.616742 -0.005553
C3    C     C_3   0.689087 0.566972 0.768282 -0.056175
C4    C     C_3   0.678327 0.657336 0.805896 0.050004
C5    C     C_3   0.582622 0.660589 0.741878 -0.110269
C6    C     C_3   0.661834 0.686704 0.711243 0.039265
C7    C     C_3   0.572043 0.750555 0.780202 -0.119483
C8    C     C_3   0.651058 0.777174 0.748820 -0.115625
C9    C     C_1   0.687562 0.635609 0.858219 -0.040011
C10   C     C_1   0.648113 0.707628 0.658876 -0.045730
C11   C     C_3   0.091305 0.134872 0.738505 -0.077669
C12   C     C_R   0.599446 0.779937 0.568885 0.546697
C13   C     C_3   0.183028 0.058968 0.776241 -0.151932
C14   C     C_1   0.098510 0.200290 0.902135 0.001603
C15   C     C_1   0.230617 0.137813 0.617813 -0.006251
C16   C     C_3   0.061222 0.240859 0.770525 0.410378
C17   C     C_3   0.151499 0.166021 0.807673 0.054944
C18   C     C_3   0.149938 0.260848 0.743894 -0.073996
C19   C     C_3   0.181526 0.153667 0.712535 0.005313
C20   C     C_3   0.241489 0.184748 0.781478 -0.150797
C21   C     C_3   0.273717 0.077357 0.749325 -0.128160
C22   C     C_1   0.127581 0.180205 0.860060 -0.016322
C23   C     C_R   0.277906 0.121835 0.569761 0.543682
C24   C     C_1   0.203435 0.146407 0.660060 -0.047264
C25   C     C_3   0.612912 0.276388 0.741605 0.272809
C26   C     C_3   0.549197 0.245479 0.779469 -0.097316
C27   C     C_1   0.690731 0.207277 0.903263 -0.007800
C28   C     C_1   0.634749 0.133108 0.618505 -0.002950
C29   C     C_3   0.723902 0.219093 0.771245 -0.092456
C30   C     C_3   0.661213 0.185123 0.808698 0.009602
C31   C     C_3   0.761071 0.105302 0.743039 -0.131159
C32   C     C_3   0.649676 0.165314 0.713499 0.089036
C33   C     C_3   0.699020 0.071476 0.781275 -0.121253
C34   C     C_R   0.622090 0.098893 0.430980 0.547084
C35   C     C_3   0.587269 0.131478 0.751097 -0.136978
C36   C     C_1   0.673293 0.195966 0.861136 -0.050874
C37   C     C_1   0.642734 0.151387 0.660911 -0.010508
C38   C     C_R   0.736609 0.702369 0.360036 -0.136814
C39   C     C_R   0.748835 0.682948 0.309847 0.016960
C40   C     C_R   0.763290 0.661001 0.208147 0.025971
C41   C     C_R   0.852316 0.660786 0.234630 -0.130175
C42   C     C_R   0.844626 0.672791 0.285208 -0.129075
C43   C     C_R   0.772844 0.641605 0.157889 -0.134467
C44   C     C_R   0.684540 0.637247 0.132606 -0.002011
C45   C     C_R   0.602492 0.774880 0.430634 0.545523
C46   C     C_R   0.559249 0.696627 0.358123 -0.088244
C47   C     C_R   0.565559 0.685153 0.307852 0.052399
C48   C     C_R   0.660211 0.680148 0.283484 0.017492
C49   C     C_R   0.475712 0.685349 0.281563 0.251357
C50   C     C_R   0.479631 0.684191 0.230728 -0.131689
C51   C     C_R   0.574028 0.677413 0.206537 -0.021871
C52   C     C_R   0.665616 0.673515 0.232729 0.050574
C53   C     C_R   0.581535 0.666035 0.156438 -0.126172
C54   C     C_R   0.638384 0.715740 0.383630 -0.027785
C55   C     C_R   0.213536 0.056531 0.358312 -0.130857
C56   C     C_R   0.277364 0.120836 0.431234 0.546342
C57   C     C_R   0.185409 0.071251 0.308969 0.013029
C58   C     C_R   0.145296 0.097132 0.208378 0.016106
C59   C     C_R   0.166514 0.995849 0.230974 -0.130964
C60   C     C_R   0.187218 0.982738 0.280932 -0.125465
C61   C     C_R   0.121997 0.112661 0.158612 -0.132875
C62   C     C_R   0.098973 0.215600 0.136949 -0.002898
C63   C     C_R   0.179666 0.251090 0.363805 -0.123316
C64   C     C_R   0.155904 0.265484 0.314538 0.011298
C65   C     C_R   0.160787 0.174606 0.286704 0.061654
C66   C     C_R   0.133979 0.367065 0.292255 -0.116138
C67   C     C_3   0.768163 0.593474 0.736891 -0.056265
C68   C     C_R   0.119476 0.377780 0.242219 -0.122478
C69   C     C_R   0.124098 0.288086 0.214232 0.010407
C70   C     C_R   0.143457 0.186479 0.236411 0.062737
C71   C     C_R   0.105400 0.300422 0.164590 -0.127527
C72   C     C_R   0.216099 0.144600 0.385114 -0.007970
C73   C     C_R   0.568082 0.237151 0.363088 -0.103910
C74   C     C_R   0.572939 0.255821 0.313348 0.020163
C75   C     C_R   0.583290 0.288176 0.212994 -0.047853
C76   C     C_R   0.506823 0.379390 0.243075 -0.092614
C77   C     C_R   0.500494 0.363131 0.292856 0.380875
C78   C     C_3   0.757652 0.683461 0.775335 -0.093506
C79   C     C_R   0.596023 0.304884 0.163803 -0.132214
C80   C     C_R   0.677292 0.213355 0.135048 0.001298
C81   C     C_R   0.722867 0.040829 0.352580 -0.124454
C82   C     C_R   0.725499 0.056308 0.303062 0.016427
C83   C     C_R   0.650339 0.163909 0.283167 0.006636
C84   C     C_R   0.800046 0.964383 0.273033 -0.118017
C85   C     C_R   0.800628 0.978709 0.223174 -0.123119
C86   C     C_R   0.728894 0.086014 0.203131 0.027155
C87   C     C_R   0.653280 0.179246 0.233028 0.044173
C88   C     C_R   0.737161 0.103039 0.154089 -0.125161
C89   C     C_1   0.696845 0.608822 0.900305 -0.005093
C90   C     C_R   0.641651 0.129105 0.382515 -0.021176
C91   C     C_R   0.049509 0.236040 0.949831 0.547809
C92   C     C_R   0.711576 0.562995 0.948192 0.547357
C93   C     C_R   0.722050 0.225323 0.951000 0.546781
C94   C     C_R   0.046921 0.246119 0.088831 0.546067
C95   C     C_R   0.707456 0.575711 0.086221 0.544403
C96   C     C_R   0.718122 0.234252 0.089274 0.546067
Cr1   Cr    Cr6+3 0.417550 0.169090 0.500530 1.043659
Cr2   Cr    Cr6+3 0.669180 0.913420 0.499920 1.027842
Cr3   Cr    Cr6+3 0.413260 0.917540 0.499520 1.038838
Cr4   Cr    Cr6+3 0.909170 0.177380 0.020380 1.023204
Cr5   Cr    Cr6+3 0.912710 0.429210 0.018220 1.026157
Cr6   Cr    Cr6+3 0.657170 0.432570 0.019030 1.021691
H1    H     H_    0.829318 0.693277 0.789702 0.113130
H2    H     H_    0.303648 0.204354 0.799439 0.111696
H3    H     H_    0.134608 0.344383 0.730289 0.116390
H4    H     H_    0.462422 0.303891 0.794533 0.105723
H5    H     H_    0.531401 0.095037 0.742309 0.102516
H6    H     H_    0.734349 0.986376 0.798277 0.115936
H7    H     H_    0.847818 0.047809 0.727726 0.111083
H8    H     H_    0.779002 0.256539 0.779741 0.159764
H9    H     H_    0.851941 0.621147 0.139358 0.117052
H10   H     H_    0.848485 0.528823 0.718586 0.149374
H11   H     H_    0.799031 0.714948 0.379950 0.123911
H12   H     H_    0.927577 0.651568 0.216237 0.093087
H13   H     H_    0.913458 0.674124 0.305046 0.100791
H14   H     H_    0.511713 0.665937 0.136815 0.129898
H15   H     H_    0.410484 0.685358 0.210074 0.080217
H16   H     H_    0.485409 0.703333 0.376860 0.202988
H17   H     H_    0.116954 0.047132 0.137312 0.119989
H18   H     H_    0.240736 0.974432 0.374808 0.142081
H19   H     H_    0.167698 0.926690 0.210007 0.102415
H20   H     H_    0.635431 0.863927 0.740175 0.103661
H21   H     H_    0.204854 0.903475 0.297639 0.144927
H22   H     H_    0.087344 0.380419 0.148291 0.130086
H23   H     H_    0.104128 0.456317 0.225432 0.103941
H24   H     H_    0.130673 0.437104 0.313350 0.126659
H25   H     H_    0.179361 0.320172 0.384564 0.141319
H26   H     H_    0.549097 0.390162 0.148999 0.125293
H27   H     H_    0.505173 0.304852 0.386357 0.184347
H28   H     H_    0.452442 0.463397 0.228118 0.124102
H29   H     H_    0.798309 0.031791 0.131676 0.124914
H30   H     H_    0.491639 0.815259 0.798445 0.107328
H31   H     H_    0.859398 0.906806 0.200492 0.101551
H32   H     H_    0.857793 0.881492 0.288136 0.106525
H33   H     H_    0.779171 0.956639 0.367081 0.135344
H34   H     H_    0.510839 0.650905 0.727556 0.127578
H35   H     H_    0.704842 0.480227 0.776979 0.154596
H36   H     H_    0.197480 0.975901 0.790040 0.113052
H37   H     H_    0.028464 0.116113 0.720642 0.112520
H38   H     H_    0.362206 0.009321 0.739885 0.116845
O1    O     O_R   0.301710 0.195650 0.554160 -0.504197
O2    O     O_R   0.658900 0.818120 0.449760 -0.500783
O3    O     O_R   0.503220 0.801620 0.445520 -0.518214
O4    O     O_R   0.319370 0.022040 0.450020 -0.500258
O5    O     O_3   0.499990 0.000010 0.499990 -0.251379
O6    O     O_R   0.818720 0.150820 0.967160 -0.507109
O7    O     O_R   0.006410 0.181720 0.970200 -0.496104
O8    O     O_R   0.027890 0.334070 0.964920 -0.502153
O9    O     O_R   0.809600 0.521790 0.967960 -0.490709
O10   O     O_R   0.635520 0.542770 0.964420 -0.509909
O11   O     O_R   0.665950 0.325030 0.970100 -0.494848
O12   O     O_R   0.522390 0.158990 0.550460 -0.488983
O13   O     O_R   0.816620 0.158530 0.074540 -0.520824
O14   O     O_R   0.004460 0.188870 0.069750 -0.500394
O15   O     O_R   0.025800 0.341780 0.072300 -0.523999
O16   O     O_R   0.807650 0.528950 0.067500 -0.503344
O17   O     O_R   0.633420 0.550490 0.071810 -0.524243
O18   O     O_R   0.664000 0.332180 0.069640 -0.502093
O19   O     O_3   0.826350 0.346390 0.019210 -0.243145
O20   O     O_R   0.694390 0.003530 0.554040 -0.508258
O21   O     O_R   0.657700 0.819660 0.549320 -0.497167
O22   O     O_R   0.501930 0.803280 0.552920 -0.500891
O23   O     O_R   0.318170 0.023580 0.549580 -0.495219
O24   O     O_R   0.303010 0.193990 0.446760 -0.515217
O25   O     O_R   0.523600 0.157450 0.450900 -0.496772
O26   O     O_R   0.695690 0.001860 0.446640 -0.519005
F1    F     F_    0.951085 0.325719 0.782204 -0.670520
O27   O     O_3   0.568428 0.382973 0.719700 -0.693632
H39   H     H_    0.545993 0.439066 0.746941 0.307064
O28   O     O_3   0.384629 0.688541 0.306071 -0.678693
H40   H     H_    0.330539 0.686527 0.282141 0.330633
F2    F     F_    0.424693 0.452488 0.320998 -0.627899

loop_
_geom_bond_atom_site_label_1
_geom_bond_atom_site_label_2
_ccdc_geom_bond_type
Cr4   O13   S    
C59   H19   S    
C5    H34   S    
C66   C68   A    
C79   H26   S    
Cr5   O8    S    
C40   C41   A    
C61   H17   S    
C50   H15   S    
C73   C74   A    
C96   O18   A    
C41   H12   S    
C43   C44   A    
C2    C12   S    
C26   H4    S    
C91   O7    A    
C81   C82   A    
C7    C8    S    
C47   C49   A    
C85   C86   A    
C67   C78   S    
C11   C19   S    
C20   C21   S    
C93   O11   A    
C5    C6    S    
Cr3   O3    S    
C19   C21   S    
C73   C90   A    
C18   C19   S    
C49   O28   S    
C86   C88   A    
O28   H40   S    
Cr5   O15   S    
Cr4   O7    S    
C65   C70   A    
C17   C20   S    
C46   H16   S    
C1    O12   A    
C95   O16   A    
C41   C42   A    
C69   C71   A    
C11   H37   S    
C12   O21   A    
C68   C69   A    
C76   H28   S    
C44   C53   A    
C40   C43   A    
C31   C32   S    
Cr4   O6    S    
C94   O15   A    
C56   C72   S    
C74   C77   A    
C1    C28   S    
C31   C33   S    
C3    H35   S    
C80   C96   S    
C34   O25   A    
C74   C83   A    
C55   C72   A    
C53   H14   S    
Cr6   O11   S    
C25   C32   S    
C15   C23   S    
Cr3   O5    S    
C59   C60   A    
Cr2   O2    S    
C8    C78   S    
Cr6   O18   S    
C61   C62   A    
C33   H6    S    
C43   H9    S    
C4    C7    S    
Cr6   O17   S    
C91   O8    A    
C81   H33   S    
C39   C42   A    
C23   O23   A    
C55   H18   S    
C25   O27   S    
C25   C29   S    
C73   H27   S    
C51   C52   A    
C32   C35   S    
C71   H22   S    
C76   C77   A    
C9    C89   T    
C5    C7    S    
C38   H11   S    
C86   C87   A    
C16   C17   S    
C57   C60   A    
C6    C8    S    
Cr5   O16   S    
C58   C59   A    
C40   C52   A    
C66   H24   S    
Cr3   O4    S    
C51   C53   A    
C64   C66   A    
Cr6   O19   S    
C60   H21   S    
C75   C76   A    
C34   C90   S    
C4    C78   S    
C29   C30   S    
Cr3   O22   S    
C11   C16   S    
C26   C35   S    
C47   C48   A    
C38   C54   A    
C94   O14   A    
Cr1   O24   S    
C84   H32   S    
C46   C54   A    
C50   C51   A    
C31   H7    S    
C13   C21   S    
C93   O6    A    
C32   C37   S    
C84   C85   A    
C89   C92   S    
Cr1   O1    S    
C7    H30   S    
Cr2   O26   S    
Cr6   O10   S    
Cr3   O23   S    
C81   C90   A    
C75   C87   A    
O27   H39   S    
Cr2   O20   S    
C45   C54   S    
C26   C30   S    
C82   C84   A    
C62   C94   S    
C92   O10   A    
C45   O2    A    
C49   C50   A    
C29   H8    S    
C27   C93   S    
C3    C4    S    
C2    C10   T    
Cr2   O21   S    
Cr4   O14   S    
C46   C47   A    
C15   C24   T    
C30   C33   S    
C78   H1    S    
C95   O17   A    
Cr1   O5    S    
C1    O20   A    
C58   C70   A    
C57   C65   A    
C63   C64   A    
C3    C5    S    
C83   C87   A    
C6    C10   S    
C96   O13   A    
C80   C88   A    
C20   H2    S    
Cr2   O5    S    
C30   C36   S    
C27   C36   T    
C56   O24   A    
C17   C22   S    
C21   H38   S    
C13   C17   S    
C64   C65   A    
C14   C22   T    
C55   C57   A    
C19   C24   S    
C25   C26   S    
C18   H3    S    
C67   H10   S    
C29   C31   S    
C44   C95   S    
C6    C67   S    
C13   H36   S    
C11   C13   S    
Cr4   O19   S    
C8    H20   S    
C38   C39   A    
C3    C67   S    
C28   C37   T    
C58   C61   A    
C77   F2    S    
Cr1   O25   S    
Cr5   O9    S    
C33   C35   S    
Cr1   O12   S    
C62   C71   A    
C18   C20   S    
C69   C70   A    
C14   C91   S    
C35   H5    S    
C12   O22   A    
C79   C80   A    
C56   O4    A    
C42   H13   S    
C48   C52   A    
C63   C72   A    
Cr5   O19   S    
C16   C18   S    
C82   C83   A    
C92   O9    A    
C45   O3    A    
C23   O1    A    
C16   F1    S    
C88   H29   S    
C4    C9    S    
C34   O26   A    
C75   C79   A    
C68   H23   S    
C63   H25   S    
C85   H31   S    
C39   C48   A    
