data_mof_unit_16448.cif
_audit_creation_date              2012-12-11T16:26:31-0500
_audit_creation_method            fapswitch 2.2
_symmetry_space_group_name_H-M    P1
_symmetry_Int_Tables_number       1
_space_group_crystal_system       triclinic
_cell_length_a                    6.945738
_cell_length_b                    17.558019
_cell_length_c                    19.58109
_cell_angle_alpha                 108.01227
_cell_angle_beta                  88.804155
_cell_angle_gamma                 89.919758
_cell_volume                      2270.37425518

loop_
_atom_site_label
_atom_site_type_symbol
_atom_type_description
_atom_site_fract_x
_atom_site_fract_y
_atom_site_fract_z
_atom_type_partial_charge
O1    O     O_R   0.494330 0.415720 0.413720 -0.558367
O2    O     O_R   0.819330 0.430070 0.560210 -0.498498
O3    O     O_R   0.994320 0.584280 0.586280 -0.470940
C1    C     C_R   0.649891 0.414531 0.581484 0.896019
O4    O     O_R   0.823730 0.406300 0.412670 -0.556047
O5    O     O_R   0.998760 0.560340 0.437690 -0.501487
C2    C     C_R   0.657200 0.383256 0.384599 0.766886
O6    O     O_R   0.489890 0.439660 0.562310 -0.524452
O7    O     O_3   0.662340 0.550560 0.508380 -0.326184
V1    V     V_3+5 0.935370 0.490620 0.498450 1.736087
O8    O     O_R   0.328750 0.569930 0.439790 -0.508153
C3    C     C_R   0.159875 0.579150 0.413245 0.773237
O9    O     O_R   0.324340 0.593700 0.587330 -0.559581
C4    C     C_R   0.154245 0.615972 0.616700 0.821224
V2    V     V_3+5 0.435940 0.509380 0.501550 1.684798
O10   O     O_3   0.159100 0.449440 0.491620 -0.375672
H1    H     H_    0.280084 0.886024 0.578593 0.161055
C5    C     C_R   0.126526 0.593568 0.765583 0.368388
C6    C     C_R   0.179235 0.583666 0.831126 -0.155166
C7    C     C_R   0.210263 0.648648 0.890658 -0.198833
C8    C     C_R   0.183811 0.724771 0.886370 -0.140606
C9    C     C_R   0.147963 0.737624 0.819891 0.037045
C10   C     C_R   0.136051 0.671214 0.755532 -0.047847
C11   C     C_R   0.132189 0.816390 0.817864 -0.132358
C12   C     C_R   0.162364 0.832008 0.752424 0.059962
C13   C     C_R   0.167202 0.768073 0.685892 0.034402
C14   C     C_R   0.141845 0.685749 0.686267 -0.175198
C15   C     C_R   0.199614 0.911829 0.753776 -0.215467
C16   C     C_R   0.254195 0.930231 0.692280 0.025216
C17   C     C_R   0.253095 0.870058 0.627196 -0.204811
C18   C     C_R   0.203447 0.791297 0.622675 -0.087558
H2    H     H_    0.178860 0.525587 0.838878 0.154554
H3    H     H_    0.242973 0.639941 0.941589 0.137401
H4    H     H_    0.200072 0.773625 0.935573 0.103604
H5    H     H_    0.195609 0.960661 0.803567 0.146677
C19   C     C_R   0.276434 0.611163 0.302333 -0.190787
C20   C     C_R   0.143702 0.625373 0.360403 -0.151846
C21   C     C_R   0.991876 0.681788 0.364863 0.428495
C22   C     C_R   0.014447 0.739123 0.328340 -0.020527
C23   C     C_R   0.144202 0.723389 0.269474 -0.015794
C24   C     C_R   0.271585 0.657445 0.254773 0.120884
C25   C     C_R   0.901385 0.809496 0.346433 -0.075544
C26   C     C_R   0.896414 0.857157 0.301246 -0.163425
C27   C     C_R   0.010043 0.837183 0.238328 0.095626
C28   C     C_R   0.139924 0.771754 0.223531 0.082138
C29   C     C_R   0.262232 0.753741 0.162171 0.098862
C30   C     C_R   0.391469 0.688749 0.148510 -0.198022
C31   C     C_R   0.396600 0.641253 0.194511 -0.098185
C32   C     C_R   0.996589 0.881838 0.190347 -0.200226
C33   C     C_R   0.115804 0.863819 0.128753 -0.075123
C34   C     C_R   0.251357 0.800716 0.115567 -0.214441
H6    H     H_    0.381106 0.563132 0.293412 0.172608
H7    H     H_    0.813459 0.827033 0.395168 0.155426
H8    H     H_    0.801579 0.909007 0.315053 0.145596
H9    H     H_    0.895838 0.931677 0.201530 0.123331
H10   H     H_    0.345339 0.787363 0.068368 0.117233
H11   H     H_    0.487927 0.674361 0.102002 0.126411
H12   H     H_    0.497828 0.591641 0.182795 0.132893
C35   C     C_R   0.498759 0.201132 0.881019 -0.180962
C36   C     C_R   0.626331 0.135998 0.870487 -0.065776
C37   C     C_R   0.758011 0.117232 0.811945 -0.180288
C38   C     C_R   0.760842 0.162290 0.763687 0.101443
C39   C     C_R   0.633577 0.227900 0.774927 0.050823
C40   C     C_R   0.501392 0.247106 0.833621 0.076506
C41   C     C_R   0.885260 0.141863 0.703304 -0.143597
C42   C     C_R   0.892658 0.188536 0.656926 -0.134661
C43   C     C_R   0.768489 0.254493 0.668084 0.075694
C44   C     C_R   0.634831 0.273020 0.726241 0.062868
C45   C     C_R   0.501209 0.336084 0.735402 0.094789
C46   C     C_R   0.366258 0.352611 0.792490 -0.153829
C47   C     C_R   0.367723 0.309374 0.841691 -0.193127
C48   C     C_R   0.773311 0.301329 0.621476 -0.031788
C49   C     C_R   0.640964 0.364621 0.630383 0.011589
C50   C     C_R   0.504707 0.381275 0.687317 -0.141142
H13   H     H_    0.395576 0.215254 0.925577 0.115938
H14   H     H_    0.854644 0.066340 0.802986 0.133728
H15   H     H_    0.974741 0.088999 0.691201 0.150600
H16   H     H_    0.992950 0.172063 0.611506 0.148937
H17   H     H_    0.878867 0.288005 0.577744 0.140156
H18   H     H_    0.406735 0.431358 0.695890 0.161734
H19   H     H_    0.257932 0.398313 0.798649 0.162419
H20   H     H_    0.261826 0.323683 0.885308 0.131789
H21   H     H_    0.116913 0.205086 0.393090 0.168420
C51   C     C_R   0.918714 0.371900 0.261094 -0.128146
C52   C     C_R   0.044864 0.368217 0.204015 -0.118081
C53   C     C_R   0.029629 0.307221 0.139647 -0.121273
C54   C     C_R   0.887000 0.249803 0.131644 -0.151013
C55   C     C_R   0.760849 0.249607 0.189480 0.064746
C56   C     C_R   0.778064 0.311977 0.256487 0.062270
C57   C     C_R   0.608933 0.193042 0.179443 -0.185709
C58   C     C_R   0.464370 0.206131 0.234958 0.034072
C59   C     C_R   0.506805 0.254755 0.305854 -0.040884
C60   C     C_R   0.653134 0.313891 0.316049 -0.169081
C61   C     C_R   0.276514 0.173504 0.223029 -0.141433
C62   C     C_R   0.147861 0.179782 0.279851 -0.187275
C63   C     C_R   0.208777 0.211155 0.349721 -0.144501
C64   C     C_R   0.392931 0.243505 0.363335 0.417396
H22   H     H_    0.933065 0.423599 0.307619 0.127891
H23   H     H_    0.152337 0.414198 0.209300 0.105474
H24   H     H_    0.124809 0.305862 0.094777 0.109165
H25   H     H_    0.872569 0.208284 0.078374 0.125373
H26   H     H_    0.218328 0.147340 0.170712 0.163578
H27   H     H_    0.004649 0.155111 0.269612 0.155558
O11   O     O_R   0.775200 0.060470 0.937800 -0.544503
O12   O     O_R   0.441110 0.093720 0.087350 -0.550608
O13   O     O_R   0.266330 0.939630 0.062280 -0.537472
C65   C     C_R   0.607083 0.119512 0.113672 0.691660
O14   O     O_R   0.445750 0.069950 0.939820 -0.535629
O15   O     O_R   0.271000 0.915700 0.913700 -0.539982
C66   C     C_R   0.615461 0.085593 0.918724 0.706790
O16   O     O_R   0.770530 0.084400 0.086380 -0.543070
O17   O     O_3   0.602830 0.949510 0.991680 -0.364221
V3    V     V_3+5 0.329710 0.009370 0.001550 1.418813
O18   O     O_R   0.940990 0.906170 0.912570 -0.535853
C67   C     C_R   0.112455 0.883675 0.885800 0.690199
O19   O     O_R   0.936350 0.929940 0.060100 -0.539700
C68   C     C_R   0.105056 0.913729 0.080444 0.701750
V4    V     V_3+5 0.829160 0.990450 0.998310 1.425169
O20   O     O_3   0.105910 0.050480 0.008320 -0.379297
S1    S     S_3+6 0.749997 0.660116 0.384191 -0.011558
O21   O     O_2   0.714568 0.571895 0.352466 -0.369199
O22   O     O_2   0.709404 0.684438 0.463446 -0.314250
O23   O     O_3   0.596962 0.709177 0.346911 -0.521105
H28   H     H_    0.527182 0.748347 0.387241 0.353278
S2    S     S_3+6 0.988875 0.514618 0.712104 -0.086619
O24   O     O_2   0.105651 0.468400 0.647172 -0.354314
O25   O     O_2   0.929614 0.458130 0.752761 -0.379393
O26   O     O_3   0.788875 0.554257 0.689283 -0.529192
H29   H     H_    0.713865 0.576251 0.734772 0.319708
S3    S     S_3+6 0.494093 0.236320 0.443153 -0.045963
O27   O     O_2   0.495590 0.149580 0.439765 -0.327240
O28   O     O_2   0.697483 0.265809 0.452426 -0.385746
O29   O     O_3   0.353951 0.287437 0.513494 -0.516880
H30   H     H_    0.255280 0.249031 0.519146 0.338504
C69   C     C_2   0.304991 0.013255 0.695777 0.723601
O30   O     O_2   0.371161 0.027769 0.642766 -0.544537
O31   O     O_R   0.273115 0.075680 0.759455 -0.681002
H31   H     H_    0.291766 0.129826 0.752249 0.302480
C70   C     C_2   0.167636 0.741181 0.549607 0.728324
O32   O     O_2   0.011361 0.710131 0.536318 -0.508395
O33   O     O_R   0.298888 0.737468 0.493712 -0.654566
H32   H     H_    0.422238 0.767088 0.510919 0.294704

loop_
_geom_bond_atom_site_label_1
_geom_bond_atom_site_label_2
_ccdc_geom_bond_type
C27   C32   A    
O17   V4    S    
C54   C55   A    
C33   C68   S    
C49   C50   A    
O2    C1    A    
C62   C63   A    
C1    O6    A    
O26   H29   S    
O18   C67   A    
C69   O30   D    
C52   C53   A    
S1    O21   D    
C12   C15   A    
O12   C65   A    
C13   C14   A    
C16   C17   A    
O16   V4    S    
O12   V3    S    
C15   C16   A    
C64   S3    S    
C5    C6    A    
C48   H17   S    
C5    S2    S    
O5    C3    A    
C17   C18   A    
V2    O10   S    
O19   C68   A    
C43   C48   A    
C40   C47   A    
C3    C20   S    
C46   H19   S    
V4    O20   S    
V3    O20   S    
O8    V2    S    
C61   C62   A    
C6    C7    A    
C15   H5    S    
C62   H27   S    
C44   C45   A    
S2    O26   S    
C46   C47   A    
O1    V2    S    
C10   C14   A    
C4    C14   S    
C53   H24   S    
O7    V1    S    
C19   H6    S    
S1    O23   S    
O15   V3    S    
C47   H20   S    
C21   S1    S    
C55   C56   A    
C42   C43   A    
C35   C36   A    
C54   H25   S    
O9    C4    A    
H1    C17   S    
C19   C24   A    
C45   C46   A    
C2    C60   S    
C6    H2    S    
O17   V3    S    
S1    O22   D    
C59   C64   A    
C22   C25   A    
O11   V4    S    
C37   H14   S    
C23   C28   A    
C42   H16   S    
C41   H15   S    
O13   V3    S    
C5    C10   A    
O23   H28   S    
C21   C22   A    
C11   C12   A    
C58   C59   A    
O4    C2    A    
C53   C54   A    
C8    H4    S    
C12   C13   A    
C32   H9    S    
C29   C34   A    
C43   C44   A    
C36   C37   A    
O14   V3    S    
S3    O28   D    
C26   C27   A    
O5    V1    S    
C20   C21   A    
C52   H23   S    
C30   H11   S    
C26   H8    S    
C30   C31   A    
C70   O32   D    
C63   C64   A    
C38   C39   A    
C33   C34   A    
C35   C40   A    
C45   C50   A    
C51   C52   A    
C1    C49   S    
O18   V4    S    
O3    C4    A    
C7    H3    S    
C23   C24   A    
C16   C69   S    
C55   C57   A    
C41   C42   A    
O6    V2    S    
O9    V2    S    
O13   C68   A    
S2    O24   D    
C9    C11   A    
S3    O29   S    
C51   C56   A    
C18   C70   S    
O2    V1    S    
C35   H13   S    
C22   C23   A    
C27   C28   A    
C69   O31   S    
C29   C30   A    
C19   C20   A    
C38   C41   A    
O1    C2    A    
C65   O16   A    
C34   H10   S    
C48   C49   A    
C57   C65   S    
O8    C3    A    
O14   C66   A    
C31   H12   S    
O31   H31   S    
C39   C44   A    
C51   H22   S    
S3    O27   D    
O7    V2    S    
O4    V1    S    
C25   H7    S    
O3    V1    S    
V1    O10   S    
O33   H32   S    
C58   C61   A    
O11   C66   A    
C70   O33   S    
C57   C58   A    
O29   H30   S    
H21   C63   S    
C59   C60   A    
C24   C31   A    
O19   V4    S    
C56   C60   A    
C37   C38   A    
C36   C66   S    
O15   C67   A    
C39   C40   A    
C28   C29   A    
C13   C18   A    
C7    C8    A    
C61   H26   S    
C11   C67   S    
C32   C33   A    
C25   C26   A    
S2    O25   D    
C9    C10   A    
C50   H18   S    
C8    C9    A    
