data_mof_unit_31964.cif
_audit_creation_date              2012-12-10T16:58:31-0500
_audit_creation_method            fapswitch 2.2
_symmetry_space_group_name_H-M    P1
_symmetry_Int_Tables_number       1
_space_group_crystal_system       triclinic
_cell_length_a                    7.836541
_cell_length_b                    8.573044
_cell_length_c                    23.413935
_cell_angle_alpha                 92.141898
_cell_angle_beta                  84.869485
_cell_angle_gamma                 93.197446
_cell_volume                      1563.44769708

loop_
_atom_site_label
_atom_site_type_symbol
_atom_type_description
_atom_site_fract_x
_atom_site_fract_y
_atom_site_fract_z
_atom_type_partial_charge
C1    C     C_R   0.544588 0.794126 0.498935 0.882379
C2    C     C_R   0.342777 0.508108 0.302234 -0.157614
C3    C     C_R   0.657862 0.493163 0.757007 -0.168336
C4    C     C_R   0.342136 0.506826 0.242993 -0.168333
C5    C     C_R   0.503490 0.501745 0.791509 0.168671
C6    C     C_R   0.496507 0.498241 0.208491 0.168670
C7    C     C_2   0.565520 0.956755 0.504866 0.298913
C8    C     C_2   0.434480 0.043245 0.495134 0.298916
C9    C     C_R   0.500651 0.500174 0.610531 0.915878
C10   C     C_R   0.499349 0.499825 0.389469 0.915877
C11   C     C_R   0.530199 0.363857 0.116619 0.593312
C12   C     C_R   0.455412 0.205873 0.501065 0.882378
C13   C     C_R   0.469797 0.636128 0.883381 0.593310
C14   C     C_R   0.461020 0.632756 0.122538 0.552438
C15   C     C_R   0.538977 0.367229 0.877462 0.552440
C16   C     C_R   0.461302 0.636198 0.062990 -0.018080
C17   C     C_R   0.538694 0.363787 0.937010 -0.018081
C18   C     C_R   0.498734 0.499523 0.030010 -0.013060
C19   C     C_R   0.501262 0.500463 0.969990 -0.013060
C20   C     C_R   0.533700 0.361926 0.056903 -0.028733
C21   C     C_R   0.466296 0.638059 0.943097 -0.028733
C22   C     C_R   0.425964 0.772497 0.035822 -0.143435
C23   C     C_R   0.347996 0.508923 0.766928 0.708192
C24   C     C_R   0.574032 0.227489 0.964178 -0.143435
C25   C     C_R   0.428486 0.773434 0.976338 -0.157050
C26   C     C_R   0.571509 0.226551 0.023662 -0.157049
C27   C     C_2   0.011084 0.313571 0.462963 1.146934
C28   C     C_2   0.988915 0.686429 0.537037 1.146931
C29   C     C_R   0.652002 0.491064 0.233071 0.708191
C30   C     C_R   0.347167 0.508633 0.707710 -0.284612
C31   C     C_R   0.652831 0.491358 0.292289 -0.284612
C32   C     C_R   0.501834 0.500235 0.672761 -0.127627
C33   C     C_R   0.498165 0.499761 0.327239 -0.127627
C34   C     C_R   0.657221 0.491887 0.697766 -0.157614
F1    F     F_    0.197885 0.515091 0.800477 -0.647833
F2    F     F_    0.802112 0.484892 0.199523 -0.647832
F3    F     F_    0.711465 0.016662 0.526779 -0.611480
F4    F     F_    0.288535 0.983338 0.473221 -0.611480
H1    H     H_    0.396019 0.878536 0.060391 0.198045
H2    H     H_    0.222040 0.512601 0.223776 0.209474
H3    H     H_    0.118886 0.190149 0.395559 0.362150
H4    H     H_    0.881109 0.809849 0.604440 0.362150
H5    H     H_    0.603977 0.121449 0.939609 0.198045
H6    H     H_    0.400195 0.880113 0.956560 0.191929
H7    H     H_    0.599800 0.119872 0.043440 0.191929
H8    H     H_    0.225653 0.514419 0.689379 0.201537
H9    H     H_    0.774345 0.485574 0.310620 0.201538
H10   H     H_    0.778012 0.484481 0.671739 0.218721
H11   H     H_    0.221987 0.515517 0.328262 0.218721
H12   H     H_    0.777957 0.487388 0.776224 0.209474
N1    N     N_R   0.495342 0.498117 0.147799 -0.343562
N2    N     N_R   0.504654 0.501868 0.852200 -0.343562
N3    N     N_2   0.950330 0.457950 0.484560 -0.219967
N4    N     N_2   0.049670 0.542050 0.515440 -0.219967
O1    O     O_R   0.389250 0.738570 0.503790 -0.595076
O2    O     O_2   0.439312 0.767043 0.856494 -0.503518
O3    O     O_2   0.428292 0.762840 0.155054 -0.510838
O4    O     O_2   0.571705 0.237146 0.844946 -0.510837
O5    O     O_2   0.991099 0.199127 0.492844 -0.478951
O6    O     O_R   0.082531 0.299804 0.406331 -0.828024
O7    O     O_2   0.008904 0.800874 0.507156 -0.478950
O8    O     O_R   0.917463 0.700194 0.593669 -0.828022
O9    O     O_R   0.610750 0.261430 0.496210 -0.595077
O10   O     O_R   0.678390 0.711620 0.493890 -0.601048
O11   O     O_R   0.321610 0.288380 0.506110 -0.601048
O12   O     O_R   0.355400 0.513520 0.588790 -0.638607
O13   O     O_R   0.644600 0.486480 0.411210 -0.638606
O14   O     O_R   0.644550 0.486570 0.578900 -0.603901
O15   O     O_R   0.355450 0.513430 0.421100 -0.603904
O16   O     O_2   0.560684 0.232943 0.143506 -0.503517
Zn1   Zn    Zn3+2 0.306930 0.518000 0.506610 1.032775
Zn2   Zn    Zn3+2 0.693070 0.482000 0.493390 1.032776

loop_
_geom_bond_atom_site_label_1
_geom_bond_atom_site_label_2
_ccdc_geom_bond_type
C2    C4    A    
O12   Zn1   S    
C31   C33   A    
C5    N2    S    
N3    N4    D    
C19   C21   A    
C2    H11   S    
C6    N1    S    
C13   N2    A    
C23   C30   A    
H4    O8    S    
C23   F1    S    
C14   N1    A    
C5    C23   A    
C8    C12   S    
O14   Zn2   S    
C13   O2    S    
C28   O7    D    
C27   N3    S    
C1    O1    A    
C11   O16   S    
C13   C21   A    
C7    C8    D    
C29   C31   A    
C31   H9    S    
C10   O13   A    
C30   C32   A    
C29   F2    S    
H3    O6    S    
C20   C26   A    
C22   H1    S    
C2    C33   A    
C4    C6    A    
C17   C19   A    
C3    H12   S    
C24   C26   A    
C18   C19   A    
C10   C33   S    
C18   C20   A    
C27   O6    S    
C8    F4    S    
C7    F3    S    
C24   H5    S    
C15   O4    S    
C14   C16   A    
C11   C20   A    
C9    O14   A    
C17   C24   A    
C11   N1    A    
C28   O8    S    
C14   O3    S    
C9    C32   S    
C10   O15   A    
C3    C5    A    
O15   Zn1   S    
C6    C29   A    
C34   H10   S    
O9    Zn2   S    
C25   H6    S    
C16   C18   A    
O13   Zn2   S    
C12   O11   A    
C15   C17   A    
C12   O9    A    
C28   N4    S    
C9    O12   A    
C21   C25   A    
C27   O5    D    
C3    C34   A    
C1    C7    S    
C15   N2    A    
O11   Zn1   S    
N3    Zn2   S    
C1    O10   A    
C30   H8    S    
O1    Zn1   S    
N4    Zn1   S    
C4    H2    S    
O10   Zn2   S    
C16   C22   A    
C26   H7    S    
C22   C25   A    
C32   C34   A    
