data_mof_unit_26314.cif
_audit_creation_date              2012-12-10T19:10:03-0500
_audit_creation_method            fapswitch 2.2
_symmetry_space_group_name_H-M    P1
_symmetry_Int_Tables_number       1
_space_group_crystal_system       triclinic
_cell_length_a                    10.874311
_cell_length_b                    10.775793
_cell_length_c                    9.57303
_cell_angle_alpha                 90.142196
_cell_angle_beta                  91.33922
_cell_angle_gamma                 90.067621
_cell_volume                      1121.45045914

loop_
_atom_site_label
_atom_site_type_symbol
_atom_type_description
_atom_site_fract_x
_atom_site_fract_y
_atom_site_fract_z
_atom_type_partial_charge
C1    C     C_R   0.503466 0.262528 0.500082 0.874496
C2    C     C_R   0.187393 0.604795 0.964436 -0.159186
C3    C     C_R   0.930665 0.526700 0.380358 -0.220723
C4    C     C_R   0.871805 0.498118 0.504349 -0.054239
C5    C     C_R   0.942515 0.468693 0.625118 0.057234
C6    C     C_R   0.069569 0.467677 0.618190 -0.188096
C7    C     C_R   0.128420 0.496976 0.494243 -0.095120
C8    C     C_R   0.057681 0.525275 0.372717 -0.002006
C9    C     C_R   0.881220 0.542624 0.857740 -0.182711
C10   C     C_R   0.839064 0.521639 0.991817 -0.136814
C11   C     C_R   0.806396 0.402000 0.032679 -0.164370
C12   C     C_R   0.262324 0.499477 0.497983 0.789825
C13   C     C_R   0.813169 0.303379 0.937999 -0.163612
C14   C     C_R   0.854451 0.323785 0.802559 0.416264
C15   C     C_R   0.889567 0.444174 0.762545 0.043332
C16   C     C_R   0.450999 0.064336 0.605867 0.077031
C17   C     C_R   0.512490 0.129068 0.502435 -0.193013
C18   C     C_R   0.588045 0.062880 0.410126 0.299691
C19   C     C_R   0.584759 0.933239 0.410075 -0.227468
C20   C     C_R   0.509196 0.870348 0.503114 -0.134320
C21   C     C_R   0.449865 0.936643 0.606538 0.049691
C22   C     C_3   0.318352 0.930496 0.647368 -0.486155
C23   C     C_R   0.500941 0.737352 0.500345 0.816834
C24   C     C_3   0.319075 0.071542 0.645690 0.236388
C25   C     C_R   0.483279 0.607505 0.073296 0.287449
C26   C     C_R   0.505666 0.392225 0.073860 -0.068534
C27   C     C_R   0.506634 0.392265 0.925769 -0.022860
C28   C     C_R   0.483814 0.607521 0.926299 0.229524
C29   C     C_3   0.562075 0.721155 0.923271 -0.463289
C30   C     C_3   0.560598 0.721712 0.081751 -0.491034
C31   C     C_R   0.737736 0.499121 0.501788 0.829456
C32   C     C_R   0.155829 0.701956 0.053605 -0.137303
C33   C     C_R   0.116885 0.676446 0.188739 -0.154867
C34   C     C_R   0.110025 0.553301 0.235347 0.120830
C35   C     C_R   0.142297 0.456093 0.145527 -0.061504
C36   C     C_R   0.181807 0.482013 0.010855 -0.127843
Cu1   Cu    Cu3+1 0.499990 0.499980 0.640670 0.971840
Cu2   Cu    Cu3+1 0.500010 0.500020 0.359330 0.963701
H1    H     H_    0.216881 0.624809 0.859674 0.146285
H2    H     H_    0.774646 0.385927 0.137242 0.203231
H3    H     H_    0.786241 0.211201 0.969932 0.197897
H4    H     H_    0.639873 0.882000 0.336933 0.171729
H5    H     H_    0.257945 0.889000 0.564333 0.164872
H6    H     H_    0.307978 0.889140 0.752715 0.222301
H7    H     H_    0.258579 0.112836 0.563001 0.120549
H8    H     H_    0.512391 0.304642 0.127598 0.192755
H9    H     H_    0.160642 0.796932 0.017577 0.159752
H10   H     H_    0.515621 0.304819 0.871963 0.197844
H11   H     H_    0.654487 0.703295 0.880359 0.217332
H12   H     H_    0.512447 0.801485 0.876294 0.215693
H13   H     H_    0.652072 0.705115 0.132243 0.199691
H14   H     H_    0.509157 0.801819 0.124518 0.214159
H15   H     H_    0.090477 0.752170 0.256285 0.136849
H16   H     H_    0.135697 0.360556 0.179482 0.144353
H17   H     H_    0.207419 0.406807 0.942395 0.176591
H18   H     H_    0.877340 0.551622 0.288275 0.148672
H19   H     H_    0.122657 0.443740 0.711274 0.170010
H20   H     H_    0.908402 0.635548 0.828247 0.149796
H21   H     H_    0.832701 0.598633 0.063608 0.134509
N1    N     N_R   0.500790 0.500930 0.147930 -0.197615
N2    N     N_R   0.500790 0.500890 0.852020 -0.197410
O1    O     O_R   0.500000 0.319640 0.618810 -0.563036
O2    O     O_R   0.500010 0.319680 0.381230 -0.572494
O3    O     O_R   0.319640 0.499990 0.618790 -0.588044
O4    O     O_R   0.319650 0.500030 0.381210 -0.574195
O5    O     O_R   0.499990 0.680320 0.618770 -0.582605
O6    O     O_R   0.500000 0.680360 0.381190 -0.591205
O7    O     O_R   0.680350 0.499970 0.618790 -0.577818
O8    O     O_R   0.680360 0.500010 0.381210 -0.587060
Cl1   Cl    Cl    0.861949 0.197699 0.685864 -0.594333
Br1   Br    Br    0.698345 0.142712 0.285202 -0.542689
Cl2   Cl    Cl    0.301732 0.138187 0.814768 -0.644885

loop_
_geom_bond_atom_site_label_1
_geom_bond_atom_site_label_2
_ccdc_geom_bond_type
C27   H10   S    
Cu1   N2    S    
C30   H13   S    
Cu2   O4    S    
C19   H4    S    
C16   C21   A    
C25   N1    A    
C11   C13   A    
C12   O4    A    
C3    C8    A    
C1    C17   S    
C22   H5    S    
C20   C23   S    
C32   C33   A    
C20   C21   A    
C19   C20   A    
C13   H3    S    
C10   H21   S    
C9    C15   A    
Cu2   O8    S    
C7    C8    A    
C16   C24   S    
C36   H17   S    
C8    C34   S    
C13   C14   A    
C28   N2    A    
C35   H16   S    
C5    C6    A    
C14   Cl1   S    
C6    H19   S    
C26   C27   A    
C29   C30   S    
Cu2   N1    S    
C24   H7    S    
C1    O2    A    
C23   O5    A    
C2    C32   A    
C28   C29   S    
Cu1   Cu2   S    
C33   C34   A    
Cu1   O1    S    
C6    C7    A    
C29   H12   S    
Cu1   O5    S    
C33   H15   S    
C31   O7    A    
C12   O3    A    
C32   H9    S    
C22   C24   S    
C7    C12   S    
C5    C15   S    
C4    C31   S    
C16   C17   A    
C10   C11   A    
C26   H8    S    
C2    C36   A    
C11   H2    S    
Cu1   O7    S    
C31   O8    A    
Cu1   O3    S    
C18   C19   A    
Cu2   O6    S    
C24   Cl2   S    
C1    O1    A    
C17   C18   A    
C34   C35   A    
C3    H18   S    
C23   O6    A    
C18   Br1   S    
Cu2   O2    S    
C30   H14   S    
C14   C15   A    
C9    H20   S    
C29   H11   S    
C25   C30   S    
C21   C22   S    
C26   N1    A    
C2    H1    S    
C22   H6    S    
C3    C4    A    
C9    C10   A    
C4    C5    A    
C25   C28   A    
C35   C36   A    
C27   N2    A    
