data_mof_unit_7657.cif
_audit_creation_date              2012-12-10T20:38:16-0500
_audit_creation_method            fapswitch 2.2
_symmetry_space_group_name_H-M    P1
_symmetry_Int_Tables_number       1
_space_group_crystal_system       triclinic
_cell_length_a                    9.922949
_cell_length_b                    10.742339
_cell_length_c                    16.747714
_cell_angle_alpha                 90.988916
_cell_angle_beta                  83.239456
_cell_angle_gamma                 90.094943
_cell_volume                      1772.55674211

loop_
_atom_site_label
_atom_site_type_symbol
_atom_type_description
_atom_site_fract_x
_atom_site_fract_y
_atom_site_fract_z
_atom_type_partial_charge
C1    C     C_R   0.501517 0.739414 0.495056 0.898532
C2    C     C_R   0.541357 0.519737 0.261274 -0.215363
C3    C     C_R   0.381255 0.935289 0.504018 0.090507
C4    C     C_R   0.478936 0.502562 0.652712 0.967629
C5    C     C_R   0.504471 0.871824 0.490002 -0.218743
C6    C     C_R   0.628784 0.938263 0.482121 0.419649
C7    C     C_R   0.625751 0.065680 0.492358 -0.202096
C8    C     C_R   0.501413 0.128461 0.501584 -0.185868
C9    C     C_R   0.379951 0.062871 0.508759 0.153332
C10   C     C_3   0.265846 0.073633 0.458623 -0.475666
C11   C     C_3   0.267255 0.933347 0.452675 -0.414094
C12   C     C_R   0.407128 0.628273 0.776258 0.364103
C13   C     C_R   0.916225 0.541464 0.565821 0.172775
C14   C     C_R   0.940533 0.443828 0.438934 0.096954
C15   C     C_R   0.083975 0.442272 0.439721 0.467037
C16   C     C_R   0.500139 0.260398 0.499979 0.913593
C17   C     C_R   0.057974 0.540771 0.565958 0.043369
C18   C     C_3   0.057969 0.665482 0.605956 -0.407519
C19   C     C_3   0.904869 0.668081 0.604254 0.212809
C20   C     C_R   0.521191 0.500605 0.347115 0.912219
C21   C     C_R   0.461339 0.516573 0.739094 -0.251509
C22   C     C_R   0.507957 0.420377 0.784508 0.293365
C23   C     C_R   0.517096 0.656102 0.151301 -0.392032
C24   C     C_R   0.498933 0.435338 0.868735 0.404695
C25   C     C_R   0.455714 0.550193 0.903644 -0.040269
C26   C     C_R   0.405712 0.643443 0.858685 -0.213349
C27   C     C_3   0.754013 0.388748 0.073235 -0.671232
C28   C     C_3   0.882402 0.382692 0.369186 -0.640617
C29   C     C_R   0.488078 0.628802 0.232397 0.447688
C30   C     C_R   0.627984 0.440159 0.210134 0.331967
C31   C     C_R   0.660279 0.471122 0.128995 0.164750
C32   C     C_R   0.598666 0.576509 0.099459 0.010604
C33   C     C_2   0.470289 0.575788 0.987398 -0.241526
C34   C     C_2   0.593311 0.589647 0.013310 0.501591
H1    H     H_    0.721350 0.115591 0.486074 0.195812
H2    H     H_    0.471348 0.736926 0.127403 0.162588
H3    H     H_    0.379143 0.568212 0.029963 0.154227
H4    H     H_    0.631455 0.279128 0.776803 0.353368
H5    H     H_    0.841299 0.444377 0.045857 0.250894
H6    H     H_    0.796238 0.310076 0.104361 0.261618
H7    H     H_    0.698730 0.348859 0.025059 0.271715
H8    H     H_    0.742902 0.823214 0.416056 0.348752
H9    H     H_    0.792776 0.326229 0.390275 0.240752
H10   H     H_    0.857860 0.455035 0.326766 0.253060
H11   H     H_    0.954151 0.316868 0.334820 0.249143
H12   H     H_    0.172394 0.111972 0.493503 0.220287
H13   H     H_    0.235983 0.340408 0.401234 0.360459
H14   H     H_    0.380544 0.779833 0.254680 0.329988
H15   H     H_    0.739235 0.686892 0.676201 0.349593
H16   H     H_    0.624696 0.305232 0.287295 0.320062
H17   H     H_    0.694161 0.622364 0.908179 0.355053
H18   H     H_    0.379380 0.712180 0.676326 0.328099
H19   H     H_    0.515979 0.259943 0.892118 0.346246
H20   H     H_    0.296554 0.118574 0.399955 0.203619
H21   H     H_    0.173070 0.891524 0.482933 0.207582
H22   H     H_    0.298659 0.897065 0.390727 0.229816
H23   H     H_    0.089420 0.660174 0.667387 0.254349
H24   H     H_    0.113125 0.735878 0.567257 0.165255
H25   H     H_    0.869725 0.741562 0.565384 0.158079
H26   H     H_    0.370690 0.730661 0.887391 0.200334
N1    N     N_R   0.857140 0.500860 0.500530 -0.166660
N2    N     N_R   0.142780 0.500820 0.500530 -0.169325
O1    O     O_R   0.385310 0.683210 0.499990 -0.605579
O2    O     O_3   0.753537 0.883757 0.460226 -0.770449
O3    O     O_3   0.162094 0.382098 0.377721 -0.760614
O4    O     O_3   0.408670 0.707335 0.284651 -0.761361
O5    O     O_3   0.834645 0.664867 0.681860 -0.709353
O6    O     O_3   0.678832 0.330422 0.236727 -0.773392
O7    O     O_3   0.713732 0.600285 0.962812 -0.739196
O8    O     O_3   0.361930 0.727421 0.734946 -0.745693
O9    O     O_3   0.531320 0.341249 0.918314 -0.771398
O10   O     O_R   0.614650 0.683240 0.500000 -0.623237
O11   O     O_R   0.371780 0.500000 0.615800 -0.619867
O12   O     O_R   0.601120 0.500040 0.615800 -0.578219
O13   O     O_R   0.385350 0.316760 0.500000 -0.646985
O14   O     O_R   0.614690 0.316790 0.500010 -0.626379
O15   O     O_R   0.398880 0.499960 0.384200 -0.549996
O16   O     O_R   0.628220 0.500000 0.384200 -0.643684
O17   O     O_3   0.564194 0.315551 0.744680 -0.749224
Zn1   Zn    Zn3+2 0.346870 0.499980 0.499990 0.981879
Zn2   Zn    Zn3+2 0.653130 0.500020 0.500010 0.960701

loop_
_geom_bond_atom_site_label_1
_geom_bond_atom_site_label_2
_ccdc_geom_bond_type
C16   O13   A    
C7    C8    A    
C20   O15   A    
C2    C29   A    
C1    C5    S    
C23   C29   A    
N2    Zn1   S    
C22   O17   S    
C30   C31   A    
H4    O17   S    
C15   O3    S    
C18   C19   S    
C6    O2    S    
C15   N2    A    
C27   H5    S    
C8    C9    A    
C10   H12   S    
C19   O5    S    
C9    C10   S    
C4    O12   A    
O10   Zn2   S    
C8    C16   S    
C21   C22   A    
C1    O1    A    
C18   H24   S    
C33   C34   D    
O1    Zn1   S    
C28   H11   S    
C1    O10   A    
C13   C19   S    
C27   C31   S    
C3    C11   S    
C24   C25   A    
C19   H25   S    
C25   C26   A    
C14   N1    A    
C2    C20   S    
C12   C21   A    
C28   H10   S    
C33   H3    S    
C12   C26   A    
C32   C34   S    
C3    C9    A    
C17   N2    A    
C27   H7    S    
C18   H23   S    
C31   C32   A    
C27   H6    S    
C17   C18   S    
C34   O7    S    
C4    O11   A    
C22   C24   A    
O12   Zn2   S    
H19   O9    S    
H8    O2    S    
C11   H21   S    
O13   Zn1   S    
O15   Zn1   S    
C12   O8    S    
H15   O5    S    
C16   O14   A    
C7    H1    S    
C3    C5    A    
O14   Zn2   S    
C6    C7    A    
C20   O16   A    
C28   H9    S    
C13   C17   A    
C2    C30   A    
C14   C28   S    
C23   C32   A    
N1    Zn2   S    
C4    C21   S    
O16   Zn2   S    
C5    C6    A    
C26   H26   S    
O11   Zn1   S    
C10   H20   S    
H18   O8    S    
C10   C11   S    
C29   O4    S    
C13   N1    A    
C23   H2    S    
C14   C15   A    
H17   O7    S    
H14   O4    S    
H16   O6    S    
H13   O3    S    
C30   O6    S    
C11   H22   S    
C24   O9    S    
C25   C33   S    
