data_mof_unit_14435.cif
_audit_creation_date              2012-12-10T17:21:15-0500
_audit_creation_method            fapswitch 2.2
_symmetry_space_group_name_H-M    P1
_symmetry_Int_Tables_number       1
_space_group_crystal_system       triclinic
_cell_length_a                    9.585462
_cell_length_b                    10.842681
_cell_length_c                    13.88178
_cell_angle_alpha                 92.300347
_cell_angle_beta                  84.759689
_cell_angle_gamma                 89.33006
_cell_volume                      1435.40364244

loop_
_atom_site_label
_atom_site_type_symbol
_atom_type_description
_atom_site_fract_x
_atom_site_fract_y
_atom_site_fract_z
_atom_type_partial_charge
C1    C     C_R   0.498728 0.737899 0.495335 0.791680
C2    C     C_1   0.462689 0.499984 0.786123 -0.199857
C3    C     C_R   0.232803 0.892439 0.486438 -0.171449
C4    C     C_R   0.108713 0.956771 0.516374 -0.257224
C5    C     C_R   0.113005 0.069148 0.567450 -0.195281
C6    C     C_R   0.241605 0.123264 0.581072 0.520796
C7    C     C_R   0.368022 0.066791 0.536440 -0.021971
C8    C     C_R   0.364635 0.941803 0.504866 0.042357
C9    C     C_R   0.493447 0.873128 0.492833 -0.089492
C10   C     C_R   0.620706 0.935634 0.490503 -0.207088
C11   C     C_R   0.621945 0.062910 0.499139 -0.226517
C12   C     C_R   0.477156 0.500412 0.682920 0.849492
C13   C     C_R   0.496458 0.129911 0.519838 -0.107180
C14   C     C_R   0.874339 0.333547 0.373699 -0.154368
C15   C     C_R   0.955422 0.250688 0.313001 -0.218188
C16   C     C_R   0.099142 0.250609 0.312741 -0.187542
C17   C     C_R   0.162630 0.333366 0.373182 -0.118955
C18   C     C_R   0.083989 0.417880 0.437949 0.220289
C19   C     C_R   0.934311 0.417931 0.438065 0.204669
C20   C     C_R   0.917297 0.578307 0.558802 -0.065563
C21   C     C_R   0.065265 0.578246 0.558801 -0.061141
C22   C     C_R   0.499072 0.263352 0.508694 0.814804
C23   C     C_R   0.522764 0.499568 0.317092 0.786895
C24   C     C_1   0.536083 0.498973 0.213874 -0.157441
C25   C     C_2   0.550690 0.498234 0.023215 -0.259052
C26   C     C_2   0.433142 0.498640 0.977923 0.535294
C27   C     C_1   0.449158 0.499354 0.873008 -0.159483
C28   C     C_1   0.544665 0.498533 0.126992 0.076888
Cu1   Cu    Cu3+1 0.359340 0.500010 0.500010 0.962570
Cu2   Cu    Cu3+1 0.640660 0.499990 0.499990 0.931696
H1    H     H_    0.765483 0.327558 0.366369 0.199599
H2    H     H_    0.906138 0.186841 0.265084 0.151657
H3    H     H_    0.162355 0.186696 0.264598 0.153353
H4    H     H_    0.273561 0.326981 0.365096 0.189753
H5    H     H_    0.113442 0.642455 0.606897 0.138118
H6    H     H_    0.653105 0.498005 0.982467 0.111500
H7    H     H_    0.720210 0.886325 0.479474 0.159840
H8    H     H_    0.222611 0.807440 0.444846 0.183521
H9    H     H_    0.008816 0.917331 0.502636 0.156671
H10   H     H_    0.016239 0.114582 0.596745 0.156108
H11   H     H_    0.721718 0.108778 0.488903 0.168917
H12   H     H_    0.854847 0.642547 0.606954 0.137052
N1    N     N_R   0.852210 0.498790 0.499090 -0.196461
N2    N     N_R   0.148080 0.498710 0.499060 -0.189478
O1    O     O_R   0.381190 0.680360 0.500010 -0.597261
O2    O     O_R   0.618760 0.680340 0.500000 -0.582737
O3    O     O_R   0.364420 0.499990 0.637850 -0.544907
O4    O     O_R   0.601990 0.499960 0.637840 -0.576752
O5    O     O_R   0.381240 0.319660 0.500000 -0.558713
O6    O     O_R   0.618810 0.319640 0.499990 -0.614261
O7    O     O_R   0.398010 0.500040 0.362160 -0.589000
O8    O     O_R   0.635580 0.500010 0.362150 -0.592910
O9    O     O_3   0.303533 0.499207 0.033375 -0.564660
C29   C     C_3   0.189025 0.497263 0.976325 -0.290476
H13   H     H_    0.190896 0.411670 0.929299 0.156099
H14   H     H_    0.186724 0.580939 0.932631 0.164594
H15   H     H_    0.090753 0.497601 0.025198 0.186258
O10   O     O_3   0.240450 0.228680 0.640733 -0.557834
C30   C     C_3   0.293415 0.198710 0.728492 -0.336455
H16   H     H_    0.407627 0.177366 0.717759 0.154542
H17   H     H_    0.235966 0.120637 0.762742 0.153917
H18   H     H_    0.278461 0.279923 0.779623 0.190769

loop_
_geom_bond_atom_site_label_1
_geom_bond_atom_site_label_2
_ccdc_geom_bond_type
C7    C13   A    
C20   H12   S    
C23   C24   S    
Cu1   Cu2   S    
C21   H5    S    
C18   N2    A    
C16   H3    S    
C21   N2    A    
C9    C10   A    
C6    O10   S    
C23   O7    A    
C4    H9    S    
C22   O6    A    
C14   H1    S    
C12   O4    A    
C2    C12   S    
C17   C18   A    
C23   O8    A    
C30   H16   S    
Cu1   O5    S    
O9    C29   S    
C25   C28   S    
C11   C13   A    
C1    O1    A    
C26   C27   S    
C2    C27   T    
Cu1   O3    S    
C22   O5    A    
C4    C5    A    
Cu2   O4    S    
C19   N1    A    
C13   C22   S    
C11   H11   S    
C6    C7    A    
C10   C11   A    
C12   O3    A    
Cu1   N2    S    
Cu2   O6    S    
C5    C6    A    
Cu2   N1    S    
C29   H14   S    
C1    O2    A    
C30   H17   S    
C17   H4    S    
C25   H6    S    
C15   C16   A    
C26   O9    S    
C24   C28   T    
C7    C8    A    
C20   N1    A    
C1    C9    S    
C20   C21   A    
C10   H7    S    
C3    C8    A    
Cu1   O7    S    
C5    H10   S    
C18   C19   A    
Cu2   O8    S    
C29   H13   S    
C16   C17   A    
C30   H18   S    
C25   C26   D    
C14   C15   A    
O10   C30   S    
C14   C19   A    
Cu2   O2    S    
C3    C4    A    
C3    H8    S    
Cu1   O1    S    
C8    C9    A    
C29   H15   S    
C15   H2    S    
