data_mof_unit_50214.cif
_audit_creation_date              2012-12-11T17:10:32-0500
_audit_creation_method            fapswitch 2.2
_symmetry_space_group_name_H-M    P1
_symmetry_Int_Tables_number       1
_space_group_crystal_system       triclinic
_cell_length_a                    14.782258
_cell_length_b                    14.904184
_cell_length_c                    14.95579
_cell_angle_alpha                 109.689787
_cell_angle_beta                  110.145415
_cell_angle_gamma                 108.75153
_cell_volume                      2530.78562777

loop_
_atom_site_label
_atom_site_type_symbol
_atom_type_description
_atom_site_fract_x
_atom_site_fract_y
_atom_site_fract_z
_atom_type_partial_charge
C1    C     C_R   0.185297 0.278363 0.253899 -0.147798
C2    C     C_R   0.403584 0.494564 0.194385 -0.147253
C3    C     C_R   0.561856 0.815462 0.592100 -0.130378
C4    C     C_R   0.526812 0.433759 0.747224 -0.144632
C5    C     C_R   0.722487 0.481571 0.410110 -0.035357
C6    C     C_R   0.545247 0.825929 0.499443 0.053173
C7    C     C_R   0.826036 0.561994 0.503162 0.008733
C8    C     C_R   0.429486 0.427773 0.130033 -0.034988
C9    C     C_R   0.802335 0.802703 0.868863 0.078837
C10   C     C_R   0.006277 0.500428 0.125129 -0.116596
C11   C     C_R   0.038215 0.553001 0.236594 -0.207528
C12   C     C_R   0.453999 0.452645 0.778359 0.066757
C13   C     C_R   0.984041 0.497409 0.277984 0.054691
C14   C     C_R   0.893689 0.388522 0.204584 0.177672
C15   C     C_R   0.860423 0.338637 0.092217 -0.213462
C16   C     C_R   0.509241 0.203336 0.408942 -0.121383
C17   C     C_R   0.917439 0.393719 0.053159 -0.100609
C18   C     C_R   0.923754 0.573797 0.401117 -0.200956
C19   C     C_R   0.929168 0.613821 0.502461 0.042063
C20   C     C_R   0.034318 0.678568 0.599105 0.038061
C21   C     C_R   0.123252 0.669165 0.592159 -0.241837
C22   C     C_R   0.108435 0.598995 0.490965 0.052364
C23   C     C_R   0.571408 0.200295 0.499627 0.052660
C24   C     C_R   0.009321 0.559539 0.392493 0.070787
C25   C     C_R   0.005207 0.827409 0.703441 -0.145063
C26   C     C_R   0.027226 0.908203 0.802123 -0.101348
C27   C     C_R   0.098765 0.923679 0.902708 -0.087381
C28   C     C_R   0.287673 0.594031 0.587931 -0.125209
C29   C     C_R   0.146617 0.856878 0.904863 -0.118745
C30   C     C_R   0.124727 0.775732 0.806340 -0.174649
C31   C     C_R   0.054304 0.760665 0.704444 0.112950
C32   C     C_R   0.473848 0.367791 0.893255 0.159689
C33   C     C_R   0.415566 0.408541 0.839263 0.040606
C34   C     C_R   0.192182 0.563378 0.494139 0.067305
C35   C     C_R   0.333922 0.422274 0.860684 -0.205601
C36   C     C_R   0.327670 0.416119 0.950073 -0.184011
C37   C     C_R   0.403100 0.396269 0.017151 0.040731
C38   C     C_R   0.468308 0.362759 0.981143 0.116025
C39   C     C_3   0.589394 0.399450 0.043982 -0.503856
C40   C     C_R   0.597983 0.291767 0.591230 -0.143902
C41   C     C_3   0.595662 0.404988 0.947586 -0.498577
C42   C     C_R   0.553597 0.929853 0.399007 0.028654
C43   C     C_R   0.590743 0.927728 0.497700 0.037271
C44   C     C_R   0.662817 0.029244 0.596747 -0.187431
C45   C     C_R   0.473003 0.721851 0.407761 -0.109578
C46   C     C_R   0.671484 0.125776 0.597165 -0.204556
C47   C     C_R   0.609720 0.120859 0.498125 0.063871
C48   C     C_R   0.567408 0.025985 0.399158 0.137783
C49   C     C_3   0.464190 0.966753 0.288989 -0.603141
C50   C     C_3   0.446438 0.861446 0.290326 0.011132
C51   C     C_R   0.967272 0.071653 0.125429 0.165642
C52   C     C_R   0.197665 0.501410 0.405809 -0.170201
C53   C     C_R   0.068416 0.073259 0.169685 0.035449
C54   C     C_R   0.065608 0.971699 0.140711 -0.221041
C55   C     C_R   0.970757 0.875965 0.048049 -0.201009
C56   C     C_R   0.815090 0.569961 0.593732 -0.139648
C57   C     C_R   0.879083 0.882486 0.986159 0.027072
C58   C     C_R   0.873557 0.977292 0.035201 0.169802
C59   C     C_3   0.833333 0.039648 0.987244 -0.543040
C60   C     C_3   0.935962 0.142508 0.085321 -0.523140
C61   C     C_R   0.436751 0.529018 0.752189 -0.125511
C62   C     C_R   0.276747 0.184956 0.249423 -0.115984
C63   C     C_R   0.173058 0.174687 0.224460 0.051391
C64   C     C_2   0.481837 0.286608 0.149250 0.417396
C65   C     C_3   0.890573 0.308130 0.322910 -0.908177
C66   C     C_3   0.245165 0.754224 0.196864 -0.957572
C67   C     C_R   0.486115 0.394027 0.193179 -0.014414
C68   C     C_R   0.707253 0.798925 0.804025 -0.164688
C69   C     C_R   0.801627 0.709836 0.805322 -0.118770
H1    H     H_    0.123317 0.301806 0.251147 0.116175
H2    H     H_    0.105089 0.636998 0.291230 0.133005
H3    H     H_    0.555539 0.376684 0.751843 0.109347
H4    H     H_    0.790514 0.256382 0.034891 0.121054
H5    H     H_    0.847575 0.540686 0.326087 0.117652
H6    H     H_    0.202991 0.714626 0.666762 0.121174
H7    H     H_    0.950958 0.817853 0.626302 0.115376
H8    H     H_    0.989558 0.959505 0.800668 0.111194
H9    H     H_    0.117217 0.987634 0.978933 0.122528
H10   H     H_    0.201191 0.868388 0.982987 0.109968
H11   H     H_    0.162377 0.724609 0.809733 0.108256
H12   H     H_    0.878217 0.621245 0.679522 0.123644
H13   H     H_    0.283655 0.448941 0.816747 0.127738
H14   H     H_    0.492877 0.158813 0.326389 0.154142
H15   H     H_    0.272633 0.438018 0.972840 0.122791
H16   H     H_    0.637502 0.481104 0.120274 0.198138
H17   H     H_    0.605127 0.334657 0.054684 0.187435
H18   H     H_    0.647985 0.490048 0.968613 0.203413
H19   H     H_    0.614080 0.342996 0.903540 0.185435
H20   H     H_    0.701373 0.033603 0.675173 0.120604
H21   H     H_    0.714486 0.199879 0.675990 0.119766
H22   H     H_    0.398564 0.986905 0.291207 0.196769
H23   H     H_    0.669896 0.845406 0.831570 0.105360
H24   H     H_    0.482853 0.971196 0.224182 0.194499
H25   H     H_    0.319332 0.653806 0.671983 0.082622
H26   H     H_    0.449603 0.802055 0.223900 0.128793
H27   H     H_    0.139927 0.967508 0.178484 0.130077
H28   H     H_    0.975717 0.801803 0.017946 0.132060
H29   H     H_    0.832435 0.024216 0.908713 0.198686
H30   H     H_    0.756017 0.033822 0.986126 0.191809
H31   H     H_    0.992271 0.184719 0.061388 0.203299
H32   H     H_    0.918018 0.195340 0.140935 0.215460
H33   H     H_    0.659349 0.324522 0.675695 0.086955
H34   H     H_    0.854337 0.677925 0.834505 0.088371
H35   H     H_    0.148280 0.474309 0.320598 0.123440
H36   H     H_    0.384630 0.562589 0.765106 0.094228
H37   H     H_    0.298892 0.121307 0.238565 0.094346
H38   H     H_    0.445862 0.698207 0.322765 0.112621
H39   H     H_    0.436550 0.230042 0.061203 0.026292
H40   H     H_    0.752442 0.267846 0.181480 0.175041
H41   H     H_    0.852943 0.218070 0.288825 0.241403
H42   H     H_    0.884071 0.344630 0.396926 0.268210
H43   H     H_    0.979654 0.341760 0.348008 0.245506
H44   H     H_    0.349261 0.866403 0.365284 0.194024
H45   H     H_    0.345575 0.521779 0.165996 0.101736
H46   H     H_    0.175944 0.731291 0.213064 0.243124
H47   H     H_    0.238300 0.678826 0.138958 0.248151
H48   H     H_    0.237718 0.805507 0.158367 0.254167
H49   H     H_    0.614014 0.879390 0.677601 0.093708
H50   H     H_    0.699294 0.453553 0.325064 0.115184
H51   H     H_    0.891956 0.353944 0.966628 0.106586
H52   H     H_    0.048859 0.542598 0.093491 0.119036
N1    N     N_R   0.291070 0.347930 0.293870 -0.044775
N2    N     N_R   0.497240 0.291100 0.443210 -0.033457
N3    N     N_R   0.347890 0.554050 0.556810 -0.038684
N4    N     N_R   0.554050 0.347900 0.556830 -0.043175
N5    N     N_R   0.291070 0.497250 0.443190 -0.038382
N6    N     N_R   0.497240 0.554030 0.706140 -0.040407
N7    N     N_R   0.347890 0.291110 0.293870 -0.032090
N8    N     N_R   0.445950 0.652100 0.443170 -0.042304
N9    N     N_2   0.831764 0.331249 0.241528 -0.115831
N10   N     N_2   0.349557 0.814136 0.299344 -0.090677
N11   N     N_R   0.708930 0.502750 0.556810 -0.049763
N12   N     N_R   0.502760 0.445970 0.293860 -0.047732
N13   N     N_R   0.652110 0.708890 0.706130 -0.039337
N14   N     N_R   0.708930 0.652070 0.706130 -0.043245
N15   N     N_R   0.445950 0.502780 0.293850 -0.052599
N16   N     N_R   0.502760 0.708900 0.556790 -0.041124
N17   N     N_R   0.652110 0.445950 0.443190 -0.020672
N18   N     N_R   0.554050 0.497220 0.706150 -0.041787
Ni1   Ni    Ni4+2 0.369690 0.500010 0.369700 0.210492
Ni2   Ni    Ni4+2 0.630310 0.499990 0.630300 0.205554
Ni3   Ni    Ni4+2 0.500000 0.369720 0.369720 0.274487
Ni4   Ni    Ni4+2 0.500000 0.630280 0.630280 0.204346
O1    O     O_2   0.526223 0.258380 0.211180 -0.618789

loop_
_geom_bond_atom_site_label_1
_geom_bond_atom_site_label_2
_ccdc_geom_bond_type
C25   C31   A    
C45   N8    A    
C6    C45   A    
C27   C29   A    
C53   C63   S    
C35   C36   A    
N15   Ni1   S    
C10   H52   S    
C65   N9    S    
C5    N17   A    
C39   C41   S    
C53   C54   A    
N5    Ni1   S    
C26   C27   A    
C37   C38   A    
C66   H47   S    
C5    H50   S    
C18   C24   A    
C36   C37   A    
C67   N12   A    
C16   N2    A    
C9    C69   A    
C30   C31   A    
C11   H2    S    
C50   H26   S    
N2    N4    A    
C10   C17   A    
N11   N17   A    
C23   C40   A    
C59   H30   S    
C28   H25   S    
C18   C19   A    
C1    N1    A    
C65   H42   S    
C17   H51   S    
C33   C35   A    
N13   Ni4   S    
C46   C47   A    
C19   C20   A    
N4    Ni2   S    
C66   H48   S    
N12   N15   A    
C32   C41   S    
N3    Ni4   S    
C3    N16   A    
C32   C38   A    
C4    C12   A    
C61   H36   S    
C54   H27   S    
C30   H11   S    
C3    C6    A    
N16   Ni4   S    
C28   C34   A    
C59   C60   S    
C18   H5    S    
C21   C22   A    
N6    N18   A    
C7    C56   A    
C49   H22   S    
C41   H18   S    
C1    C63   A    
C35   H13   S    
C44   C46   A    
C64   H39   S    
C69   H34   S    
C22   C34   S    
C26   H8    S    
C23   C47   S    
C66   H46   S    
C64   C67   S    
C2    H45   S    
N17   Ni3   S    
C5    C7    A    
C52   N5    A    
C42   C48   A    
C64   O1    D    
C58   C59   S    
C27   H9    S    
C16   H14   S    
C2    N15   A    
C13   C24   S    
C51   C53   A    
C43   C44   A    
C65   H43   S    
C29   C30   A    
C3    H49   S    
C47   C48   A    
C29   H10   S    
C55   H28   S    
C62   C63   A    
N12   Ni3   S    
C61   N6    A    
C51   C58   A    
N6    Ni4   S    
N18   Ni2   S    
C56   N11   A    
C42   C50   S    
C46   H21   S    
C48   C49   S    
C15   H4    S    
C16   C23   A    
C7    C19   S    
C6    C43   S    
C55   C57   A    
C22   C24   A    
C42   C43   A    
C39   H16   S    
C60   H32   S    
C4    H3    S    
N3    N5    A    
C66   N10   S    
C14   N9    S    
N11   Ni2   S    
C15   C17   A    
C41   H19   S    
C54   C55   A    
C52   H35   S    
H44   N10   S    
C2    C8    A    
C60   H31   S    
C28   N3    A    
N13   N14   A    
C62   H37   S    
C21   H6    S    
C34   C52   A    
C1    H1    S    
C25   H7    S    
C10   C11   A    
C32   C33   A    
C68   N13   A    
C25   C26   A    
C9    C68   A    
N1    Ni1   S    
C4    N18   A    
C62   N7    A    
C12   C61   A    
C11   C13   A    
C57   C58   A    
C38   C39   S    
N8    Ni1   S    
C36   H15   S    
C40   N4    A    
N2    Ni3   S    
C68   H23   S    
C56   H12   S    
C9    C57   S    
N1    N7    A    
C65   H41   S    
C50   N10   S    
C40   H33   S    
N14   Ni2   S    
N8    N16   A    
C20   C21   A    
C8    C67   A    
C69   N14   A    
C49   C50   S    
C8    C37   S    
H40   N9    S    
C59   H29   S    
C14   C15   A    
C51   C60   S    
C39   H17   S    
C49   H24   S    
C12   C33   S    
C13   C14   A    
N7    Ni3   S    
C44   H20   S    
C45   H38   S    
C20   C31   S    
