data_mof_unit_21422.cif
_audit_creation_date              2013-03-05T15:49:57-0500
_audit_creation_method            fapswitch 2.2
_symmetry_space_group_name_H-M    P1
_symmetry_Int_Tables_number       1
_space_group_crystal_system       triclinic
_cell_length_a                    12.033099
_cell_length_b                    12.880215
_cell_length_c                    14.919161
_cell_angle_alpha                 91.624661
_cell_angle_beta                  85.645107
_cell_angle_gamma                 94.151096
_cell_volume                      2298.9725168

loop_
_atom_site_label
_atom_site_type_symbol
_atom_site_description
_atom_site_fract_x
_atom_site_fract_y
_atom_site_fract_z
_atom_type_partial_charge
O1    O     O_R   0.421700 0.658830 0.504450 -0.616387
O2    O     O_R   0.578300 0.341170 0.495550 -0.617769
O3    O     O_R   0.609310 0.646410 0.493750 -0.556187
O4    O     O_R   0.390690 0.353590 0.506250 -0.539204
C1    C     C_R   0.523239 0.700714 0.496039 0.987159
C2    C     C_R   0.476475 0.298827 0.502173 0.984305
O5    O     O_R   0.406180 0.506230 0.637500 -0.579161
O6    O     O_R   0.593820 0.493770 0.362500 -0.559527
O7    O     O_R   0.593800 0.493820 0.626800 -0.613945
O8    O     O_R   0.406200 0.506180 0.373200 -0.636234
C3    C     C_R   0.500620 0.504263 0.672836 0.958425
C4    C     C_R   0.499542 0.495171 0.327100 0.981984
Zn1   Zn    Zn3+2 0.374730 0.508290 0.507150 1.086275
Zn2   Zn    Zn3+2 0.625270 0.491710 0.492850 1.092434
C5    C     C_R   0.496118 0.397720 0.182141 0.330740
C6    C     C_R   0.512929 0.601817 0.816850 0.407005
C7    C     C_R   0.499830 0.492569 0.231410 -0.161939
C8    C     C_R   0.502053 0.506926 0.768278 -0.140236
C9    C     C_R   0.500812 0.587766 0.190123 -0.205668
C10   C     C_R   0.501279 0.411757 0.809717 -0.233665
C11   C     C_R   0.497416 0.590754 0.098047 0.079579
C12   C     C_R   0.510093 0.409350 0.901330 0.087767
C13   C     C_R   0.505962 0.498177 0.046267 0.012690
C14   C     C_R   0.504106 0.502254 0.952978 0.008818
C15   C     C_R   0.514932 0.401538 0.087891 -0.094457
C16   C     C_R   0.496096 0.598916 0.911193 -0.109714
C17   C     C_R   0.480794 0.684367 0.057988 -0.210865
C18   C     C_R   0.528850 0.316092 0.941043 -0.213264
C19   C     C_R   0.473553 0.688206 0.965405 0.326759
C20   C     C_R   0.538988 0.312807 0.033358 0.326813
H1    H     H_    0.498209 0.659099 0.230579 0.182651
H2    H     H_    0.500159 0.340065 0.769543 0.163944
H3    H     H_    0.466016 0.753104 0.099620 0.202929
H4    H     H_    0.542783 0.247345 0.899218 0.203526
C21   C     C_R   0.460932 0.186236 0.511359 -0.249612
C22   C     C_R   0.540818 0.813249 0.497115 -0.272324
C23   C     C_R   0.654347 0.974835 0.476351 0.317400
C24   C     C_R   0.366615 0.029135 0.574001 0.331111
C25   C     C_R   0.640858 0.866561 0.461145 0.290716
C26   C     C_R   0.360444 0.132404 0.547148 0.328826
C27   C     C_R   0.454410 0.867579 0.538959 -0.103192
C28   C     C_R   0.557347 0.133437 0.491814 -0.125191
C29   C     C_R   0.460044 0.974830 0.541064 -0.077206
C30   C     C_R   0.558420 0.028212 0.504328 -0.060741
H5    H     H_    0.630721 0.174097 0.460127 0.267576
H6    H     H_    0.378188 0.825478 0.563704 0.259456
N1    N     N_R   0.207800 0.519350 0.516680 -0.160844
N2    N     N_R   0.792200 0.480650 0.483320 -0.159984
C31   C     C_R   0.960125 0.440908 0.392705 -0.262057
C32   C     C_R   0.039589 0.558498 0.607256 -0.265136
C33   C     C_R   0.843279 0.440494 0.405438 0.466753
C34   C     C_R   0.156319 0.557955 0.595144 0.452556
C35   C     C_R   0.855869 0.519762 0.549955 -0.008027
C36   C     C_R   0.144221 0.481166 0.449589 0.006934
C37   C     C_R   0.973618 0.519870 0.539676 0.020119
C38   C     C_R   0.026356 0.480696 0.459851 0.019346
H7    H     H_    0.184939 0.449737 0.388771 0.166801
H8    H     H_    0.815284 0.551576 0.610677 0.191827
H9    H     H_    0.998482 0.408911 0.330861 0.191045
H10   H     H_    0.001018 0.589532 0.669415 0.199005
S1    S     S_3+6 0.435563 0.282479 0.235766 0.088473
O9    O     O_2   0.389427 0.203904 0.169340 -0.229160
O10   O     O_2   0.520888 0.233909 0.286293 -0.191605
O11   O     O_3   0.329566 0.313556 0.308737 -0.520343
H11   H     H_    0.271468 0.334884 0.270752 0.354970
S2    S     S_3+6 0.575711 0.715386 0.761815 0.068297
O12   O     O_2   0.488805 0.766367 0.715259 -0.228986
O13   O     O_2   0.627203 0.791471 0.827664 -0.229558
O14   O     O_3   0.677412 0.683067 0.684902 -0.582204
H12   H     H_    0.701371 0.748353 0.653132 0.381836
N3    N     N_R   0.427347 0.776926 0.930000 0.255983
O15   O     O_R   0.448912 0.869459 0.964548 -0.267040
O16   O     O_R   0.347685 0.762934 0.875670 -0.247259
N4    N     N_R   0.587752 0.225018 0.068159 0.256525
O17   O     O_R   0.570700 0.132740 0.031780 -0.270597
O18   O     O_R   0.664283 0.240018 0.125199 -0.250017
S3    S     S_3+6 0.227344 0.187027 0.548908 0.125339
O19   O     O_2   0.217796 0.265555 0.625119 -0.265048
O20   O     O_2   0.216624 0.239706 0.461838 -0.234814
O21   O     O_3   0.120001 0.096161 0.560619 -0.430777
H13   H     H_    0.052049 0.135624 0.565045 0.410421
S4    S     S_3+6 0.738219 0.802266 0.386047 0.091249
O22   O     O_2   0.818179 0.750094 0.439754 -0.279021
O23   O     O_2   0.677119 0.721466 0.329900 -0.315536
O24   O     O_3   0.810592 0.886244 0.315486 -0.419742
H14   H     H_    0.867123 0.844823 0.282128 0.402632
S5    S     S_3+6 0.789965 0.042123 0.470376 0.104311
O25   O     O_2   0.812817 0.091374 0.380125 -0.145920
O26   O     O_2   0.794836 0.126489 0.542052 -0.322537
O27   O     O_3   0.890358 0.961391 0.485426 -0.424408
H15   H     H_    0.874837 0.937457 0.547946 0.368426
S6    S     S_3+6 0.268892 0.973101 0.658392 0.123841
O28   O     O_2   0.181592 0.904169 0.614337 -0.236314
O29   O     O_2   0.328592 0.908974 0.719352 -0.170850
O30   O     O_3   0.207364 0.065667 0.722108 -0.464154
H16   H     H_    0.149946 0.027301 0.762032 0.404849
N5    N     N_R   0.219578 0.598255 0.666965 0.229021
O31   O     O_R   0.194985 0.564194 0.747851 -0.333788
O32   O     O_R   0.281300 0.684468 0.656509 -0.303189
N6    N     N_R   0.779209 0.396029 0.335649 0.228991
O33   O     O_R   0.723716 0.306802 0.348162 -0.300826
O34   O     O_R   0.799525 0.429176 0.254055 -0.332206

loop_
_geom_bond_atom_site_label_1
_geom_bond_atom_site_label_2
_geom_bond_distance
_ccdc_geom_bond_type
S2    O13   1.503117 D    
S5    O25   1.502644 D    
C3    C8    1.424736 S    
C17   C19   1.393087 A    
O30   H16   0.990503 S    
C37   C38   1.404670 A    
C9    H1    1.085958 S    
N5    O31   1.301252 A    
O24   H14   0.990515 S    
C17   H3    1.084468 S    
O5    C3    1.290702 A    
N4    O18   1.301356 A    
O1    C1    1.297992 A    
C9    C11   1.379113 A    
C14   C16   1.420730 A    
O14   H12   0.990776 S    
C20   N4    1.438074 S    
C5    C15   1.408850 A    
S2    O14   1.679583 S    
C1    C22   1.449413 S    
C24   S6    1.786806 S    
C34   N5    1.425526 S    
C33   N6    1.424996 S    
C2    C21   1.457713 S    
O4    Zn1   2.015163 S    
S1    O10   1.500347 D    
C21   C28   1.394668 A    
N6    O33   1.297572 A    
N2    C33   1.378003 A    
C31   C33   1.404070 A    
C4    C7    1.426801 S    
C32   C34   1.403025 A    
C27   H6    1.076801 S    
S3    O20   1.500847 D    
S2    O12   1.497595 D    
C11   C17   1.394624 A    
C18   H4    1.084353 S    
C12   C18   1.394536 A    
C27   C29   1.377744 A    
C22   C27   1.393734 A    
O2    C2    1.302472 A    
C28   C30   1.374469 A    
S6    O29   1.501046 D    
N5    O32   1.296872 A    
C35   C37   1.413431 A    
C6    C16   1.407893 A    
N2    C35   1.363991 A    
C36   C38   1.414506 A    
N4    O17   1.301684 A    
O4    C2    1.288500 A    
N3    O16   1.301177 A    
O7    Zn2   2.005320 S    
Zn2   N2    2.017977 S    
S3    O19   1.503593 D    
S6    O30   1.682240 S    
C28   H5    1.077505 S    
S1    O11   1.676466 S    
C29   C30   1.406929 A    
O6    C4    1.288701 A    
N6    O34   1.301183 A    
C5    S1    1.787877 S    
O7    C3    1.283215 A    
O3    Zn2   2.015163 S    
O8    C4    1.286437 A    
N1    C36   1.364917 A    
C10   C12   1.380286 A    
S4    O23   1.502879 D    
C11   C13   1.408071 A    
C12   C14   1.408054 A    
O1    Zn1   1.980670 S    
S4    O24   1.680946 S    
Zn1   N1    2.017977 S    
C10   H2    1.086356 S    
S3    O21   1.681414 S    
C15   C20   1.418190 A    
C5    C7    1.407456 A    
O6    Zn2   2.010467 S    
C23   S5    1.788786 S    
C22   C25   1.418356 A    
C25   S4    1.789449 S    
O21   H13   0.990649 S    
O3    C1    1.288879 A    
O8    Zn1   2.005320 S    
C35   H8    1.080669 S    
N1    C34   1.379416 A    
C31   C38   1.390805 A    
C32   C37   1.389314 A    
C31   H9    1.084204 S    
C32   H10   1.084277 S    
O11   H11   0.991041 S    
C23   C30   1.415885 A    
C18   C20   1.393959 A    
C21   C26   1.424629 A    
C24   C29   1.416009 A    
C23   C25   1.406263 A    
C24   C26   1.408643 A    
O27   H15   0.990676 S    
S6    O28   1.503517 D    
C7    C9    1.386591 A    
C8    C10   1.387550 A    
C13   C15   1.421302 A    
S1    O9    1.503309 D    
O2    Zn2   1.980670 S    
C13   C14   1.396202 A    
O5    Zn1   2.010465 S    
C6    S2    1.788453 S    
C16   C19   1.417566 A    
C6    C8    1.406094 A    
S4    O22   1.503520 D    
S5    O27   1.681467 S    
S5    O26   1.504055 D    
C26   S3    1.793469 S    
N3    O15   1.301614 A    
C19   N3    1.436946 S    
C36   H7    1.080543 S    
