data_mof_unit_20240.cif
_audit_creation_date              2013-03-05T15:41:25-0500
_audit_creation_method            fapswitch 2.2
_symmetry_space_group_name_H-M    P1
_symmetry_Int_Tables_number       1
_space_group_crystal_system       triclinic
_cell_length_a                    11.615154
_cell_length_b                    18.451431
_cell_length_c                    10.005975
_cell_angle_alpha                 90.049802
_cell_angle_beta                  111.254864
_cell_angle_gamma                 89.337212
_cell_volume                      1998.42501897

loop_
_atom_site_label
_atom_site_type_symbol
_atom_site_description
_atom_site_fract_x
_atom_site_fract_y
_atom_site_fract_z
_atom_type_partial_charge
O1    O     O_R   0.267710 0.668200 0.902110 -0.471676
O2    O     O_R   0.732290 0.331800 0.097890 -0.467175
O3    O     O_R   0.732290 0.168200 0.097890 -0.465750
O4    O     O_R   0.267710 0.831800 0.902110 -0.475064
O5    O     O_R   0.099480 0.674460 0.038850 -0.421842
O6    O     O_R   0.900520 0.325540 0.961150 -0.456894
O7    O     O_R   0.900520 0.174460 0.961150 -0.446877
O8    O     O_R   0.099480 0.825540 0.038850 -0.450568
C1    C     C_R   0.071296 0.647007 0.140168 0.589778
C2    C     C_R   0.923578 0.355102 0.857884 0.584728
C3    C     C_R   0.928348 0.146295 0.859512 0.582080
C4    C     C_R   0.071657 0.853707 0.140488 0.571820
O9    O     O_R   0.116720 0.669210 0.267660 -0.525904
O10   O     O_R   0.883280 0.330790 0.732340 -0.528252
O11   O     O_R   0.883280 0.169210 0.732340 -0.526509
O12   O     O_R   0.116720 0.830790 0.267660 -0.531805
O13   O     O_R   0.366710 0.675440 0.427590 -0.505919
O14   O     O_R   0.633290 0.324560 0.572410 -0.516115
O15   O     O_R   0.633290 0.175440 0.572410 -0.505885
O16   O     O_R   0.366710 0.824560 0.427590 -0.513937
C5    C     C_R   0.471491 0.647259 0.444338 0.549636
C6    C     C_R   0.527707 0.352047 0.554475 0.512308
C7    C     C_R   0.529242 0.147510 0.555723 0.533024
C8    C     C_R   0.470767 0.852482 0.444294 0.524152
O17   O     O_R   0.534870 0.669390 0.371760 -0.496869
O18   O     O_R   0.465130 0.330610 0.628240 -0.534822
O19   O     O_R   0.465130 0.169390 0.628240 -0.527466
O20   O     O_R   0.534870 0.830610 0.371760 -0.530987
O21   O     O_R   0.453080 0.674480 0.075160 -0.479851
O22   O     O_R   0.546920 0.325520 0.924840 -0.478620
O23   O     O_R   0.546920 0.174480 0.924840 -0.502694
O24   O     O_R   0.453080 0.825520 0.075160 -0.519422
C9    C     C_R   0.376961 0.644105 0.963194 0.543233
C10   C     C_R   0.649212 0.362272 0.987182 0.548414
C11   C     C_R   0.647311 0.136587 0.994091 0.555551
C12   C     C_R   0.352716 0.863420 0.005859 0.547960
Cr1   Cr    Cr6+3 0.187610 0.750000 0.979860 1.165245
Cr2   Cr    Cr6+3 0.812390 0.250000 0.020140 1.134353
Cr3   Cr    Cr6+3 0.245810 0.750000 0.341640 1.030227
Cr4   Cr    Cr6+3 0.754190 0.250000 0.658360 1.017237
Cr5   Cr    Cr6+3 0.485760 0.750000 0.219910 1.075213
Cr6   Cr    Cr6+3 0.514240 0.250000 0.780090 1.060279
O25   O     O_3   0.306390 0.750000 0.180470 -0.293019
O26   O     O_3   0.693610 0.250000 0.819530 -0.321142
C13   C     C_R   0.496604 0.423307 0.483244 0.001470
C14   C     C_R   0.500013 0.574793 0.511585 -0.027415
C15   C     C_R   0.498943 0.924211 0.512628 -0.006663
C16   C     C_R   0.501088 0.075769 0.487432 -0.006516
C17   C     C_R   0.282500 0.423251 0.477369 -0.005830
C18   C     C_R   0.714242 0.573800 0.516092 -0.023999
C19   C     C_R   0.715434 0.919232 0.526342 0.004148
C20   C     C_R   0.284588 0.080738 0.473699 0.004186
C21   C     C_R   0.186253 0.458183 0.504262 -0.080884
C22   C     C_R   0.808642 0.538604 0.485678 -0.039286
C23   C     C_R   0.815387 0.952120 0.506822 -0.070255
C24   C     C_R   0.184634 0.047846 0.493210 -0.070587
C25   C     C_R   0.199449 0.529626 0.550544 -0.076497
C26   C     C_R   0.794986 0.466979 0.440959 -0.056505
C27   C     C_R   0.806118 0.024074 0.463739 -0.077545
C28   C     C_R   0.193913 0.975894 0.536310 -0.076905
C29   C     C_R   0.306457 0.567131 0.563728 -0.074591
C30   C     C_R   0.687241 0.430370 0.426965 -0.037344
C31   C     C_R   0.698421 0.063762 0.444243 -0.057869
C32   C     C_R   0.301623 0.936213 0.555835 -0.058229
C33   C     C_R   0.400573 0.534684 0.524162 0.000211
C34   C     C_R   0.594609 0.463311 0.468271 0.012673
C35   C     C_R   0.600632 0.033414 0.477820 0.008007
C36   C     C_R   0.399408 0.966565 0.522257 0.008580
C37   C     C_R   0.392831 0.460159 0.493042 0.041963
C38   C     C_R   0.603504 0.537599 0.501052 0.004578
C39   C     C_R   0.605185 0.958706 0.507176 0.038256
C40   C     C_R   0.394848 0.041271 0.492888 0.037803
H1    H     H_    0.102518 0.429299 0.492084 0.130329
H2    H     H_    0.891497 0.567374 0.493765 0.156459
H3    H     H_    0.899406 0.921420 0.523475 0.137312
H4    H     H_    0.100606 0.078540 0.476536 0.136812
H5    H     H_    0.126592 0.556200 0.576203 0.168659
H6    H     H_    0.867716 0.439781 0.416240 0.161255
H7    H     H_    0.883041 0.049471 0.446664 0.156009
H8    H     H_    0.116989 0.950492 0.553375 0.155869
H9    H     H_    0.269774 0.367435 0.441907 0.167318
H10   H     H_    0.728274 0.629533 0.551713 0.177203
H11   H     H_    0.725858 0.863098 0.560612 0.172685
H12   H     H_    0.274154 0.136870 0.439415 0.172654
H13   H     H_    0.315430 0.621362 0.607181 0.133080
H14   H     H_    0.677143 0.376035 0.383730 0.159068
H15   H     H_    0.692589 0.118175 0.402055 0.158264
H16   H     H_    0.307463 0.881800 0.598026 0.154216
H17   H     H_    0.445830 0.063159 0.889565 0.187976
H18   H     H_    0.554281 0.936773 0.110130 0.188201
H19   H     H_    0.579601 0.596247 0.922356 0.167147
H20   H     H_    0.475114 0.446781 0.814428 0.152680
C41   C     C_2   0.368544 0.939938 0.975814 0.199938
C42   C     C_2   0.631533 0.060048 0.024047 0.198306
C43   C     C_2   0.640586 0.442606 0.994386 0.208234
C44   C     C_2   0.404305 0.570245 0.926185 0.189866
C45   C     C_2   0.482959 0.966845 0.027682 -0.105468
C46   C     C_2   0.517148 0.033102 0.972055 -0.104927
C47   C     C_2   0.544595 0.477778 0.896375 -0.118672
C48   C     C_2   0.512661 0.554049 0.913044 -0.124002
C49   C     C_2   0.019373 0.926255 0.124815 0.015259
C50   C     C_2   0.980647 0.073750 0.875179 0.014609
C51   C     C_2   0.950835 0.431492 0.865456 -0.042005
C52   C     C_2   0.015403 0.576018 0.119195 -0.003491
C53   C     C_2   0.983301 0.961209 0.999824 0.228521
C54   C     C_2   0.016738 0.038792 0.000165 0.227382
C55   C     C_2   0.015785 0.466536 0.984881 0.226978
C56   C     C_2   0.987112 0.544647 0.991515 0.214908
H21   H     H_    0.950984 0.042714 0.776296 0.129951
H22   H     H_    0.049034 0.957293 0.223695 0.130684
H23   H     H_    0.034699 0.543121 0.215144 0.139146
H24   H     H_    0.890499 0.461927 0.773216 0.103848
N1    N     N_R   0.738321 0.016058 0.105527 0.055297
O27   O     O_R   0.741128 0.946966 0.080519 -0.330299
O28   O     O_R   0.841950 0.046664 0.180492 -0.374992
N2    N     N_R   0.261767 0.983953 0.894419 0.055389
O29   O     O_R   0.259035 0.053047 0.919449 -0.326029
O30   O     O_R   0.158090 0.953371 0.819542 -0.374657
N3    N     N_R   0.319032 0.513645 0.923706 0.078785
O31   O     O_R   0.357054 0.455604 0.001939 -0.270569
O32   O     O_R   0.201330 0.523874 0.857536 -0.308334
N4    N     N_R   0.738380 0.481375 0.102514 0.055257
O33   O     O_R   0.718217 0.543342 0.152714 -0.350267
O34   O     O_R   0.848936 0.453254 0.154943 -0.394717
N5    N     N_R   0.113259 0.069104 0.122352 0.071225
O35   O     O_R   0.215028 0.031891 0.181013 -0.364801
O36   O     O_R   0.112364 0.137312 0.154853 -0.308850
N6    N     N_R   0.886791 0.930894 0.877629 0.070496
O37   O     O_R   0.785014 0.968098 0.818974 -0.366595
O38   O     O_R   0.887706 0.862693 0.845110 -0.311011
N7    N     N_R   0.931271 0.587454 0.863167 0.052727
O39   O     O_R   0.841691 0.632658 0.853618 -0.353616
O40   O     O_R   0.981323 0.589281 0.766341 -0.343810
N8    N     N_R   0.117777 0.432468 0.098911 0.091705
O41   O     O_R   0.208665 0.472320 0.177844 -0.328790
O42   O     O_R   0.133724 0.362472 0.106516 -0.290933

loop_
_geom_bond_atom_site_label_1
_geom_bond_atom_site_label_2
_geom_bond_distance
_ccdc_geom_bond_type
C26   C30   1.390830 A    
O4    C12   1.289215 A    
C24   H4    1.081885 S    
O23   Cr6   1.943251 S    
O5    Cr1   1.952306 S    
C44   N3    1.441660 S    
N6    O37   1.300807 A    
C45   C46   1.461090 S    
O1    C9    1.267512 A    
O7    C3    1.281529 A    
C30   H14   1.082215 S    
C54   N5    1.443604 S    
O18   Cr6   2.049918 S    
C18   C22   1.393451 A    
C19   C39   1.416936 A    
C32   C36   1.417133 A    
C2    C51   1.444102 S    
C5    C14   1.476506 S    
C55   N8    1.450652 S    
C23   C27   1.387131 A    
C43   C47   1.348195 D    
C42   C46   1.340418 D    
O21   C9    1.281859 A    
O20   Cr5   2.057561 S    
N2    O29   1.301289 A    
O13   Cr3   1.919897 S    
C17   H9    1.083171 S    
C20   H12   1.082885 S    
O14   Cr4   1.919895 S    
C56   N7    1.442159 S    
C1    O9    1.260814 A    
C22   H2    1.081571 S    
C3    O11   1.258911 A    
C12   C41   1.471174 S    
C4    O12   1.258924 A    
O3    Cr2   2.075622 S    
C32   H16   1.081311 S    
C55   C56   1.482336 S    
O6    Cr2   1.952305 S    
C7    O19   1.276059 A    
H19   C48   1.086655 S    
H18   C45   1.081389 S    
C19   C23   1.391099 A    
O1    Cr1   2.058918 S    
C23   H3    1.081885 S    
O2    C10   1.299192 A    
C17   C37   1.415962 A    
Cr5   O25   1.974897 S    
Cr6   O26   1.974897 S    
C16   C40   1.413500 A    
O8    C4    1.281518 A    
C42   N1    1.451426 S    
Cr2   O26   1.981109 S    
N3    O32   1.296526 A    
C49   C53   1.330740 D    
C31   C35   1.417138 A    
C14   C38   1.414098 A    
O22   C10   1.319538 A    
C13   C37   1.411181 A    
C25   H5    1.081748 S    
C10   C43   1.487948 S    
C14   C33   1.422299 A    
C2    O10   1.255355 A    
C27   H7    1.080549 S    
O16   Cr3   1.941977 S    
C30   C34   1.415899 A    
N8    O42   1.300991 A    
C49   H22   1.087204 S    
O13   C5    1.271738 A    
C24   C28   1.387134 A    
C51   H24   1.086814 S    
C41   N2    1.451394 S    
Cr1   O25   1.981109 S    
C19   H11   1.082889 S    
O15   C7    1.273567 A    
O5    C1    1.279398 A    
C20   C40   1.416932 A    
O2    Cr2   2.058918 S    
C47   C48   1.475893 S    
O3    C11   1.289269 A    
C36   C40   1.406055 A    
C15   C39   1.413481 A    
C29   H13   1.081653 S    
C43   N4    1.448781 S    
N5    O35   1.300824 A    
O23   C11   1.313338 A    
O8    Cr1   1.934584 S    
O24   Cr5   1.943249 S    
O17   Cr5   2.049918 S    
N7    O39   1.302077 A    
C9    C44   1.472971 S    
C41   C45   1.340407 D    
C15   C36   1.419978 A    
C52   C56   1.331900 D    
C18   H10   1.082696 S    
N1    O27   1.301288 A    
C22   C26   1.387210 A    
C11   C42   1.471205 S    
C5    O17   1.277154 A    
C28   H8    1.080552 S    
C21   C25   1.388464 A    
C7    C16   1.473951 S    
C53   N6    1.443607 S    
C31   H15   1.081299 S    
O14   C6    1.272630 A    
C8    C15   1.473932 S    
C21   H1    1.082027 S    
C8    O20   1.276060 A    
N7    O40   1.298716 A    
N6    O38   1.300405 A    
O6    C2    1.281368 A    
C52   H23   1.087317 S    
Cr3   O25   1.979526 S    
N3    O31   1.301766 A    
O24   C12   1.313284 A    
C25   C29   1.393562 A    
N8    O41   1.300523 A    
C53   C54   1.487273 S    
C27   C31   1.393295 A    
H17   C46   1.081423 S    
C28   C32   1.393289 A    
C18   C38   1.415123 A    
C4    C49   1.448379 S    
O19   Cr6   2.057563 S    
C34   C38   1.405371 A    
C1    C52   1.449699 S    
C33   C37   1.406313 A    
C44   C48   1.342320 D    
O7    Cr2   1.934586 S    
N2    O30   1.300286 A    
C50   C54   1.330735 D    
C3    C50   1.448402 S    
C35   C39   1.406064 A    
C16   C35   1.420008 A    
O11   Cr4   2.040541 S    
O9    Cr3   2.064798 S    
C17   C21   1.392378 A    
O15   Cr4   1.941978 S    
C26   H6    1.080791 S    
O12   Cr3   2.040539 S    
O10   Cr4   2.064797 S    
C29   C33   1.417184 A    
Cr4   O26   1.979527 S    
C6    C13   1.473524 S    
O4    Cr1   2.075620 S    
C6    O18   1.275015 A    
C13   C34   1.416473 A    
N5    O36   1.300465 A    
O21   Cr5   1.947737 S    
O22   Cr6   1.947736 S    
C50   H21   1.087205 S    
C51   C55   1.330985 D    
N4    O33   1.300993 A    
N4    O34   1.300014 A    
O16   C8    1.273566 A    
C20   C24   1.391108 A    
H20   C47   1.086673 S    
N1    O28   1.300287 A    
