data_mof_unit_66305.cif
_audit_creation_date              2012-10-26T21:11:48-0400
_audit_creation_method            fapswitch 2.2
_symmetry_space_group_name_H-M    P1
_symmetry_Int_Tables_number       1
_space_group_crystal_system       triclinic
_cell_length_a                    17.767243
_cell_length_b                    16.578673
_cell_length_c                    23.511831
_cell_angle_alpha                 90.248554
_cell_angle_beta                  93.36363
_cell_angle_gamma                 90.025717
_cell_volume                      6913.584079

loop_
_atom_site_label
_atom_site_type_symbol
_atom_type_description
_atom_site_fract_x
_atom_site_fract_y
_atom_site_fract_z
_atom_type_partial_charge
C1    C     C_R   0.355850 0.500024 0.504946 0.566877
C2    C     C_R   0.493287 0.428706 0.702442 -0.120846
C3    C     C_R   0.453972 0.453530 0.235949 -0.042802
C4    C     C_R   0.492188 0.429893 0.761704 -0.044319
C5    C     C_R   0.501140 0.507895 0.209645 0.230872
C6    C     C_R   0.490104 0.503521 0.790963 0.229009
C7    C     C_R   0.847247 0.573193 0.493380 -0.106815
C8    C     C_R   0.153050 0.427730 0.509547 -0.108598
C9    C     C_R   0.153503 0.573240 0.510317 -0.107393
C10   C     C_R   0.847615 0.427703 0.494588 -0.106207
C11   C     C_R   0.768525 0.574119 0.487580 0.037797
C12   C     C_R   0.644361 0.499985 0.495780 0.573141
C13   C     C_R   0.231798 0.426237 0.514872 0.037741
C14   C     C_R   0.232254 0.574250 0.515652 0.038473
C15   C     C_R   0.768912 0.426069 0.488802 0.037275
C16   C     C_R   0.727554 0.500011 0.489434 -0.036892
C17   C     C_R   0.273051 0.500140 0.513032 -0.034448
C18   C     C_R   0.886185 0.500629 0.497589 -0.014078
C19   C     C_R   0.114509 0.500607 0.506313 -0.015466
C20   C     C_R   0.499946 0.500108 0.390967 0.545369
C21   C     C_R   0.498150 0.500219 0.609168 0.555128
C22   C     C_1   0.966594 0.500842 0.500850 0.007811
C23   C     C_R   0.548063 0.559593 0.243094 -0.038730
C24   C     C_1   0.034101 0.500816 0.503242 0.007761
C25   C     C_R   0.535787 0.831939 0.542492 -0.129438
C26   C     C_R   0.461964 0.169780 0.455406 -0.126765
C27   C     C_R   0.462100 0.829083 0.454815 -0.131061
C28   C     C_R   0.536636 0.168483 0.542401 -0.129780
C29   C     C_R   0.536948 0.746422 0.543250 0.192480
C30   C     C_R   0.462011 0.255225 0.456468 0.204381
C31   C     C_R   0.462280 0.743675 0.456113 0.195608
C32   C     C_R   0.537526 0.254121 0.543119 0.191182
C33   C     C_R   0.498698 0.874057 0.498217 -0.023950
C34   C     C_R   0.487118 0.575817 0.760403 -0.045031
C35   C     C_R   0.499082 0.125572 0.498492 -0.025462
C36   C     C_1   0.498366 0.962856 0.497664 0.013296
C37   C     C_1   0.498550 0.036762 0.497822 0.013098
C38   C     C_R   0.555987 0.480948 0.882480 0.407297
C39   C     C_R   0.437145 0.536307 0.118214 0.406556
C40   C     C_R   0.429623 0.530899 0.878677 0.406563
C41   C     C_R   0.563290 0.485732 0.122005 0.407792
C42   C     C_R   0.430408 0.533429 0.938382 0.030186
C43   C     C_R   0.563118 0.484993 0.062308 0.030243
C44   C     C_R   0.495850 0.508629 0.970293 -0.026501
C45   C     C_R   0.547825 0.556710 0.302406 -0.098167
C46   C     C_R   0.497776 0.510081 0.030399 -0.026497
C47   C     C_R   0.559288 0.482135 0.942244 0.030433
C48   C     C_R   0.434236 0.536271 0.058451 0.030319
C49   C     C_R   0.367474 0.559804 0.966809 -0.113779
C50   C     C_R   0.626201 0.459045 0.033883 -0.113525
C51   C     C_R   0.369384 0.561258 0.026218 -0.113843
C52   C     C_R   0.624316 0.457660 0.974476 -0.113403
C53   C     C_2   0.578457 0.710759 0.593480 0.605801
C54   C     C_2   0.420397 0.293035 0.407713 0.609070
C55   C     C_2   0.421326 0.703945 0.407444 0.620750
C56   C     C_R   0.488264 0.574561 0.701173 -0.116904
C57   C     C_2   0.579294 0.290169 0.593410 0.604552
C58   C     C_2   0.732935 0.653610 0.475803 0.622594
C59   C     C_2   0.267066 0.346579 0.526822 0.628449
C60   C     C_2   0.268047 0.653610 0.528451 0.628462
C61   C     C_2   0.733824 0.345840 0.478378 0.623774
C62   C     C_R   0.501204 0.501548 0.328744 0.022664
C63   C     C_R   0.493533 0.501089 0.671654 -0.004875
C64   C     C_R   0.453813 0.450680 0.295154 -0.111903
Cu1   Cu    Cu3+1 0.500000 0.580420 0.500000 1.106262
Cu2   Cu    Cu3+1 0.500000 0.419580 0.500000 1.112421
H1    H     H_    0.316509 0.579255 0.943276 0.176060
H2    H     H_    0.493556 0.371248 0.680851 0.193386
H3    H     H_    0.417023 0.413921 0.210412 0.147598
H4    H     H_    0.493081 0.373628 0.784953 0.152360
H5    H     H_    0.878643 0.629314 0.492676 0.157846
H6    H     H_    0.121318 0.371811 0.509993 0.159835
H7    H     H_    0.122127 0.629323 0.511359 0.160071
H8    H     H_    0.879303 0.371739 0.494821 0.158072
H9    H     H_    0.564901 0.865963 0.576634 0.148995
H10   H     H_    0.432013 0.137625 0.420720 0.140984
H11   H     H_    0.432573 0.860474 0.419804 0.137202
H12   H     H_    0.677133 0.439497 0.057413 0.176185
H13   H     H_    0.566218 0.134958 0.576350 0.150554
H14   H     H_    0.659588 0.635798 0.625203 0.336377
H15   H     H_    0.329332 0.356337 0.378332 0.323280
H16   H     H_    0.331142 0.639295 0.377884 0.337380
H17   H     H_    0.659460 0.366544 0.625403 0.337662
H18   H     H_    0.727622 0.771534 0.496583 0.344230
H19   H     H_    0.269472 0.227799 0.508100 0.345395
H20   H     H_    0.271202 0.772543 0.511036 0.345802
H21   H     H_    0.729177 0.228909 0.501211 0.344401
H22   H     H_    0.319804 0.581715 0.046761 0.175819
H23   H     H_    0.673881 0.437156 0.953935 0.176284
H24   H     H_    0.584301 0.602195 0.223100 0.147985
H25   H     H_    0.484491 0.633000 0.782629 0.153546
H26   H     H_    0.584231 0.597141 0.327757 0.171325
H27   H     H_    0.484567 0.631048 0.678585 0.194588
H28   H     H_    0.414911 0.410833 0.314481 0.158415
N1    N     N_R   0.491804 0.504949 0.852049 -0.399980
N2    N     N_R   0.500790 0.510749 0.148637 -0.399671
N3    N     N_R   0.500000 0.701220 0.500000 -0.255194
N4    N     N_R   0.500000 0.298780 0.500000 -0.253465
O1    O     O_R   0.391260 0.567930 0.500000 -0.450579
O2    O     O_2   0.376964 0.561828 0.145767 -0.479423
O3    O     O_2   0.367103 0.553559 0.847455 -0.477644
O4    O     O_2   0.624974 0.460617 0.153196 -0.477113
O5    O     O_2   0.567384 0.737094 0.640941 -0.546279
O6    O     O_R   0.634808 0.653519 0.587363 -0.644235
O7    O     O_2   0.439219 0.278136 0.359593 -0.530919
O8    O     O_R   0.355482 0.338016 0.415500 -0.661274
O9    O     O_2   0.444424 0.711257 0.359748 -0.513627
O10   O     O_R   0.354016 0.663008 0.414782 -0.656419
O11   O     O_2   0.569686 0.262805 0.640677 -0.544458
O12   O     O_R   0.608740 0.432070 0.500000 -0.437673
O13   O     O_R   0.634366 0.348859 0.587544 -0.644395
O14   O     O_2   0.686642 0.661430 0.435606 -0.502990
O15   O     O_R   0.755533 0.720599 0.508870 -0.668977
O16   O     O_2   0.315404 0.339343 0.565699 -0.492306
O17   O     O_R   0.241627 0.278757 0.495775 -0.669021
O18   O     O_2   0.316534 0.660205 0.567334 -0.492592
O19   O     O_R   0.242995 0.721860 0.498185 -0.666324
O20   O     O_2   0.687819 0.335788 0.438196 -0.480920
O21   O     O_R   0.756703 0.280595 0.512663 -0.670122
O22   O     O_R   0.608740 0.567930 0.500000 -0.440032
O23   O     O_R   0.391260 0.432070 0.500000 -0.446708
O24   O     O_R   0.499980 0.567930 0.417880 -0.490464
O25   O     O_R   0.500020 0.432070 0.582120 -0.489904
O26   O     O_R   0.500020 0.567930 0.582120 -0.490809
O27   O     O_R   0.499980 0.432070 0.417880 -0.483554
O28   O     O_2   0.616601 0.456646 0.854941 -0.478577

loop_
_geom_bond_atom_site_label_1
_geom_bond_atom_site_label_2
_ccdc_geom_bond_type
C34   C56   A    
H18   O15   S    
C23   C45   A    
C61   O21   S    
C1    O1    A    
C4    H4    S    
C3    C64   A    
C27   C33   A    
C7    C11   A    
C30   C54   S    
C8    C13   A    
C42   C44   A    
H14   O6    S    
C58   O14   D    
C36   C37   T    
C35   C37   S    
C10   C18   A    
C2    H2    S    
C10   C15   A    
C7    H5    S    
C41   N2    A    
C53   O6    S    
C15   C16   A    
C45   C62   A    
C33   C36   S    
C41   O4    S    
Cu1   O26   S    
C28   H13   S    
C45   H26   S    
C34   H25   S    
C62   C64   A    
C40   O3    S    
C12   O22   A    
C9    C19   A    
C48   C51   A    
C57   O11   D    
C12   C16   S    
C28   C35   A    
C49   C51   A    
C38   N1    A    
C58   O15   S    
C50   C52   A    
H16   O10   S    
C11   C58   S    
C20   O24   A    
C44   C47   A    
C40   C42   A    
C41   C43   A    
C14   C17   A    
C52   H23   S    
C9    H7    S    
C32   C57   S    
C50   H12   S    
C12   O12   A    
C38   O28   S    
C44   C46   A    
C25   C29   A    
C56   H27   S    
C46   C48   A    
C56   C63   A    
C8    C19   A    
C8    H6    S    
C54   O8    S    
C27   C31   A    
H19   O17   S    
Cu1   O1    S    
C4    C6    A    
Cu2   O23   S    
C3    C5    A    
C6    C34   A    
C55   O9    D    
C25   H9    S    
C21   O25   A    
C2    C4    A    
C9    C14   A    
H21   O21   S    
C11   C16   A    
C26   H10   S    
C5    C23   A    
C28   C32   A    
C7    C18   A    
C15   C61   S    
C23   H24   S    
C60   O19   S    
Cu1   O24   S    
Cu2   O12   S    
C38   C47   A    
C26   C30   A    
H17   O13   S    
C60   O18   D    
C40   N1    A    
C5    N2    S    
C2    C63   A    
H15   O8    S    
C49   H1    S    
C54   O7    D    
C3    H3    S    
C61   O20   D    
C18   C22   S    
C27   H11   S    
C51   H22   S    
C43   C50   A    
C47   C52   A    
C13   C59   S    
C29   N3    A    
C14   C60   S    
C30   N4    A    
C1    C17   S    
Cu2   O27   S    
C13   C17   A    
C55   O10   S    
Cu2   N4    S    
C21   O26   A    
C19   C24   S    
Cu1   N3    S    
C20   O27   A    
Cu1   Cu2   S    
C10   H8    S    
C39   O2    S    
C57   O13   S    
C29   C53   S    
C53   O5    D    
C59   O16   D    
Cu1   O22   S    
C32   N4    A    
H20   O19   S    
C22   C24   T    
C31   N3    A    
C20   C62   S    
C43   C46   A    
C1    O23   A    
C39   N2    A    
C21   C63   S    
C42   C49   A    
C64   H28   S    
C26   C35   A    
C59   O17   S    
C6    N1    S    
Cu2   O25   S    
C31   C55   S    
C25   C33   A    
C39   C48   A    
