data_mof_unit_46949.cif
_audit_creation_date              2012-12-11T15:55:36-0500
_audit_creation_method            fapswitch 2.2
_symmetry_space_group_name_H-M    P1
_symmetry_Int_Tables_number       1
_space_group_crystal_system       triclinic
_cell_length_a                    6.942315
_cell_length_b                    14.547053
_cell_length_c                    16.050749
_cell_angle_alpha                 89.854475
_cell_angle_beta                  89.943587
_cell_angle_gamma                 89.85425
_cell_volume                      1620.95749233

loop_
_atom_site_label
_atom_site_type_symbol
_atom_type_description
_atom_site_fract_x
_atom_site_fract_y
_atom_site_fract_z
_atom_type_partial_charge
O1    O     O_R   0.505680 0.583900 0.413320 -0.517583
O2    O     O_R   0.176010 0.594950 0.586080 -0.546338
O3    O     O_R   0.005680 0.416100 0.586680 -0.538466
C1    C     C_R   0.344910 0.617084 0.615094 0.673193
O4    O     O_R   0.175960 0.594930 0.413930 -0.547317
O5    O     O_R   0.005640 0.416080 0.413300 -0.541568
C2    C     C_R   0.344691 0.616633 0.384705 0.765100
O6    O     O_R   0.505720 0.583920 0.586700 -0.543780
O7    O     O_3   0.339190 0.441320 0.500000 -0.373399
V1    V     V_3+5 0.064350 0.510890 0.500000 1.414337
O8    O     O_R   0.675920 0.405050 0.413920 -0.538336
C3    C     C_R   0.845273 0.382861 0.385176 0.720100
O9    O     O_R   0.675960 0.405070 0.586070 -0.546435
C4    C     C_R   0.844821 0.383028 0.614839 0.690770
V2    V     V_3+5 0.564340 0.489110 0.500000 1.433155
O10   O     O_3   0.839370 0.558680 0.500000 -0.369028
C5    C     C_R   0.006172 0.317907 0.742140 0.099296
C6    C     C_R   0.852751 0.317579 0.685504 -0.108644
C7    C     C_R   0.701650 0.255285 0.700509 -0.174548
H1    H     H_    0.579867 0.252733 0.658734 0.133931
C8    C     C_R   0.712755 0.191080 0.766120 -0.175049
H2    H     H_    0.598693 0.141165 0.773108 0.126366
C9    C     C_R   0.875569 0.187122 0.818424 -0.107655
C10   C     C_R   0.017596 0.254109 0.806852 0.099277
C11   C     C_3   0.229396 0.242640 0.795838 -0.407305
C12   C     C_3   0.217053 0.312577 0.725596 -0.396485
H3    H     H_    0.267596 0.172421 0.774193 0.167673
H4    H     H_    0.311869 0.267646 0.850570 0.174921
H5    H     H_    0.248893 0.283194 0.663215 0.173059
H6    H     H_    0.291619 0.378213 0.739852 0.167665
C13   C     C_R   0.027615 0.244206 0.200549 -0.163436
H7    H     H_    0.153153 0.243775 0.160470 0.145057
C14   C     C_R   0.018573 0.308768 0.265054 -0.142215
H8    H     H_    0.137153 0.355974 0.273205 0.127097
C15   C     C_R   0.856920 0.313533 0.317535 -0.077029
C16   C     C_R   0.706854 0.250831 0.305458 -0.183293
H9    H     H_    0.582909 0.252020 0.346497 0.145008
C17   C     C_R   0.715159 0.185010 0.241978 0.157110
C18   C     C_R   0.876214 0.181779 0.187147 -0.081044
C19   C     C_R   0.188124 0.724444 0.718002 -0.158279
H10   H     H_    0.047515 0.706106 0.694217 0.116603
C20   C     C_R   0.199371 0.787959 0.783242 -0.153887
H11   H     H_    0.066791 0.816741 0.807514 0.118170
C21   C     C_R   0.378833 0.814064 0.816455 -0.040295
C22   C     C_R   0.546703 0.774718 0.782653 -0.152628
H12   H     H_    0.687305 0.793023 0.806472 0.115927
C23   C     C_R   0.535455 0.711207 0.717409 -0.152578
H13   H     H_    0.668030 0.682398 0.693161 0.118246
C24   C     C_R   0.356014 0.685250 0.684070 -0.043250
C25   C     C_R   0.262649 0.768752 0.320259 -0.224092
H14   H     H_    0.181517 0.786328 0.375676 0.145697
C26   C     C_R   0.274427 0.832509 0.255022 -0.203728
H15   H     H_    0.200160 0.897741 0.260991 0.168918
C27   C     C_R   0.381713 0.813088 0.182935 -0.172229
C28   C     C_R   0.477384 0.727543 0.175880 0.353031
C29   C     C_R   0.455521 0.660812 0.240653 0.321142
C30   C     C_R   0.355375 0.683356 0.314511 -0.171479
O11   O     O_R   0.229200 0.915950 0.913350 -0.546047
O12   O     O_R   0.559090 0.905000 0.086080 -0.520353
O13   O     O_R   0.729280 0.083880 0.086680 -0.522710
C31   C     C_R   0.390452 0.882219 0.114549 0.816771
O14   O     O_R   0.558920 0.904980 0.913920 -0.543484
O15   O     O_R   0.729110 0.083860 0.913300 -0.542898
C32   C     C_R   0.389982 0.882575 0.885134 0.683154
O16   O     O_R   0.229360 0.915970 0.086730 -0.546063
O17   O     O_3   0.395680 0.058580 0.000030 -0.362512
V3    V     V_3+5 0.670570 0.989070 0.999990 1.450894
O18   O     O_R   0.058820 0.094950 0.913870 -0.543013
C33   C     C_R   0.889655 0.116873 0.885033 0.685676
O19   O     O_R   0.058990 0.094970 0.086020 -0.534480
C34   C     C_R   0.889423 0.115117 0.116668 0.724713
V4    V     V_3+5 0.170560 0.010930 0.999930 1.426255
O20   O     O_3   0.895590 0.941310 0.999960 -0.377195
I1    I     I_    0.481101 0.090974 0.240925 -0.460775
O21   O     O_3   0.566803 0.707550 0.100331 -0.574587
C35   C     C_3   0.759838 0.676937 0.109396 0.095787
H16   H     H_    0.820243 0.669357 0.045687 0.131673
H17   H     H_    0.770241 0.607586 0.137434 0.166405
C36   C     C_3   0.888701 0.744645 0.155826 -0.729879
H18   H     H_    0.039393 0.719622 0.152245 0.178497
H19   H     H_    0.880217 0.813776 0.126856 0.249398
H20   H     H_    0.847239 0.749133 0.222502 0.213179
O22   O     O_3   0.526608 0.572566 0.231826 -0.561424
C37   C     C_3   0.394459 0.520918 0.184389 0.058078
H21   H     H_    0.375851 0.550745 0.120930 0.146319
H22   H     H_    0.251603 0.517584 0.216015 0.105780
C38   C     C_3   0.471056 0.423562 0.174873 -0.707886
H23   H     H_    0.371814 0.382835 0.135397 0.172096
H24   H     H_    0.615709 0.424613 0.145263 0.221217
H25   H     H_    0.481984 0.390566 0.237028 0.227962

loop_
_geom_bond_atom_site_label_1
_geom_bond_atom_site_label_2
_ccdc_geom_bond_type
C38   H23   S    
C9    C33   S    
C15   C16   A    
C37   C38   S    
C1    O6    A    
C23   C24   A    
C22   H12   S    
C26   H15   S    
C11   H4    S    
O14   V3    S    
C5    C12   S    
C16   H9    S    
C7    C8    A    
C37   H22   S    
O5    C3    A    
C17   C18   A    
C19   C24   A    
C29   C30   A    
C6    C7    A    
C4    C6    S    
O14   C32   A    
O12   V3    S    
O8    V2    S    
C37   H21   S    
O17   V4    S    
C23   H13   S    
O13   V3    S    
O18   C33   A    
C25   C26   A    
C9    C10   A    
C13   C14   A    
O19   C34   A    
V3    O20   S    
O7    V1    S    
C28   O21   S    
C19   C20   A    
O17   V3    S    
O9    C4    A    
C20   C21   A    
C26   C27   A    
C14   H8    S    
C22   C23   A    
O11   C32   A    
O15   V3    S    
O12   C31   A    
C5    C10   A    
O15   C33   A    
C10   C11   S    
O4    C2    A    
O13   C34   A    
C25   H14   S    
C11   C12   S    
C21   C32   S    
O2    C1    A    
O21   C35   S    
O22   C37   S    
O18   V4    S    
C28   C29   A    
C5    C6    A    
C35   H16   S    
C3    C15   S    
O3    C4    A    
O1    V2    S    
C19   H10   S    
C12   H6    S    
O6    V2    S    
O9    V2    S    
C20   H11   S    
O2    V1    S    
C21   C22   A    
C29   O22   S    
C36   H19   S    
C17   I1    S    
C27   C28   A    
O1    C2    A    
C25   C30   A    
C13   H7    S    
C35   H17   S    
V4    O20   S    
O5    V1    S    
C36   H20   S    
O8    C3    A    
C27   C31   S    
C11   H3    S    
O16   V4    S    
C1    C24   S    
C7    H1    S    
C8    C9    A    
O7    V2    S    
O4    V1    S    
O3    V1    S    
V1    O10   S    
O11   V4    S    
C16   C17   A    
C14   C15   A    
C13   C18   A    
C36   H18   S    
C31   O16   A    
C35   C36   S    
C12   H5    S    
C38   H25   S    
C38   H24   S    
C18   C34   S    
O19   V4    S    
C8    H2    S    
C2    C30   S    
V2    O10   S    
