data_mof_unit_25025.cif
_audit_creation_date              2012-12-10T20:55:49-0500
_audit_creation_method            fapswitch 2.2
_symmetry_space_group_name_H-M    P1
_symmetry_Int_Tables_number       1
_space_group_crystal_system       triclinic
_cell_length_a                    15.855314
_cell_length_b                    15.04797
_cell_length_c                    10.66104
_cell_angle_alpha                 90.381645
_cell_angle_beta                  90.282979
_cell_angle_gamma                 91.764281
_cell_volume                      2542.32473992

loop_
_atom_site_label
_atom_site_type_symbol
_atom_type_description
_atom_site_fract_x
_atom_site_fract_y
_atom_site_fract_z
_atom_type_partial_charge
C1    C     C_1   0.250687 0.495994 0.496142 -0.139381
C2    C     C_R   0.424905 0.044226 0.471625 -0.041720
C3    C     C_R   0.959906 0.583068 0.499723 0.052846
C4    C     C_R   0.039332 0.416004 0.480337 0.048569
C5    C     C_R   0.048570 0.580472 0.499197 0.048494
C6    C     C_R   0.950602 0.418686 0.480289 0.052033
C7    C     C_R   0.338903 0.498788 0.498880 0.905414
C8    C     C_R   0.660986 0.501264 0.499428 0.940674
C9    C     C_R   0.479437 0.498871 0.264294 0.890629
C10   C     C_R   0.497823 0.499916 0.742635 0.886822
C11   C     C_R   0.912731 0.502197 0.490028 0.036640
C12   C     C_1   0.748960 0.503944 0.495884 -0.188140
C13   C     C_R   0.086648 0.496934 0.490491 0.031992
C14   C     C_1   0.499449 0.806956 0.502906 0.075928
C15   C     C_1   0.498906 0.192989 0.502720 0.068983
C16   C     C_1   0.823562 0.504331 0.492653 -0.058335
C17   C     C_1   0.175945 0.494951 0.493777 -0.054475
C18   C     C_R   0.428109 0.660380 0.116202 -0.011326
C19   C     C_R   0.414669 0.345418 0.865596 -0.002664
C20   C     C_R   0.538873 0.655610 0.913112 -0.019198
C21   C     C_R   0.423960 0.330983 0.120081 -0.018804
C22   C     C_R   0.457638 0.741623 0.063062 0.066631
C23   C     C_R   0.482465 0.498544 0.877675 -0.174263
C24   C     C_R   0.420377 0.259937 0.916340 0.050926
C25   C     C_R   0.518729 0.739034 0.965836 0.065948
C26   C     C_R   0.432723 0.253242 0.047093 0.068374
C27   C     C_R   0.493563 0.577501 0.950526 -0.018635
C28   C     C_R   0.441373 0.415898 0.065300 -0.014418
C29   C     C_R   0.455380 0.578552 0.067321 -0.002858
C30   C     C_R   0.446749 0.420046 0.934228 -0.014034
C31   C     C_3   0.103588 0.665397 0.512334 -0.392139
C32   C     C_3   0.125775 0.683537 0.650733 -0.351902
C33   C     C_3   0.187218 0.762969 0.665592 -0.841956
C34   C     C_R   0.451322 0.497260 0.133190 -0.189168
C35   C     C_3   0.894876 0.333916 0.469512 -0.398936
C36   C     C_3   0.864109 0.318674 0.334117 -0.344098
C37   C     C_3   0.801161 0.239989 0.325236 -0.853168
C38   C     C_3   0.914448 0.671041 0.507569 -0.396819
C39   C     C_3   0.895367 0.705398 0.375526 -0.354236
C40   C     C_3   0.842745 0.788462 0.380388 -0.839510
C41   C     C_3   0.084100 0.327697 0.473435 -0.395622
C42   C     C_3   0.093979 0.288338 0.605045 -0.346718
C43   C     C_3   0.143313 0.202974 0.601427 -0.833484
C44   C     C_3   0.451433 0.165727 0.110468 -0.442286
C45   C     C_R   0.498574 0.904914 0.506571 -0.066588
C46   C     C_3   0.541587 0.168517 0.163634 -0.313957
C47   C     C_3   0.569888 0.075735 0.198245 -0.899818
C48   C     C_3   0.561285 0.823663 0.915725 -0.414506
C49   C     C_3   0.637416 0.852197 0.997544 -0.349151
C50   C     C_3   0.685041 0.932213 0.941902 -0.862688
C51   C     C_3   0.404625 0.178903 0.832390 -0.400516
C52   C     C_3   0.317685 0.134972 0.857595 -0.359843
C53   C     C_3   0.302984 0.051812 0.776929 -0.870982
C54   C     C_3   0.423498 0.829112 0.110548 -0.417307
C55   C     C_3   0.345264 0.853575 0.034535 -0.339891
C56   C     C_R   0.498020 0.094986 0.506513 -0.047248
C57   C     C_3   0.304198 0.935573 0.088760 -0.864575
C58   C     C_1   0.350205 0.088447 0.429146 0.138379
C59   C     C_1   0.647588 0.910324 0.576422 0.152888
C60   C     C_1   0.646559 0.100711 0.579395 0.159187
C61   C     C_1   0.348315 0.898989 0.443020 0.147791
C62   C     C_1   0.360848 0.659735 0.207918 0.171707
C63   C     C_1   0.348015 0.358268 0.775610 0.185104
C64   C     C_1   0.615176 0.648293 0.839488 0.180707
C65   C     C_1   0.372100 0.321892 0.230532 0.182578
C66   C     C_R   0.424793 0.949904 0.473929 -0.040171
C67   C     C_R   0.571154 0.049891 0.542628 -0.037388
C68   C     C_R   0.571625 0.955511 0.541607 -0.034461
H1    H     H_    0.248071 0.748646 0.619631 0.280155
H2    H     H_    0.781267 0.229617 0.226067 0.244692
H3    H     H_    0.833046 0.378807 0.298647 0.230499
H4    H     H_    0.918963 0.305570 0.272922 0.215854
H5    H     H_    0.926977 0.273975 0.501717 0.200936
H6    H     H_    0.840048 0.338228 0.533567 0.217712
H7    H     H_    0.780129 0.772278 0.421992 0.279201
H8    H     H_    0.875475 0.841460 0.436954 0.265858
H9    H     H_    0.832889 0.813505 0.283838 0.242742
H10   H     H_    0.955368 0.721207 0.325876 0.218016
H11   H     H_    0.859986 0.653286 0.320578 0.230386
H12   H     H_    0.160316 0.823283 0.623552 0.267711
H13   H     H_    0.854805 0.662922 0.561088 0.222374
H14   H     H_    0.950858 0.722059 0.562341 0.196669
H15   H     H_    0.113415 0.154219 0.534937 0.263981
H16   H     H_    0.209390 0.217817 0.572555 0.288238
H17   H     H_    0.144004 0.172968 0.696210 0.242567
H18   H     H_    0.127542 0.337363 0.667233 0.241716
H19   H     H_    0.031238 0.273683 0.647087 0.212197
H20   H     H_    0.050185 0.279960 0.409849 0.194136
H21   H     H_    0.147269 0.336048 0.429823 0.225387
H22   H     H_    0.522745 0.041619 0.258850 0.274120
H23   H     H_    0.199545 0.776017 0.766790 0.238686
H24   H     H_    0.577131 0.035090 0.112160 0.261563
H25   H     H_    0.631435 0.080580 0.248364 0.260574
H26   H     H_    0.586182 0.196381 0.092780 0.226510
H27   H     H_    0.544851 0.212303 0.247841 0.234029
H28   H     H_    0.405486 0.151781 0.186504 0.208148
H29   H     H_    0.445752 0.108832 0.044754 0.212095
H30   H     H_    0.734142 0.956956 0.009224 0.249477
H31   H     H_    0.716450 0.912720 0.853621 0.281241
H32   H     H_    0.641416 0.986748 0.921859 0.258529
H33   H     H_    0.616317 0.869463 0.093580 0.218412
H34   H     H_    0.067416 0.696791 0.704073 0.216301
H35   H     H_    0.681458 0.796398 0.005392 0.232334
H36   H     H_    0.582546 0.813397 0.817665 0.217962
H37   H     H_    0.516011 0.878195 0.908950 0.194416
H38   H     H_    0.301737 0.069878 0.676401 0.274833
H39   H     H_    0.353577 0.003733 0.793415 0.263250
H40   H     H_    0.241268 0.019595 0.800838 0.247863
H41   H     H_    0.311509 0.116446 0.957676 0.224677
H42   H     H_    0.267726 0.182884 0.836469 0.229752
H43   H     H_    0.406980 0.198526 0.732156 0.211929
H44   H     H_    0.455979 0.131056 0.843891 0.197620
H45   H     H_    0.155159 0.624302 0.692210 0.231076
H46   H     H_    0.251810 0.955465 0.026570 0.250056
H47   H     H_    0.277954 0.920907 0.182791 0.281097
H48   H     H_    0.350986 0.991535 0.096922 0.255777
H49   H     H_    0.363422 0.866858 0.935743 0.215310
H50   H     H_    0.298096 0.797347 0.034633 0.228665
H51   H     H_    0.407237 0.824054 0.211414 0.217472
H52   H     H_    0.471522 0.884030 0.107047 0.199016
H53   H     H_    0.162357 0.659964 0.456945 0.228674
H54   H     H_    0.073200 0.723732 0.470906 0.198724
H55   H     H_    0.830444 0.178443 0.359234 0.264064
H56   H     H_    0.744277 0.253211 0.382039 0.276120
N1    N     N_1   0.500000 0.270550 0.500000 -0.096566
N2    N     N_1   0.328685 0.312788 0.316568 -0.185879
N3    N     N_1   0.500000 0.729450 0.500000 -0.089647
N4    N     N_1   0.290222 0.122884 0.394628 -0.217034
N5    N     N_1   0.708191 0.874175 0.604216 -0.226000
N6    N     N_1   0.706714 0.141281 0.608809 -0.218037
N7    N     N_1   0.287236 0.858352 0.418564 -0.219552
N8    N     N_1   0.306569 0.659707 0.280045 -0.210686
N9    N     N_1   0.292348 0.366751 0.706944 -0.227839
N10   N     N_1   0.676198 0.642662 0.781182 -0.211737
O1    O     O_R   0.378020 0.573650 0.500040 -0.615213
O2    O     O_R   0.621980 0.426350 0.499960 -0.610803
O3    O     O_R   0.621980 0.573650 0.499960 -0.598824
O4    O     O_R   0.378020 0.426350 0.500040 -0.598632
O5    O     O_R   0.499990 0.573670 0.316780 -0.610996
O6    O     O_R   0.500010 0.426330 0.683220 -0.613814
O7    O     O_R   0.500010 0.573670 0.683220 -0.610183
O8    O     O_R   0.499990 0.426330 0.316780 -0.618246
Zn1   Zn    Zn3+2 0.500000 0.598370 0.500000 0.986640
Zn2   Zn    Zn3+2 0.500000 0.401630 0.500000 0.979791

loop_
_geom_bond_atom_site_label_1
_geom_bond_atom_site_label_2
_ccdc_geom_bond_type
C41   H21   S    
C21   C26   A    
C35   H6    S    
C58   N4    T    
C51   H44   S    
C54   H52   S    
C8    O2    A    
C43   H15   S    
C47   H24   S    
C35   C36   S    
C26   C44   S    
C57   H47   S    
C50   H31   S    
C63   N9    T    
C36   C37   S    
C24   C26   A    
O7    Zn1   S    
C49   H33   S    
C38   C39   S    
C27   C29   A    
C20   C25   A    
N1    Zn2   S    
C48   H36   S    
C6    C35   S    
C44   H29   S    
C41   C42   S    
C4    C13   A    
C37   H55   S    
O5    Zn1   S    
C61   C66   S    
C35   H5    S    
C46   H27   S    
C12   C16   T    
C60   C67   S    
C19   C63   S    
C22   C25   A    
C42   H18   S    
C23   C27   A    
C32   H45   S    
C14   C45   S    
C5    C13   A    
C36   H3    S    
C33   H1    S    
C24   C51   S    
O1    Zn1   S    
O3    Zn1   S    
C28   C34   A    
C1    C7    S    
C54   H51   S    
C38   H14   S    
C43   H16   S    
C22   C54   S    
C10   O6    A    
C53   H38   S    
C44   C46   S    
C57   H48   S    
C64   N10   T    
C50   H30   S    
C51   C52   S    
C43   H17   S    
C23   C30   A    
C62   N8    T    
C3    C38   S    
C4    C6    A    
C60   N6    T    
C6    C11   A    
C18   C62   S    
C3    C5    A    
C29   C34   A    
C14   N3    T    
C67   C68   A    
C8    O3    A    
C10   O7    A    
C39   H11   S    
C20   C64   S    
C39   H10   S    
C7    O1    A    
C44   H28   S    
C59   C68   S    
C37   H56   S    
C11   C16   S    
C53   H39   S    
C48   H37   S    
C46   H26   S    
C52   H42   S    
C8    C12   S    
C45   C68   A    
C47   H25   S    
C18   C29   A    
N3    Zn1   S    
C25   C48   S    
C31   H53   S    
C48   C49   S    
C21   C28   A    
C55   C57   S    
C38   H13   S    
C15   N1    T    
C9    C34   S    
C47   H22   S    
C32   H34   S    
C42   C43   S    
C39   C40   S    
C52   C53   S    
C55   H49   S    
C41   H20   S    
C54   C55   S    
C59   N5    T    
C51   H43   S    
C21   C65   S    
C18   C22   A    
C1    C17   T    
C31   C32   S    
O6    Zn2   S    
C31   H54   S    
C2    C66   A    
C49   H35   S    
C7    O4    A    
C9    O8    A    
C2    C58   S    
C33   H12   S    
C57   H46   S    
C20   C27   A    
C10   C23   S    
C56   C67   A    
C50   H32   S    
C40   H7    S    
C13   C17   S    
C65   N2    T    
C33   H23   S    
C19   C24   A    
O2    Zn2   S    
O4    Zn2   S    
C32   C33   S    
C9    O5    A    
C53   H40   S    
C52   H41   S    
C28   C30   A    
O8    Zn2   S    
C15   C56   S    
C46   C47   S    
C3    C11   A    
C61   N7    T    
C40   H8    S    
C49   C50   S    
C4    C41   S    
C45   C66   A    
C40   H9    S    
C2    C56   A    
C42   H19   S    
C37   H2    S    
C19   C30   A    
C36   H4    S    
C5    C31   S    
C55   H50   S    
