data_mof_unit_59965.cif
_audit_creation_date              2012-12-11T14:01:07-0500
_audit_creation_method            fapswitch 2.2
_symmetry_space_group_name_H-M    P1
_symmetry_Int_Tables_number       1
_space_group_crystal_system       triclinic
_cell_length_a                    19.088735
_cell_length_b                    10.930867
_cell_length_c                    18.681681
_cell_angle_alpha                 89.9706
_cell_angle_beta                  90.241135
_cell_angle_gamma                 89.876862
_cell_volume                      3898.00868669

loop_
_atom_site_label
_atom_site_type_symbol
_atom_type_description
_atom_site_fract_x
_atom_site_fract_y
_atom_site_fract_z
_atom_type_partial_charge
C1    C     C_R   0.273354 0.039696 0.854599 0.578773
C2    C     C_R   0.727069 0.041549 0.146046 0.547420
C3    C     C_R   0.773354 0.539696 0.854599 0.578775
C4    C     C_R   0.227070 0.541549 0.146046 0.547420
C5    C     C_R   0.548256 0.061769 0.052804 -0.093127
C6    C     C_R   0.542126 0.050590 0.904599 -0.081110
C7    C     C_R   0.048253 0.561769 0.052804 -0.093125
C8    C     C_R   0.042126 0.550590 0.904599 -0.081110
C9    C     C_R   0.050521 0.668678 0.012072 -0.139897
C10   C     C_R   0.048351 0.662776 0.938174 -0.114132
C11   C     C_R   0.550523 0.168678 0.012071 -0.139898
C12   C     C_R   0.548351 0.162776 0.938173 -0.114132
C13   C     C_2   0.246906 0.574528 0.918463 -0.130140
C14   C     C_2   0.758941 0.574710 0.083130 -0.119668
C15   C     C_2   0.746906 0.074527 0.918463 -0.130140
C16   C     C_2   0.258942 0.074710 0.083130 -0.119669
C17   C     C_2   0.248626 0.582214 0.075438 -0.091729
C18   C     C_2   0.753706 0.571326 0.927340 -0.078475
C19   C     C_2   0.748626 0.082214 0.075438 -0.091727
C20   C     C_2   0.253706 0.071326 0.927340 -0.078476
C21   C     C_2   0.289376 0.509349 0.035137 -0.126305
C22   C     C_2   0.725937 0.483929 0.969870 -0.127299
C23   C     C_2   0.789375 0.009348 0.035137 -0.126304
C24   C     C_2   0.225937 0.983929 0.969870 -0.127298
C25   C     C_2   0.299767 0.533321 0.959045 -0.144137
C26   C     C_2   0.715970 0.501972 0.046898 -0.142146
C27   C     C_2   0.799767 0.033320 0.959044 -0.144137
C28   C     C_2   0.215970 0.001972 0.046898 -0.142145
C29   C     C_2   0.452288 0.829893 0.565005 -0.096105
C30   C     C_2   0.481073 0.837764 0.411698 -0.105989
C31   C     C_2   0.952288 0.329893 0.565005 -0.096105
C32   C     C_2   0.981073 0.337764 0.411698 -0.105989
C33   C     C_2   0.455688 0.738925 0.445241 -0.152385
C34   C     C_2   0.431446 0.742621 0.519469 -0.164241
C35   C     C_2   0.955688 0.238925 0.445241 -0.152385
C36   C     C_2   0.931446 0.242621 0.519469 -0.164241
C37   C     C_2   0.254803 0.612897 0.568943 -0.101914
C38   C     C_2   0.745319 0.612695 0.430984 -0.089902
C39   C     C_2   0.754803 0.112897 0.568943 -0.101914
C40   C     C_2   0.245319 0.112695 0.430984 -0.089902
C41   C     C_2   0.257380 0.606094 0.413292 -0.107606
C42   C     C_2   0.742855 0.605920 0.586543 -0.099011
C43   C     C_2   0.757380 0.106094 0.413292 -0.107606
C44   C     C_2   0.242855 0.105920 0.586543 -0.099011
C45   C     C_R   0.476952 0.822055 0.848253 0.578685
C46   C     C_R   0.558509 0.818536 0.137494 0.557963
C47   C     C_R   0.976952 0.322055 0.848253 0.578685
C48   C     C_R   0.058508 0.318536 0.137494 0.557963
C49   C     C_2   0.218415 0.684429 0.450110 -0.161517
C50   C     C_2   0.782034 0.683655 0.549686 -0.167362
C51   C     C_2   0.718415 0.184429 0.450110 -0.161517
C52   C     C_2   0.282033 0.183655 0.549686 -0.167362
C53   C     C_2   0.230681 0.702700 0.525764 -0.152974
C54   C     C_2   0.769874 0.702020 0.474057 -0.148783
C55   C     C_2   0.730681 0.202700 0.525764 -0.152974
C56   C     C_2   0.269874 0.202020 0.474057 -0.148783
C57   C     C_R   0.260571 0.634666 0.850706 0.553555
C58   C     C_R   0.740515 0.633424 0.150192 0.548863
C59   C     C_R   0.760571 0.134665 0.850706 0.553556
C60   C     C_R   0.240515 0.133424 0.150192 0.548863
C61   C     C_R   0.270932 0.048816 0.649939 0.555182
C62   C     C_R   0.729124 0.048938 0.350018 0.558716
C63   C     C_R   0.770932 0.548816 0.649939 0.555183
C64   C     C_R   0.229124 0.548938 0.350018 0.558716
C65   C     C_R   0.436309 0.819658 0.640298 0.567238
C66   C     C_R   0.526835 0.824296 0.350183 0.565352
C67   C     C_R   0.936309 0.319658 0.640298 0.567238
C68   C     C_R   0.026835 0.324296 0.350183 0.565352
C69   C     C_R   0.261613 0.641635 0.643918 0.543492
C70   C     C_R   0.738418 0.641670 0.356051 0.551185
C71   C     C_R   0.761613 0.141635 0.643918 0.543492
C72   C     C_R   0.238418 0.141670 0.356051 0.551185
C73   C     C_R   0.543835 0.828097 0.058879 -0.060887
C74   C     C_R   0.525802 0.830330 0.909646 -0.034682
C75   C     C_R   0.043833 0.328097 0.058879 -0.060886
C76   C     C_R   0.025802 0.330330 0.909646 -0.034682
C77   C     C_R   0.544278 0.943560 0.020437 -0.004140
C78   C     C_R   0.536999 0.941640 0.944709 -0.003331
C79   C     C_R   0.044277 0.443560 0.020437 -0.004140
C80   C     C_R   0.036999 0.441640 0.944709 -0.003332
C81   C     C_R   0.544462 0.721359 0.943817 0.009324
C82   C     C_R   0.540712 0.717055 0.018437 0.005353
C83   C     C_R   0.044462 0.221359 0.943817 0.009321
C84   C     C_R   0.040711 0.217055 0.018437 0.005355
Cr1   Cr    Cr6+3 0.230530 0.836340 0.748870 1.031501
Cr2   Cr    Cr6+3 0.769470 0.836340 0.251130 1.019510
Cr3   Cr    Cr6+3 0.730530 0.336340 0.748870 1.031501
Cr4   Cr    Cr6+3 0.269470 0.336340 0.251130 1.019510
Cr5   Cr    Cr6+3 0.387420 0.989430 0.750820 1.023828
Cr6   Cr    Cr6+3 0.612580 0.989430 0.249180 1.012550
Cr7   Cr    Cr6+3 0.887420 0.489430 0.750820 1.023828
Cr8   Cr    Cr6+3 0.112580 0.489430 0.249180 1.012550
Cr9   Cr    Cr6+3 0.385640 0.677860 0.749230 1.051589
Cr10  Cr    Cr6+3 0.614360 0.677860 0.250770 1.060396
Cr11  Cr    Cr6+3 0.885640 0.177860 0.749230 1.051590
Cr12  Cr    Cr6+3 0.114360 0.177860 0.250770 1.060395
H1    H     H_    0.172044 0.726815 0.426895 0.155729
H2    H     H_    0.828421 0.725613 0.572896 0.155327
H3    H     H_    0.672045 0.226815 0.426895 0.155729
H4    H     H_    0.328421 0.225613 0.572896 0.155327
H5    H     H_    0.213709 0.790222 0.547338 0.154022
H6    H     H_    0.787146 0.789260 0.452458 0.154211
H7    H     H_    0.713709 0.290222 0.547338 0.154022
H8    H     H_    0.287146 0.289260 0.452458 0.154211
H9    H     H_    0.305938 0.569770 0.435410 0.095413
H10   H     H_    0.694316 0.569986 0.564407 0.110632
H11   H     H_    0.805938 0.069770 0.435410 0.095413
H12   H     H_    0.194316 0.069986 0.564407 0.110632
H13   H     H_    0.272359 0.524697 0.549150 0.087170
H14   H     H_    0.727591 0.524716 0.450812 0.085173
H15   H     H_    0.772359 0.024697 0.549150 0.087170
H16   H     H_    0.227591 0.024716 0.450812 0.085173
H17   H     H_    0.053963 0.756919 0.038211 0.155589
H18   H     H_    0.050852 0.744971 0.906458 0.135537
H19   H     H_    0.553965 0.256919 0.038211 0.155587
H20   H     H_    0.550851 0.244971 0.906458 0.135539
H21   H     H_    0.352029 0.521596 0.937311 0.199732
H22   H     H_    0.674023 0.454575 0.073728 0.201936
H23   H     H_    0.852028 0.021595 0.937311 0.199730
H24   H     H_    0.174023 0.954575 0.073728 0.201937
H25   H     H_    0.223665 0.662992 0.052785 0.104430
H26   H     H_    0.769530 0.659747 0.948251 0.096136
H27   H     H_    0.723665 0.162992 0.052785 0.104429
H28   H     H_    0.269530 0.159747 0.948251 0.096136
H29   H     H_    0.194401 0.581367 0.940309 0.122164
H30   H     H_    0.806914 0.606459 0.058040 0.117644
H31   H     H_    0.694401 0.081367 0.940308 0.122164
H32   H     H_    0.306914 0.106458 0.058040 0.117645
H33   H     H_    0.459196 0.649037 0.420707 0.153616
H34   H     H_    0.402764 0.663875 0.539245 0.138822
H35   H     H_    0.959196 0.149037 0.420707 0.153616
H36   H     H_    0.902764 0.163875 0.539245 0.138822
H37   H     H_    0.473805 0.929178 0.433027 0.104194
H38   H     H_    0.482656 0.908295 0.547915 0.112467
H39   H     H_    0.973805 0.429178 0.433027 0.104194
H40   H     H_    0.982656 0.408295 0.547915 0.112467
O1    O     O_R   0.215090 0.709860 0.828130 -0.527223
O2    O     O_R   0.784910 0.709860 0.171870 -0.523607
O3    O     O_R   0.715090 0.209860 0.828130 -0.527223
O4    O     O_R   0.284910 0.209860 0.171870 -0.523606
O5    O     O_R   0.445660 0.919250 0.676780 -0.501456
O6    O     O_R   0.554340 0.919250 0.323220 -0.491912
O7    O     O_R   0.945660 0.419250 0.676780 -0.501457
O8    O     O_R   0.054340 0.419250 0.323220 -0.491912
O9    O     O_R   0.456260 0.718170 0.670000 -0.490375
O10   O     O_R   0.543740 0.718170 0.330000 -0.508793
O11   O     O_R   0.956260 0.218170 0.670000 -0.490375
O12   O     O_R   0.043740 0.218170 0.330000 -0.508793
O13   O     O_R   0.320940 0.626760 0.674370 -0.521148
O14   O     O_R   0.679060 0.626760 0.325630 -0.496298
O15   O     O_R   0.820940 0.126760 0.674370 -0.521148
O16   O     O_R   0.179060 0.126760 0.325630 -0.496298
O17   O     O_3   0.334530 0.834540 0.749640 -0.281209
O18   O     O_3   0.665470 0.834540 0.250360 -0.270305
O19   O     O_3   0.834530 0.334540 0.749640 -0.281210
O20   O     O_3   0.165470 0.334540 0.250360 -0.270304
O21   O     O_R   0.236990 0.958390 0.823710 -0.481734
O22   O     O_R   0.763010 0.958390 0.176290 -0.495570
O23   O     O_R   0.736990 0.458390 0.823710 -0.481734
O24   O     O_R   0.263010 0.458390 0.176290 -0.495570
O25   O     O_R   0.332380 0.074750 0.830850 -0.509546
O26   O     O_R   0.667620 0.074750 0.169150 -0.537733
O27   O     O_R   0.832380 0.574750 0.830850 -0.509546
O28   O     O_R   0.167620 0.574750 0.169150 -0.537730
O29   O     O_R   0.445800 0.917770 0.825070 -0.508423
O30   O     O_R   0.554200 0.917770 0.174930 -0.525444
O31   O     O_R   0.945800 0.417770 0.825070 -0.508422
O32   O     O_R   0.054200 0.417770 0.174930 -0.525444
O33   O     O_R   0.456410 0.716580 0.829970 -0.474042
O34   O     O_R   0.543590 0.716580 0.170030 -0.465034
O35   O     O_R   0.956410 0.216580 0.829970 -0.474042
O36   O     O_R   0.043590 0.216580 0.170030 -0.465036
O37   O     O_R   0.321080 0.625290 0.822650 -0.489845
O38   O     O_R   0.678920 0.625290 0.177350 -0.476627
O39   O     O_R   0.821080 0.125290 0.822650 -0.489845
O40   O     O_R   0.178920 0.125290 0.177350 -0.476628
O41   O     O_R   0.214930 0.711450 0.668160 -0.508609
O42   O     O_R   0.785070 0.711450 0.331840 -0.513922
O43   O     O_R   0.714930 0.211450 0.668160 -0.508610
O44   O     O_R   0.285070 0.211450 0.331840 -0.513922
O45   O     O_R   0.236850 0.959870 0.675420 -0.499796
O46   O     O_R   0.763150 0.959870 0.324580 -0.504368
O47   O     O_R   0.736850 0.459870 0.675420 -0.499796
O48   O     O_R   0.263150 0.459870 0.324580 -0.504368
O49   O     O_R   0.332230 0.076350 0.670880 -0.520266
O50   O     O_R   0.667770 0.076350 0.329120 -0.508654
O51   O     O_R   0.832230 0.576350 0.670880 -0.520266
O52   O     O_R   0.167770 0.576350 0.329120 -0.508654
C85   C     C_2   0.569412 0.615142 0.900142 0.598220
O53   O     O_2   0.593385 0.633543 0.840422 -0.511177
O54   O     O_R   0.568197 0.495929 0.926812 -0.695834
H41   H     H_    0.589768 0.435766 0.892050 0.323845
C86   C     C_2   0.519190 0.598866 0.050352 0.659948
O55   O     O_2   0.560950 0.536016 0.083548 -0.517425
O56   O     O_R   0.450781 0.557824 0.039980 -0.698918
H42   H     H_    0.442491 0.474959 0.062789 0.325416
C87   C     C_2   0.069411 0.115141 0.900143 0.598220
O57   O     O_2   0.093382 0.133541 0.840422 -0.511176
O58   O     O_R   0.068198 0.995929 0.926814 -0.695835
H43   H     H_    0.089768 0.935766 0.892052 0.323845
C88   C     C_2   0.019189 0.098866 0.050353 0.659948
O59   O     O_2   0.060949 0.036015 0.083547 -0.517424
O60   O     O_R   0.950778 0.057829 0.039984 -0.698919
H44   H     H_    0.942488 0.974964 0.062794 0.325415
H45   H     H_    0.547556 0.079610 0.108898 0.179433
H46   H     H_    0.543261 0.049422 0.846684 0.136179
H47   H     H_    0.047551 0.579610 0.108899 0.179429
H48   H     H_    0.043262 0.549421 0.846684 0.136178
H49   H     H_    0.315084 0.429323 0.057693 0.155634
H50   H     H_    0.710115 0.396066 0.948027 0.155193
H51   H     H_    0.815083 0.929321 0.057692 0.155633
H52   H     H_    0.210116 0.896066 0.948027 0.155193

loop_
_geom_bond_atom_site_label_1
_geom_bond_atom_site_label_2
_ccdc_geom_bond_type
C84   C88   S    
C16   C28   D    
C45   O33   A    
O60   H44   S    
C38   C70   S    
Cr10  O10   S    
C37   C69   S    
C88   O59   D    
Cr9   O13   S    
C35   C36   S    
C70   O14   A    
C67   O7    A    
C2    O26   A    
C81   C82   A    
C24   H52   S    
C40   H16   S    
Cr12  O20   S    
C77   C78   A    
C31   C67   S    
C19   H27   S    
C50   C54   S    
C75   C79   A    
C41   H9    S    
Cr6   O26   S    
Cr4   O20   S    
Cr7   O31   S    
C47   C76   S    
C5    C11   A    
C59   O39   A    
C36   H36   S    
C6    C12   A    
Cr5   O5    S    
C75   C84   A    
Cr4   O48   S    
C13   C57   S    
Cr12  O16   S    
C55   H7    S    
Cr2   O42   S    
C65   O5    A    
C3    C18   S    
C8    H48   S    
C16   C60   S    
C71   O43   A    
C85   O54   S    
Cr11  O39   S    
Cr4   O4    S    
C82   C86   S    
C21   C25   S    
C69   O41   A    
C48   O36   A    
Cr5   O17   S    
C41   C49   D    
C71   O15   A    
C20   C24   D    
C53   H5    S    
C72   O16   A    
C48   O32   A    
C76   C80   A    
C4    O28   A    
Cr9   O9    S    
C23   C27   S    
C38   H14   S    
C40   C72   S    
C9    C10   A    
C37   H13   S    
C10   H18   S    
C3    O27   A    
C62   O50   A    
C37   C53   D    
Cr8   O28   S    
C39   H15   S    
C29   H38   S    
C1    O25   A    
O58   H43   S    
C15   H31   S    
Cr6   O30   S    
C3    O23   A    
C88   O60   S    
C48   C75   S    
Cr7   O27   S    
C58   O38   A    
Cr1   O21   S    
Cr12  O12   S    
C76   C83   A    
Cr5   O25   S    
C30   C66   S    
C5    H45   S    
C61   O49   A    
Cr4   O44   S    
Cr7   O7    S    
C44   H12   S    
C51   H3    S    
C14   C58   S    
C39   C55   D    
C50   H2    S    
C63   O47   A    
O54   H41   S    
Cr2   O46   S    
C32   C35   D    
C24   C28   S    
Cr11  O11   S    
C56   H8    S    
C7    H47   S    
C28   H24   S    
C70   O42   A    
C6    H46   S    
Cr1   O17   S    
O56   H42   S    
Cr6   O50   S    
C51   C55   S    
C40   C56   D    
C49   H1    S    
C29   C34   D    
C52   H4    S    
C17   C21   D    
C46   O34   A    
C25   H21   S    
C45   C74   S    
C64   O48   A    
C19   C23   D    
Cr12  O36   S    
Cr7   O19   S    
C62   O46   A    
C47   O31   A    
Cr8   O32   S    
C15   C27   D    
C83   C84   A    
C38   C54   D    
Cr1   O41   S    
C59   O3    A    
C42   C50   D    
Cr10  O18   S    
C30   H37   S    
Cr9   O33   S    
C64   O52   A    
C86   O56   S    
C33   C34   S    
C57   O1    A    
Cr8   O20   S    
C43   H11   S    
C14   C26   D    
C87   O58   S    
C16   H32   S    
C81   C85   S    
Cr6   O6    S    
C60   O4    A    
C57   O37   A    
C4    C17   S    
C17   H25   S    
C18   H26   S    
C58   O2    A    
C21   H49   S    
C63   O51   A    
C74   C78   A    
C60   O40   A    
C29   C65   S    
Cr11  O15   S    
C72   O44   A    
C74   C81   A    
C5    C77   A    
Cr1   O1    S    
C73   C82   A    
C66   O10   A    
C11   H19   S    
C7    C79   A    
C33   H33   S    
C85   O53   D    
C7    C9    A    
Cr7   O51   S    
C1    C20   S    
Cr1   O45   S    
C46   O30   A    
C30   C33   D    
C2    C19   S    
C18   C22   D    
Cr5   O49   S    
C54   H6    S    
C26   H22   S    
Cr3   O3    S    
C31   H40   S    
C13   C25   D    
C68   O12   A    
C44   C52   D    
Cr12  O40   S    
C32   H39   S    
C47   O35   A    
C11   C12   A    
Cr2   O22   S    
C66   O6    A    
Cr3   O19   S    
C27   H23   S    
C44   C61   S    
Cr10  O14   S    
C61   O45   A    
C14   H30   S    
C32   C68   S    
C69   O13   A    
C1    O21   A    
Cr2   O18   S    
C35   H35   S    
C13   H29   S    
Cr10  O34   S    
Cr3   O47   S    
C43   C51   D    
Cr6   O18   S    
C4    O24   A    
C23   H51   S    
C49   C53   S    
C22   H50   S    
C65   O9    A    
Cr9   O37   S    
Cr3   O23   S    
C68   O8    A    
Cr11  O19   S    
Cr4   O24   S    
C87   O57   D    
Cr8   O8    S    
C15   C59   S    
C9    H17   S    
C20   H28   S    
C6    C78   A    
C83   C87   S    
Cr2   O2    S    
Cr3   O43   S    
C79   C80   A    
C42   H10   S    
Cr9   O17   S    
C2    O22   A    
C34   H34   S    
C73   C77   A    
C8    C10   A    
C86   O55   D    
C22   C26   S    
C67   O11   A    
Cr10  O38   S    
C8    C80   A    
C39   C71   S    
C31   C36   D    
C41   C64   S    
Cr11  O35   S    
C45   O29   A    
C42   C63   S    
C46   C73   S    
Cr8   O52   S    
C52   C56   S    
C43   C62   S    
C12   H20   S    
Cr5   O29   S    
