data_mof_unit_6776.cif
_audit_creation_date              2012-10-26T20:11:40-0400
_audit_creation_method            fapswitch 2.2
_symmetry_space_group_name_H-M    P1
_symmetry_Int_Tables_number       1
_space_group_crystal_system       triclinic
_cell_length_a                    11.049302
_cell_length_b                    15.132369
_cell_length_c                    13.860816
_cell_angle_alpha                 89.220684
_cell_angle_beta                  103.146992
_cell_angle_gamma                 90.345426
_cell_volume                      2256.59496951

loop_
_atom_site_label
_atom_site_type_symbol
_atom_type_description
_atom_site_fract_x
_atom_site_fract_y
_atom_site_fract_z
_atom_type_partial_charge
C1    C     C_R   0.503440 0.329804 0.501522 0.539651
C2    C     C_R   0.604328 0.524666 0.809096 0.040926
C3    C     C_R   0.418556 0.445267 0.094332 -0.144166
C4    C     C_R   0.607436 0.523769 0.911084 -0.148016
C5    C     C_R   0.501507 0.498830 0.055233 0.027379
C6    C     C_R   0.501457 0.498912 0.945831 0.025979
C7    C     C_R   0.262381 0.499940 0.459430 0.565671
C8    C     C_R   0.737516 0.499862 0.540547 0.555459
C9    C     C_2   0.126742 0.504383 0.435107 0.218678
C10   C     C_2   0.872873 0.494536 0.565003 0.217019
C11   C     C_2   0.066636 0.492424 0.508127 -0.126032
C12   C     C_R   0.503615 0.670293 0.499914 0.540104
C13   C     C_2   0.933522 0.508373 0.492648 -0.125929
C14   C     C_R   0.548327 0.091416 0.589262 -0.103895
C15   C     C_R   0.551136 0.910172 0.433736 -0.102903
C16   C     C_R   0.558337 0.183593 0.591265 0.009122
C17   C     C_R   0.560693 0.818091 0.433570 0.011091
C18   C     C_R   0.504637 0.232933 0.504066 0.024053
C19   C     C_R   0.504833 0.767331 0.498970 0.023631
C20   C     C_R   0.447459 0.188524 0.417191 -0.147683
C21   C     C_R   0.446352 0.810604 0.565063 -0.143149
C22   C     C_R   0.441704 0.096912 0.416036 -0.131215
C23   C     C_R   0.491243 0.048325 0.502157 0.013199
C24   C     C_R   0.440978 0.902244 0.565909 -0.132506
C25   C     C_3   0.965796 0.531371 0.723438 0.003439
C26   C     C_3   0.011279 0.492860 0.827832 -0.256604
C27   C     C_3   0.057971 0.564838 0.903362 -0.495224
C28   C     C_3   0.035798 0.460288 0.279047 0.006849
C29   C     C_3   0.964069 0.492504 0.177149 -0.252410
C30   C     C_3   0.931875 0.416420 0.104557 -0.492163
C31   C     C_3   0.633854 0.224816 0.685117 -0.259570
C32   C     C_3   0.555642 0.236486 0.761808 -0.415998
C33   C     C_3   0.637146 0.778972 0.366977 -0.270342
C34   C     C_R   0.492203 0.952019 0.499540 0.012429
C35   C     C_3   0.562253 0.775349 0.259962 -0.424712
C36   C     C_R   0.584363 0.552376 0.122726 -0.147139
C37   C     C_R   0.395028 0.474319 0.873896 -0.148114
C38   C     C_R   0.583133 0.550989 0.223868 0.037522
C39   C     C_R   0.396671 0.474259 0.772862 0.033747
C40   C     C_R   0.418742 0.447402 0.195717 0.049466
Cu1   Cu    Cu3+1 0.500000 0.499990 0.596430 0.918971
Cu2   Cu    Cu3+1 0.500000 0.500010 0.403570 0.928531
H1    H     H_    0.883309 0.531622 0.420071 0.149870
H2    H     H_    0.395962 0.934408 0.617674 0.111115
H3    H     H_    0.649250 0.596233 0.098274 0.081982
H4    H     H_    0.309748 0.456005 0.894636 0.085328
H5    H     H_    0.648939 0.591118 0.274658 0.115743
H6    H     H_    0.314155 0.453427 0.720091 0.121381
H7    H     H_    0.354351 0.406029 0.224248 0.106823
H8    H     H_    0.686508 0.545012 0.784779 0.120504
H9    H     H_    0.885018 0.575272 0.723254 0.128123
H10   H     H_    0.041866 0.571161 0.703469 0.129185
H11   H     H_    0.933867 0.456299 0.849628 0.164646
H12   H     H_    0.117231 0.470999 0.581252 0.143640
H13   H     H_    0.087763 0.445466 0.828192 0.163909
H14   H     H_    0.136213 0.601779 0.883476 0.153073
H15   H     H_    0.091592 0.534169 0.977813 0.147150
H16   H     H_    0.981660 0.611418 0.906453 0.141361
H17   H     H_    0.976540 0.412071 0.309057 0.128108
H18   H     H_    0.122206 0.426775 0.270476 0.136376
H19   H     H_    0.876799 0.525086 0.184601 0.163413
H20   H     H_    0.021230 0.541877 0.147127 0.173449
H21   H     H_    0.017972 0.383757 0.094737 0.138489
H22   H     H_    0.880457 0.442250 0.031453 0.141988
H23   H     H_    0.354627 0.400670 0.047882 0.081048
H24   H     H_    0.872335 0.367130 0.131988 0.153417
H25   H     H_    0.611975 0.269815 0.828031 0.138183
H26   H     H_    0.472327 0.277345 0.731236 0.180099
H27   H     H_    0.525094 0.171067 0.784990 0.133952
H28   H     H_    0.714230 0.181605 0.717724 0.125672
H29   H     H_    0.675813 0.288782 0.669869 0.183376
H30   H     H_    0.621184 0.748894 0.212062 0.122060
H31   H     H_    0.479632 0.731947 0.254412 0.184006
H32   H     H_    0.530976 0.842578 0.232417 0.141949
H33   H     H_    0.673750 0.712733 0.392972 0.153245
H34   H     H_    0.693399 0.541701 0.961771 0.082416
H35   H     H_    0.721020 0.820659 0.369477 0.129192
H36   H     H_    0.589621 0.052726 0.654802 0.106836
H37   H     H_    0.593787 0.949823 0.384631 0.108823
H38   H     H_    0.406065 0.224830 0.349978 0.116297
H39   H     H_    0.403461 0.773369 0.615788 0.129974
H40   H     H_    0.398184 0.063762 0.348078 0.110543
N1    N     N_R   0.500000 0.500020 0.258690 -0.216371
N2    N     N_R   0.500000 0.499980 0.741310 -0.219123
O1    O     O_R   0.500010 0.371450 0.581440 -0.503496
O2    O     O_3   0.064803 0.533743 0.341863 -0.577387
O3    O     O_R   0.499990 0.628550 0.418560 -0.500868
O4    O     O_R   0.500010 0.371460 0.418560 -0.507988
O5    O     O_R   0.499990 0.628540 0.581440 -0.502848
O6    O     O_R   0.320690 0.500000 0.551510 -0.538379
O7    O     O_R   0.679310 0.500000 0.448490 -0.534929
O8    O     O_R   0.320690 0.500010 0.388630 -0.481792
O9    O     O_R   0.679310 0.499990 0.611370 -0.496390
O10   O     O_3   0.932996 0.460935 0.656771 -0.582319

loop_
_geom_bond_atom_site_label_1
_geom_bond_atom_site_label_2
_ccdc_geom_bond_type
Cu1   O5    S    
C35   H32   S    
C30   H22   S    
C38   N1    A    
C11   C13   S    
Cu1   Cu2   S    
C2    N2    A    
C26   H13   S    
C16   C31   S    
C26   C27   S    
C22   H40   S    
C28   C29   S    
C19   C21   A    
C39   N2    A    
C5    C6    S    
C10   O10   S    
C40   H7    S    
C5    C36   A    
C15   C17   A    
Cu2   O7    S    
C2    H8    S    
C17   C19   A    
C33   H33   S    
C31   H28   S    
C15   H37   S    
C15   C34   A    
C18   C20   A    
C32   H26   S    
C1    O4    A    
C31   H29   S    
Cu1   O6    S    
C25   O10   S    
C30   H21   S    
C40   N1    A    
C3    H23   S    
C17   C33   S    
C28   H18   S    
C1    O1    A    
C29   H19   S    
C20   H38   S    
C12   O5    A    
C4    C6    A    
C27   H15   S    
C27   H14   S    
C25   C26   S    
C7    O6    A    
C10   C13   D    
C24   C34   A    
C14   C23   A    
C2    C4    A    
C25   H9    S    
C29   C30   S    
C9    O2    S    
C31   C32   S    
C23   C34   S    
C1    C18   S    
C6    C37   A    
C36   H3    S    
C8    O7    A    
C9    C11   D    
C38   H5    S    
C30   H24   S    
C11   H12   S    
C32   H25   S    
C16   C18   A    
C21   H39   S    
C35   H30   S    
C28   O2    S    
C24   H2    S    
C14   C16   A    
Cu2   O4    S    
C26   H11   S    
C13   H1    S    
C28   H17   S    
C7    C9    S    
C29   H20   S    
C35   H31   S    
C12   O3    A    
C8    O9    A    
C20   C22   A    
C3    C5    A    
C27   H16   S    
C3    C40   A    
C32   H27   S    
Cu1   O1    S    
Cu1   O9    S    
C36   C38   A    
Cu2   N1    S    
C25   H10   S    
C37   C39   A    
Cu1   N2    S    
C33   H35   S    
C7    O8    A    
C12   C19   S    
C33   C35   S    
Cu2   O8    S    
C14   H36   S    
C4    H34   S    
C8    C10   S    
C21   C24   A    
C22   C23   A    
Cu2   O3    S    
C37   H4    S    
C39   H6    S    
