data_mof_unit_25027.cif
_audit_creation_date              2012-12-10T21:27:23-0500
_audit_creation_method            fapswitch 2.2
_symmetry_space_group_name_H-M    P1
_symmetry_Int_Tables_number       1
_space_group_crystal_system       triclinic
_cell_length_a                    10.844708
_cell_length_b                    16.206943
_cell_length_c                    16.775016
_cell_angle_alpha                 87.488261
_cell_angle_beta                  93.326771
_cell_angle_gamma                 105.636717
_cell_volume                      2833.24757623

loop_
_atom_site_label
_atom_site_type_symbol
_atom_type_description
_atom_site_fract_x
_atom_site_fract_y
_atom_site_fract_z
_atom_type_partial_charge
C1    C     C_R   0.484838 0.486424 0.651847 0.927654
C2    C     C_R   0.473721 0.105602 0.476195 0.027811
C3    C     C_R   0.620127 0.863621 0.550110 0.162340
C4    C     C_R   0.418514 0.149740 0.416577 0.192530
C5    C     C_R   0.598252 0.772515 0.562331 0.445918
C6    C     C_R   0.416260 0.235634 0.427595 0.433621
C7    C     C_R   0.742086 0.534627 0.505031 0.935245
C8    C     C_R   0.256968 0.464834 0.502551 0.902813
C9    C     C_2   0.873399 0.548873 0.532548 0.200429
C10   C     C_2   0.119073 0.448557 0.507344 0.234320
C11   C     C_2   0.955357 0.526413 0.486070 -0.145902
C12   C     C_R   0.503567 0.511852 0.347087 0.987910
C13   C     C_2   0.074927 0.515971 0.525219 -0.058902
C14   C     C_R   0.443954 0.474067 0.734471 -0.140597
C15   C     C_R   0.496505 0.518687 0.260385 -0.151851
C16   C     C_R   0.445912 0.548133 0.774728 -0.227111
C17   C     C_R   0.420769 0.447405 0.220465 -0.248875
C18   C     C_R   0.418571 0.544181 0.853805 -0.226440
C19   C     C_R   0.399475 0.450740 0.139019 -0.236206
C20   C     C_R   0.392466 0.465439 0.896068 0.223008
C21   C     C_R   0.453611 0.526375 0.095293 0.201834
C22   C     C_R   0.378685 0.389189 0.855776 0.387922
C23   C     C_R   0.395070 0.392435 0.772692 -0.175537
C24   C     C_R   0.527041 0.599675 0.134498 0.384990
C25   C     C_2   0.148216 0.583426 0.581490 1.019323
C26   C     C_2   0.934915 0.515377 0.397160 0.971786
C27   C     C_3   0.696026 0.786542 0.692387 0.139977
C28   C     C_3   0.692015 0.732146 0.769336 -0.919608
C29   C     C_3   0.217929 0.244528 0.382613 0.107484
C30   C     C_3   0.146715 0.294129 0.326413 -0.745101
C31   C     C_3   0.979070 0.319583 0.531404 0.111300
C32   C     C_3   0.877042 0.246350 0.493472 -0.806784
C33   C     C_3   0.875999 0.625124 0.645444 0.163783
C34   C     C_R   0.554399 0.595367 0.217427 -0.157366
C35   C     C_3   0.946696 0.642666 0.726596 -0.808064
C36   C     C_3   0.450250 0.290291 0.931541 0.142695
C37   C     C_3   0.409587 0.203504 0.974814 -0.775662
C38   C     C_3   0.495118 0.719148 0.070073 0.139788
C39   C     C_3   0.559113 0.799362 0.021861 -0.776160
C40   C     C_2   0.347057 0.312218 0.727218 0.998050
C41   C     C_2   0.648402 0.668703 0.256812 1.034828
C42   C     C_2   0.615584 0.285205 0.618459 1.038206
C43   C     C_2   0.356704 0.699111 0.394272 1.083074
C44   C     C_3   0.469265 0.063114 0.655752 0.192489
C45   C     C_R   0.437405 0.751959 0.456765 -0.140220
C46   C     C_3   0.519689 0.019289 0.727530 -0.762156
C47   C     C_3   0.234975 0.856611 0.450041 0.138185
C48   C     C_3   0.140086 0.892724 0.399023 -0.788011
C49   C     C_3   0.830879 0.929951 0.537939 0.126424
C50   C     C_3   0.945389 0.996734 0.573409 -0.836557
C51   C     C_3   0.446500 0.127711 0.287120 0.167935
C52   C     C_3   0.382938 0.081351 0.212440 -0.799767
C53   C     C_R   0.540302 0.239048 0.549572 -0.168593
C54   C     C_R   0.436250 0.839034 0.457613 0.263277
C55   C     C_R   0.527277 0.149791 0.546277 0.243440
C56   C     C_R   0.532975 0.896985 0.502623 0.073057
H1    H     H_    0.376833 0.388478 0.252442 0.221893
H2    H     H_    0.772105 0.763447 0.811465 0.230936
H3    H     H_    0.601697 0.727104 0.799438 0.229965
H4    H     H_    0.194113 0.252411 0.445057 0.159122
H5    H     H_    0.182554 0.175624 0.368021 0.166045
H6    H     H_    0.164209 0.284101 0.263442 0.224818
H7    H     H_    0.042157 0.271342 0.334965 0.229393
H8    H     H_    0.179850 0.363651 0.338559 0.281223
H9    H     H_    0.931463 0.351472 0.573114 0.205936
H10   H     H_    0.050233 0.292264 0.565972 0.163128
H11   H     H_    0.921799 0.210253 0.454359 0.233207
H12   H     H_    0.467257 0.610107 0.744557 0.203108
H13   H     H_    0.827305 0.201821 0.540851 0.240334
H14   H     H_    0.805441 0.271878 0.457552 0.264941
H15   H     H_    0.771920 0.613397 0.653247 0.190045
H16   H     H_    0.910492 0.682991 0.605833 0.163583
H17   H     H_    0.050080 0.647857 0.721636 0.273059
H18   H     H_    0.937687 0.704008 0.749078 0.208708
H19   H     H_    0.905979 0.589902 0.769911 0.255058
H20   H     H_    0.501715 0.338376 0.975851 0.135291
H21   H     H_    0.517496 0.286219 0.885000 0.159136
H22   H     H_    0.359475 0.153590 0.932024 0.274076
H23   H     H_    0.342271 0.393368 0.110441 0.185326
H24   H     H_    0.495303 0.186185 0.002167 0.194802
H25   H     H_    0.344200 0.205962 0.022704 0.247869
H26   H     H_    0.458830 0.739067 0.124919 0.175550
H27   H     H_    0.412423 0.681173 0.033078 0.124023
H28   H     H_    0.594339 0.781358 0.966010 0.246201
H29   H     H_    0.489090 0.837079 0.006063 0.196840
H30   H     H_    0.641202 0.839597 0.057451 0.276287
H31   H     H_    0.252211 0.255200 0.628624 0.311555
H32   H     H_    0.791526 0.708245 0.340440 0.330365
H33   H     H_    0.653772 0.287877 0.737675 0.328212
H34   H     H_    0.422685 0.603403 0.882742 0.169365
H35   H     H_    0.335102 0.668188 0.278252 0.322995
H36   H     H_    0.399934 0.012945 0.620403 0.107670
H37   H     H_    0.417315 0.107592 0.677812 0.185243
H38   H     H_    0.587267 0.067839 0.765157 0.272898
H39   H     H_    0.438713 0.983742 0.763857 0.187119
H40   H     H_    0.570286 0.973440 0.707195 0.259743
H41   H     H_    0.254644 0.890751 0.507593 0.126940
H42   H     H_    0.189119 0.787613 0.462554 0.198242
H43   H     H_    0.118510 0.860022 0.341043 0.267531
H44   H     H_    0.049624 0.882430 0.430505 0.183398
H45   H     H_    0.258077 0.611273 0.682585 0.327718
H46   H     H_    0.180616 0.962516 0.387768 0.288905
H47   H     H_    0.810223 0.951809 0.475852 0.152207
H48   H     H_    0.857097 0.868152 0.536094 0.131381
H49   H     H_    0.969838 0.976415 0.635055 0.251078
H50   H     H_    0.029475 0.004144 0.536295 0.196636
H51   H     H_    0.922700 0.059493 0.575082 0.270571
H52   H     H_    0.534614 0.106721 0.303747 0.146308
H53   H     H_    0.473649 0.197876 0.272709 0.155495
H54   H     H_    0.295556 0.101902 0.193747 0.251181
H55   H     H_    0.450304 0.096752 0.163153 0.200202
H56   H     H_    0.013594 0.504612 0.293112 0.341284
H57   H     H_    0.355844 0.010985 0.224518 0.278734
H58   H     H_    0.631939 0.828656 0.700598 0.161410
H59   H     H_    0.796302 0.826295 0.686925 0.186565
H60   H     H_    0.699558 0.666998 0.758066 0.277365
N1    N     N_2   0.385731 0.461442 0.979802 -0.171950
N2    N     N_2   0.447285 0.529423 0.011152 -0.168624
N3    N     N_R   0.515370 0.719110 0.509820 -0.189939
N4    N     N_R   0.484630 0.280890 0.490180 -0.192626
N5    N     N_2   0.546538 0.987875 0.505197 -0.051836
N6    N     N_2   0.464176 0.016269 0.466046 -0.064291
O1    O     O_R   0.494500 0.421750 0.612630 -0.603293
O2    O     O_R   0.214896 0.560263 0.648737 -0.816623
O3    O     O_2   0.830211 0.509407 0.363205 -0.627897
O4    O     O_R   0.038119 0.512316 0.352100 -0.755501
O5    O     O_3   0.659875 0.735059 0.623796 -0.616209
O6    O     O_3   0.351091 0.275946 0.372309 -0.588611
O7    O     O_3   0.039695 0.377070 0.471022 -0.617915
O8    O     O_3   0.898994 0.551358 0.614836 -0.613635
O9    O     O_3   0.340228 0.311378 0.896997 -0.581418
O10   O     O_3   0.585605 0.672156 0.089982 -0.582881
O11   O     O_2   0.359020 0.244008 0.755922 -0.606086
O12   O     O_R   0.505500 0.578250 0.387370 -0.612971
O13   O     O_R   0.279989 0.313554 0.653681 -0.815934
O14   O     O_2   0.653958 0.742426 0.234567 -0.591142
O15   O     O_R   0.732625 0.653458 0.318449 -0.780098
O16   O     O_2   0.701331 0.350188 0.607671 -0.620759
O17   O     O_R   0.595081 0.251170 0.696013 -0.785180
O18   O     O_2   0.248178 0.656973 0.407907 -0.622999
O19   O     O_R   0.399971 0.705162 0.316901 -0.793645
O20   O     O_3   0.573552 0.107822 0.610060 -0.552353
O21   O     O_3   0.348363 0.867702 0.408446 -0.564197
O22   O     O_3   0.724773 0.921142 0.585689 -0.599468
O23   O     O_R   0.504370 0.562470 0.618930 -0.585757
O24   O     O_3   0.359828 0.107197 0.349126 -0.596221
O25   O     O_R   0.495630 0.437530 0.381070 -0.562924
O26   O     O_R   0.679100 0.455920 0.498020 -0.553239
O27   O     O_R   0.320900 0.544080 0.501980 -0.627895
O28   O     O_R   0.688960 0.596630 0.504320 -0.623195
O29   O     O_R   0.311040 0.403370 0.495680 -0.583777
O30   O     O_2   0.148324 0.658371 0.569147 -0.670665
Zn1   Zn    Zn3+2 0.493410 0.406040 0.495790 1.036521
Zn2   Zn    Zn3+2 0.506590 0.593960 0.504210 1.019034

loop_
_geom_bond_atom_site_label_1
_geom_bond_atom_site_label_2
_ccdc_geom_bond_type
C33   O8    S    
C31   H10   S    
C35   H18   S    
C30   H8    S    
C38   H27   S    
C42   O16   D    
C1    O23   A    
C13   C25   S    
C49   H48   S    
C53   N4    A    
C52   H57   S    
C35   H19   S    
C29   C30   S    
C47   H42   S    
C5    N3    A    
C25   O30   D    
C12   O25   A    
C36   C37   S    
C19   C21   A    
C39   H28   S    
C36   H21   S    
C42   C53   S    
C38   C39   S    
C22   O9    S    
C23   C40   S    
C49   O22   S    
C47   O21   S    
C31   H9    S    
C26   O4    S    
C44   H37   S    
C36   H20   S    
C33   H16   S    
C17   C19   A    
C27   O5    S    
C46   H39   S    
C47   C48   S    
C51   H52   S    
H33   O17   S    
C50   H49   S    
C12   C15   S    
C16   H12   S    
C28   H60   S    
C15   C34   A    
H56   O4    S    
C44   H36   S    
C45   N3    A    
C53   C55   A    
C54   O21   S    
C48   H46   S    
C51   H53   S    
C55   O20   S    
C12   O12   A    
C30   H7    S    
C38   H26   S    
C37   H25   S    
C34   C41   S    
C6    N4    A    
C20   N1    S    
C40   O13   S    
C44   C46   S    
C29   H5    S    
C2    N6    S    
C48   H44   S    
C37   H24   S    
C54   C56   A    
H45   O2    S    
C51   O24   S    
C51   C52   S    
C18   H34   S    
H31   O13   S    
C8    O29   A    
C4    C6    A    
C36   O9    S    
C32   H14   S    
C11   C26   S    
C9    O8    S    
C24   C34   A    
C26   O3    D    
C38   O10   S    
C14   C23   A    
C29   O6    S    
C2    C4    A    
O27   Zn2   S    
C1    O1    A    
C21   N2    S    
C7    O28   A    
C9    C11   D    
C3    C56   A    
C24   O10   S    
C31   C32   S    
C46   H38   S    
C29   H4    S    
C52   H54   S    
C4    O24   S    
C5    O5    S    
C43   O18   D    
C16   C18   A    
C19   H23   S    
C43   C45   S    
N5    N6    D    
C32   H11   S    
O23   Zn2   S    
C8    C10   S    
C20   C22   A    
C45   C54   A    
N3    Zn2   S    
C30   H6    S    
C50   H51   S    
C14   C16   A    
C43   O19   S    
O26   Zn1   S    
C39   H29   S    
C7    O26   A    
O1    Zn1   S    
C28   H3    S    
C7    C9    S    
C48   H43   S    
C35   H17   S    
C42   O17   S    
C41   O15   S    
C3    O22   S    
C3    C5    A    
C10   C13   D    
C47   H41   S    
C49   H47   S    
C15   C17   A    
C32   H13   S    
C28   H2    S    
C40   O11   D    
C52   H55   S    
C2    C55   A    
C56   N5    S    
C8    O27   A    
C10   O7    S    
C6    O6    S    
C31   O7    S    
N1    N2    D    
C11   C13   S    
O12   Zn2   S    
N4    Zn1   S    
C33   C35   S    
C18   C20   A    
O29   Zn1   S    
O25   Zn1   S    
C25   O2    S    
H32   O15   S    
C33   H15   S    
C27   H58   S    
C46   H40   S    
C44   O20   S    
C49   C50   S    
O28   Zn2   S    
C21   C24   A    
C27   C28   S    
C50   H50   S    
C22   C23   A    
C1    C14   S    
C39   H30   S    
C37   H22   S    
C41   O14   D    
C17   H1    S    
H35   O19   S    
C27   H59   S    
