data_mof_unit_47798.cif
_audit_creation_date              2012-12-11T17:12:42-0500
_audit_creation_method            fapswitch 2.2
_symmetry_space_group_name_H-M    P1
_symmetry_Int_Tables_number       1
_space_group_crystal_system       triclinic
_cell_length_a                    17.226826
_cell_length_b                    6.890708
_cell_length_c                    14.348017
_cell_angle_alpha                 90.000076
_cell_angle_beta                  110.002275
_cell_angle_gamma                 90.000758
_cell_volume                      1600.44419666

loop_
_atom_site_label
_atom_site_type_symbol
_atom_type_description
_atom_site_fract_x
_atom_site_fract_y
_atom_site_fract_z
_atom_type_partial_charge
O1    O     O_R   0.314130 0.635770 0.168990 -0.540206
O2    O     O_R   0.685870 0.364230 0.831010 -0.536398
O3    O     O_R   0.185870 0.135770 0.331010 -0.540216
O4    O     O_R   0.814130 0.864230 0.668990 -0.536398
O5    O     O_R   0.146800 0.302460 0.139760 -0.541041
O6    O     O_R   0.853200 0.697540 0.860240 -0.539404
O7    O     O_R   0.353200 0.802460 0.360240 -0.541033
O8    O     O_R   0.646800 0.197540 0.639760 -0.539407
C1    C     C_R   0.114022 0.475827 0.112779 0.732656
C2    C     C_R   0.885976 0.524162 0.887222 0.735398
C3    C     C_R   0.385978 0.975829 0.387221 0.732657
C4    C     C_R   0.614023 0.024161 0.612778 0.735378
O9    O     O_R   0.311100 0.305780 0.157130 -0.535789
O10   O     O_R   0.688900 0.694220 0.842870 -0.539081
O11   O     O_R   0.188900 0.805780 0.342870 -0.535782
O12   O     O_R   0.811100 0.194220 0.657130 -0.539080
O13   O     O_R   0.351340 0.139640 0.348510 -0.535413
O14   O     O_R   0.648660 0.860360 0.651490 -0.537971
O15   O     O_R   0.148660 0.639640 0.151490 -0.535402
O16   O     O_R   0.851340 0.360360 0.848510 -0.537967
C5    C     C_R   0.334244 0.474749 0.137804 0.696919
C6    C     C_R   0.666310 0.525285 0.862904 0.694583
C7    C     C_R   0.165757 0.974747 0.362196 0.696935
C8    C     C_R   0.833688 0.025287 0.637094 0.694580
C9    C     C_1   0.533577 0.008885 0.533041 -0.172594
C10   C     C_1   0.466428 0.991060 0.466954 -0.175007
C11   C     C_1   0.966422 0.508888 0.966959 -0.172583
C12   C     C_1   0.033572 0.491058 0.033045 -0.174992
O17   O     O_3   0.263010 0.470920 0.312770 -0.367872
O18   O     O_3   0.736990 0.529080 0.687230 -0.367941
O19   O     O_3   0.236990 0.970920 0.187230 -0.367872
O20   O     O_3   0.763010 0.029080 0.812770 -0.367936
V1    V     V_3+5 0.247590 0.194450 0.238360 1.441963
V2    V     V_3+5 0.752410 0.805550 0.761640 1.445076
V3    V     V_3+5 0.252410 0.694450 0.261640 1.441987
V4    V     V_3+5 0.747590 0.305550 0.738360 1.445072
C13   C     C_R   0.113537 0.985253 0.424634 -0.132046
C14   C     C_R   0.885085 0.016454 0.573578 -0.134398
C15   C     C_R   0.386461 0.485260 0.075362 -0.132042
C16   C     C_R   0.614910 0.516447 0.926415 -0.134410
C17   C     C_R   0.892116 0.036567 0.407103 0.116919
C18   C     C_R   0.106371 0.023376 0.590095 0.120755
C19   C     C_R   0.607881 0.536457 0.092893 0.116968
C20   C     C_R   0.393624 0.523469 0.909904 0.120722
C21   C     C_R   0.848695 0.058838 0.473249 -0.215107
C22   C     C_R   0.150782 0.029380 0.524540 -0.216052
C23   C     C_R   0.651304 0.558757 0.026752 -0.215119
C24   C     C_R   0.349218 0.529478 0.975466 -0.216033
C25   C     C_R   0.969473 0.968739 0.612368 -0.067896
C26   C     C_R   0.027574 0.955954 0.384949 -0.066384
C27   C     C_R   0.530515 0.468788 0.887615 -0.067894
C28   C     C_R   0.472418 0.455861 0.115031 -0.066422
C29   C     C_R   0.019018 0.989117 0.551187 0.078389
C30   C     C_R   0.978495 0.989581 0.445844 0.078100
C31   C     C_R   0.480973 0.489147 0.948799 0.078389
C32   C     C_R   0.521497 0.489523 0.054141 0.078158
H1    H     H_    0.216092 0.063673 0.551752 0.118430
H2    H     H_    0.784415 0.103000 0.446020 0.121715
H3    H     H_    0.283913 0.563820 0.948265 0.118424
H4    H     H_    0.715589 0.602886 0.053990 0.121723
C33   C     C_2   0.993161 0.871688 0.284202 0.342382
H5    H     H_    0.009788 0.931731 0.223658 0.038572
O21   O     O_2   0.950290 0.726129 0.269872 -0.553611
C34   C     C_2   0.001597 0.881259 0.712640 0.352902
H6    H     H_    0.986284 0.944236 0.773498 0.037683
O22   O     O_2   0.041225 0.730595 0.726262 -0.551497
C35   C     C_2   0.506823 0.371428 0.215743 0.342375
H7    H     H_    0.490198 0.431355 0.276312 0.038567
O23   O     O_2   0.549683 0.225857 0.230010 -0.553604
C36   C     C_2   0.498383 0.381368 0.787328 0.352914
H8    H     H_    0.513717 0.444348 0.726486 0.037679
O24   O     O_2   0.458729 0.230737 0.773680 -0.551509
C37   C     C_3   0.844802 0.085869 0.298951 -0.392580
C38   C     C_3   0.877618 0.270546 0.265243 -0.268875
C39   C     C_3   0.842441 0.291640 0.152648 -0.757239
H9    H     H_    0.866321 0.174026 0.116864 0.223417
H10   H     H_    0.773999 0.283512 0.126343 0.230509
H11   H     H_    0.861218 0.433483 0.130376 0.237647
H12   H     H_    0.859436 0.398775 0.300102 0.222854
H13   H     H_    0.946005 0.269370 0.288397 0.204983
H14   H     H_    0.843241 0.961476 0.249920 0.218036
H15   H     H_    0.778388 0.111795 0.287390 0.175212
C40   C     C_3   0.154062 0.075621 0.697744 -0.388622
C41   C     C_3   0.124119 0.266822 0.729169 -0.272841
C42   C     C_3   0.154356 0.285509 0.841882 -0.761652
H16   H     H_    0.123834 0.175108 0.874039 0.223120
H17   H     H_    0.222203 0.263555 0.872978 0.229241
H18   H     H_    0.139017 0.431846 0.862965 0.237275
H19   H     H_    0.148086 0.390573 0.697285 0.213256
H20   H     H_    0.055751 0.277216 0.701351 0.209612
H21   H     H_    0.153184 0.954817 0.747899 0.217472
H22   H     H_    0.220924 0.094254 0.709617 0.172385
C43   C     C_3   0.655196 0.585691 0.201054 -0.392637
C44   C     C_3   0.622391 0.770352 0.234788 -0.268877
C45   C     C_3   0.657632 0.791484 0.347379 -0.757245
H23   H     H_    0.633802 0.673845 0.383204 0.223422
H24   H     H_    0.726074 0.783429 0.373625 0.230529
H25   H     H_    0.638849 0.933309 0.369664 0.237590
H26   H     H_    0.640532 0.898588 0.199893 0.222928
H27   H     H_    0.554009 0.769122 0.211694 0.204979
H28   H     H_    0.656742 0.461275 0.250067 0.217999
H29   H     H_    0.721612 0.611607 0.212622 0.175249
C46   C     C_3   0.345932 0.575743 0.802261 -0.388593
C47   C     C_3   0.375894 0.766922 0.770835 -0.272821
C48   C     C_3   0.345706 0.785535 0.658119 -0.761636
H30   H     H_    0.376259 0.675122 0.626011 0.223112
H31   H     H_    0.277863 0.763540 0.626983 0.229219
H32   H     H_    0.361046 0.931863 0.637027 0.237296
H33   H     H_    0.351903 0.890696 0.802675 0.213235
H34   H     H_    0.444261 0.777339 0.798696 0.209608
H35   H     H_    0.346791 0.454930 0.752103 0.217512
H36   H     H_    0.279074 0.594412 0.790397 0.172357

loop_
_geom_bond_atom_site_label_1
_geom_bond_atom_site_label_2
_ccdc_geom_bond_type
C2    C11   S    
C16   C23   A    
C31   C32   A    
O1    C5    A    
C43   C44   S    
C37   C38   S    
O3    C7    A    
C45   H23   S    
C45   H25   S    
C14   C25   A    
C42   H16   S    
O7    C3    A    
C40   H22   S    
C48   H31   S    
C26   C30   A    
O13   V1    S    
O20   V4    S    
C18   C29   A    
O8    V4    S    
C47   H33   S    
O4    C8    A    
O3    V1    S    
O17   V1    S    
C46   H35   S    
C18   C22   A    
C37   H14   S    
C33   O21   D    
C14   C21   A    
C23   H4    S    
C1    O15   A    
C2    O16   A    
O5    V1    S    
O2    C6    A    
C8    C14   S    
O19   V1    S    
C36   H8    S    
C27   C36   S    
O11   C7    A    
C15   C28   A    
O12   C8    A    
C25   C34   S    
C38   H13   S    
C33   H5    S    
C41   H20   S    
O11   V3    S    
C47   C48   S    
C20   C46   S    
C42   H17   S    
C48   H32   S    
O4    V2    S    
C21   H2    S    
C38   C39   S    
O18   V2    S    
C35   H7    S    
C41   C42   S    
C43   H28   S    
C3    C10   S    
C9    C10   T    
C7    C13   S    
O6    V2    S    
C46   H36   S    
C35   O23   D    
O20   V2    S    
C39   H9    S    
O5    C1    A    
C39   H10   S    
C40   C41   S    
C5    C15   S    
C44   H27   S    
O8    C4    A    
C6    C16   S    
O9    C5    A    
O14   V2    S    
C28   C35   S    
C38   H12   S    
C22   H1    S    
O19   V3    S    
C41   H19   S    
C37   H15   S    
C11   C12   T    
O1    V3    S    
C24   H3    S    
C42   H18   S    
O2    V4    S    
C3    O13   A    
O7    V3    S    
C18   C40   S    
C43   H29   S    
O10   V2    S    
C45   H24   S    
C29   C30   A    
C16   C27   A    
C40   H21   S    
C48   H30   S    
O17   V3    S    
O18   V4    S    
C4    C9    S    
C34   H6    S    
O10   C6    A    
O15   V3    S    
O12   V4    S    
C47   H34   S    
C13   C26   A    
C20   C31   A    
C44   H26   S    
C25   C29   A    
C19   C43   S    
C27   C31   A    
C44   C45   S    
C39   H11   S    
C17   C30   A    
O6    C2    A    
C17   C37   S    
O16   V4    S    
C28   C32   A    
C19   C32   A    
O9    V1    S    
C4    O14   A    
C46   C47   S    
C26   C33   S    
C17   C21   A    
C36   O24   D    
C13   C22   A    
C19   C23   A    
C20   C24   A    
C1    C12   S    
C34   O22   D    
C15   C24   A    
