data_mof_unit_5050.cif
_audit_creation_date              2012-12-11T14:48:11-0500
_audit_creation_method            fapswitch 2.2
_symmetry_space_group_name_H-M    P1
_symmetry_Int_Tables_number       1
_space_group_crystal_system       triclinic
_cell_length_a                    11.577523
_cell_length_b                    11.569227
_cell_length_c                    19.577609
_cell_angle_alpha                 90.603579
_cell_angle_beta                  90.645315
_cell_angle_gamma                 60.103136
_cell_volume                      2273.13979445

loop_
_atom_site_label
_atom_site_type_symbol
_atom_type_description
_atom_site_fract_x
_atom_site_fract_y
_atom_site_fract_z
_atom_type_partial_charge
C1    C     C_R   0.640641 0.116794 0.599300 0.549684
C2    C     C_1   0.653880 0.148645 0.668679 0.003419
C3    C     C_R   0.518384 0.751950 0.286592 0.260911
C4    C     C_R   0.612590 0.746317 0.598679 0.545607
C5    C     C_R   0.535133 0.750058 0.216164 -0.004244
C6    C     C_R   0.666634 0.675449 0.191242 0.001718
C7    C     C_R   0.778891 0.632196 0.236509 -0.040842
C8    C     C_R   0.757466 0.645322 0.305827 -0.209764
C9    C     C_R   0.630407 0.705648 0.330738 -0.001548
C10   C     C_R   0.304331 0.187929 0.277249 -0.157804
C11   C     C_R   0.250547 0.221092 0.210996 0.205209
C12   C     C_1   0.641810 0.704411 0.668107 0.004922
C13   C     C_R   0.152231 0.189717 0.190938 0.022331
C14   C     C_R   0.109626 0.124627 0.236683 0.196496
C15   C     C_R   0.159556 0.099129 0.303028 -0.081633
C16   C     C_R   0.242097 0.144818 0.598373 0.553226
C17   C     C_R   0.255531 0.131640 0.323505 -0.031922
C18   C     C_R   0.731493 0.034851 0.283931 0.017427
C19   C     C_R   0.717549 0.066317 0.215019 0.269307
C20   C     C_R   0.675796 0.196324 0.195747 0.055453
C21   C     C_R   0.627359 0.299828 0.244206 -0.190267
C22   C     C_R   0.616111 0.272565 0.312102 -0.182389
C23   C     C_1   0.125652 0.199407 0.859184 0.003450
C24   C     C_R   0.668653 0.140167 0.332747 -0.001499
C25   C     C_R   0.080711 0.231863 0.928416 0.546768
C26   C     C_R   0.683648 0.604309 0.929463 0.539324
C27   C     C_R   0.708164 0.207133 0.930119 0.545366
C28   C     C_R   0.645209 0.110750 0.401975 0.533223
C29   C     C_R   0.083889 0.235384 0.125155 0.586197
C30   C     C_R   0.684629 0.611645 0.125374 0.539914
C31   C     C_R   0.711374 0.215540 0.128310 0.596651
C32   C     C_R   0.612013 0.743806 0.401355 0.545583
C33   C     C_R   0.300097 0.115280 0.394175 0.566241
C34   C     C_1   0.172186 0.170199 0.727743 -0.030451
C35   C     C_1   0.669377 0.646599 0.860143 0.003890
C36   C     C_1   0.654883 0.684180 0.728547 -0.030867
C37   C     C_1   0.662737 0.666998 0.799771 -0.030925
C38   C     C_3   0.363591 0.696618 0.317235 -0.119729
C39   C     C_3   0.643021 0.970940 0.138921 -0.140078
C40   C     C_3   0.409839 0.811512 0.170674 -0.256821
C41   C     C_3   0.410161 0.891857 0.109128 -0.440246
C42   C     C_3   0.924177 0.558538 0.216189 -0.229902
C43   C     C_3   0.964585 0.636169 0.167758 -0.376680
C44   C     C_3   0.299076 0.388124 0.190316 -0.122444
C45   C     C_1   0.149734 0.182685 0.798937 -0.030424
C46   C     C_3   0.064414 0.962571 0.204053 -0.096469
C47   C     C_3   0.808197 0.888963 0.302457 -0.238100
C48   C     C_3   0.943096 0.846608 0.336940 -0.395082
C49   C     C_1   0.196524 0.160484 0.667521 0.002384
C50   C     C_1   0.677938 0.192008 0.860718 0.004826
C51   C     C_1   0.659127 0.166604 0.729023 -0.030831
C52   C     C_1   0.665446 0.181140 0.800274 -0.030532
Cr1   Cr    Cr6+3 0.404720 0.198220 0.499960 1.019289
Cr2   Cr    Cr6+3 0.698290 0.897110 0.500380 1.008718
Cr3   Cr    Cr6+3 0.396970 0.904720 0.499610 1.043169
Cr4   Cr    Cr6+3 0.926180 0.152240 0.028110 1.039850
Cr5   Cr    Cr6+3 0.921340 0.452070 0.027460 1.014418
Cr6   Cr    Cr6+3 0.626260 0.447120 0.028700 1.014736
H1    H     H_    0.596943 0.401110 0.229390 0.130169
H2    H     H_    0.588546 0.953100 0.180099 0.131225
H3    H     H_    0.673463 0.890867 0.100054 0.132568
H4    H     H_    0.400191 0.987908 0.126071 0.151085
H5    H     H_    0.499698 0.837060 0.077058 0.158345
H6    H     H_    0.322001 0.916002 0.076476 0.143947
H7    H     H_    0.385900 0.733919 0.153857 0.154582
H8    H     H_    0.324316 0.883290 0.201163 0.174921
H9    H     H_    0.039469 0.567703 0.130636 0.172428
H10   H     H_    0.879010 0.713200 0.138583 0.198327
H11   H     H_    0.011060 0.685411 0.196800 0.099731
H12   H     H_    0.570288 0.353633 0.348700 0.120390
H13   H     H_    0.991856 0.530566 0.261314 0.112316
H14   H     H_    0.942907 0.462657 0.195851 0.194627
H15   H     H_    0.387980 0.358012 0.222404 0.121249
H16   H     H_    0.209413 0.452846 0.221065 0.103851
H17   H     H_    0.302965 0.448012 0.147459 0.137758
H18   H     H_    0.118953 0.937789 0.154933 0.119907
H19   H     H_    0.984206 0.938335 0.197417 0.193519
H20   H     H_    0.129976 0.898269 0.245784 0.094441
H21   H     H_    0.947715 0.932657 0.359628 0.180869
H22   H     H_    0.961501 0.773388 0.377798 0.148000
H23   H     H_    0.840467 0.611748 0.341447 0.131320
H24   H     H_    0.024705 0.796795 0.299486 0.093485
H25   H     H_    0.744134 0.866961 0.333739 0.180179
H26   H     H_    0.827803 0.825116 0.257593 0.191158
H27   H     H_    0.382747 0.207389 0.293443 0.122264
H28   H     H_    0.120023 0.057166 0.338912 0.158169
H29   H     H_    0.357017 0.658216 0.265899 0.077924
H30   H     H_    0.265688 0.734755 0.342307 0.127113
H31   H     H_    0.439126 0.613485 0.349040 0.129520
H32   H     H_    0.576387 0.067144 0.112981 0.151387
O1    O     O_R   0.267740 0.231990 0.575440 -0.501138
O2    O     O_R   0.596140 0.579600 0.952720 -0.507243
O3    O     O_R   0.639070 0.321380 0.958660 -0.492190
O4    O     O_R   0.527280 0.186680 0.570530 -0.493232
O5    O     O_R   0.821240 0.124490 0.104360 -0.450754
O6    O     O_R   0.036900 0.167320 0.097830 -0.483719
O7    O     O_R   0.056190 0.349890 0.102870 -0.508819
O8    O     O_R   0.797670 0.565150 0.097930 -0.518574
O9    O     O_R   0.595880 0.584540 0.104260 -0.525899
O10   O     O_R   0.638830 0.325960 0.099140 -0.525579
O11   O     O_3   0.824590 0.350480 0.028090 -0.261983
O12   O     O_R   0.685970 0.784630 0.430010 -0.531881
O13   O     O_R   0.728090 0.003480 0.576380 -0.501531
O14   O     O_R   0.682970 0.789220 0.570490 -0.490810
O15   O     O_R   0.499290 0.771920 0.575530 -0.508701
O16   O     O_R   0.285330 0.030900 0.569730 -0.492755
O17   O     O_R   0.270980 0.227040 0.423900 -0.517964
O18   O     O_R   0.530280 0.182090 0.430050 -0.519503
O19   O     O_R   0.731330 0.998530 0.424830 -0.523539
O20   O     O_3   0.391114 0.802317 0.312397 -0.561408
O21   O     O_3   0.757816 0.967220 0.165795 -0.604547
O22   O     O_3   0.298149 0.275026 0.163326 -0.564758
O23   O     O_R   0.502530 0.766960 0.423990 -0.473642
O24   O     O_3   0.007904 0.099504 0.219568 -0.548794
O25   O     O_R   0.288330 0.026310 0.429250 -0.479467
O26   O     O_3   0.499990 0.000020 0.499980 -0.278075
O27   O     O_R   0.821500 0.119550 0.952820 -0.507984
O28   O     O_R   0.037130 0.162750 0.957360 -0.503581
O29   O     O_R   0.056440 0.344950 0.951330 -0.500521
O30   O     O_R   0.797900 0.560570 0.957460 -0.496398

loop_
_geom_bond_atom_site_label_1
_geom_bond_atom_site_label_2
_ccdc_geom_bond_type
C8    C9    A    
Cr4   O5    S    
C10   H27   S    
C23   C45   T    
Cr4   O27   S    
C19   C20   A    
C33   O17   A    
C25   O28   A    
C46   H18   S    
C7    C8    A    
C38   H31   S    
Cr3   O15   S    
C18   C24   A    
C48   H21   S    
Cr2   O14   S    
C36   C37   S    
C35   C37   T    
Cr6   O3    S    
C26   O30   A    
Cr4   O11   S    
C21   H1    S    
C5    C6    A    
Cr3   O26   S    
C39   H2    S    
C3    O20   S    
C26   O2    A    
C15   C17   A    
C1    C2    S    
C7    C42   S    
C9    C32   S    
C43   H10   S    
Cr2   O26   S    
Cr1   O1    S    
C50   C52   T    
C47   H25   S    
C32   O23   A    
C12   C36   T    
C4    C12   S    
C1    O13   A    
C39   H32   S    
C27   C50   S    
C16   O16   A    
Cr5   O29   S    
C39   O21   S    
Cr1   O4    S    
C43   H11   S    
C40   H8    S    
C13   C14   A    
C18   C47   S    
C17   C33   S    
C41   H4    S    
C25   O29   A    
C27   O27   A    
C39   H3    S    
C33   O25   A    
C46   O24   S    
Cr3   O16   S    
C51   C52   S    
Cr2   O13   S    
Cr6   O10   S    
C16   C49   S    
C2    C51   T    
Cr6   O11   S    
C18   C19   A    
Cr3   O23   S    
C14   O24   S    
C30   O9    A    
C8    H23   S    
Cr2   O19   S    
C38   H30   S    
C31   O10   A    
C44   H17   S    
C3    C9    A    
C29   O6    A    
Cr1   O17   S    
C47   C48   S    
Cr5   O7    S    
C42   H14   S    
C34   C45   S    
C47   H26   S    
C44   H16   S    
C15   H28   S    
C44   O22   S    
C40   C41   S    
C6    C30   S    
C40   H7    S    
Cr5   O30   S    
C32   O12   A    
C27   O3    A    
C38   O20   S    
C42   C43   S    
C41   H5    S    
C46   H20   S    
C13   C29   S    
Cr4   O6    S    
C34   C49   T    
C11   O22   S    
Cr4   O28   S    
Cr2   O12   S    
Cr6   O9    S    
C24   C28   S    
C3    C5    A    
C1    O4    A    
C46   H19   S    
Cr1   O26   S    
C6    C7    A    
C19   O21   S    
C28   O19   A    
Cr5   O11   S    
C4    O15   A    
C30   O8    A    
C29   O7    A    
C38   H29   S    
C48   H22   S    
C11   C13   A    
Cr1   O18   S    
Cr3   O25   S    
C28   O18   A    
C31   O5    A    
Cr5   O8    S    
C4    O14   A    
C42   H13   S    
C48   H24   S    
C22   C24   A    
C23   C25   S    
C44   H15   S    
C10   C11   A    
C26   C35   S    
C20   C21   A    
C16   O1    A    
C43   H9    S    
C5    C40   S    
C14   C15   A    
C10   C17   A    
C41   H6    S    
C21   C22   A    
Cr6   O2    S    
C22   H12   S    
C20   C31   S    
