data_mof_unit_53992.cif
_audit_creation_date              2012-12-10T17:03:42-0500
_audit_creation_method            fapswitch 2.2
_symmetry_space_group_name_H-M    P1
_symmetry_Int_Tables_number       1
_space_group_crystal_system       triclinic
_cell_length_a                    10.031863
_cell_length_b                    10.767582
_cell_length_c                    13.146971
_cell_angle_alpha                 88.281754
_cell_angle_beta                  69.703514
_cell_angle_gamma                 88.429713
_cell_volume                      1331.12854217

loop_
_atom_site_label
_atom_site_type_symbol
_atom_type_description
_atom_site_fract_x
_atom_site_fract_y
_atom_site_fract_z
_atom_type_partial_charge
C1    C     C_R   0.498844 0.736881 0.497740 0.894824
C2    C     C_R   0.437368 0.488471 0.983648 0.078708
C3    C     C_R   0.462552 0.444869 0.878501 0.043617
C4    C     C_R   0.548946 0.478701 0.027271 0.018528
C5    C     C_R   0.672558 0.404791 0.973975 0.084495
C6    C     C_R   0.682968 0.345070 0.878746 -0.268532
C7    C     C_R   0.577283 0.360478 0.833715 -0.006276
C8    C     C_R   0.542354 0.538469 0.122663 -0.065358
C9    C     C_R   0.753059 0.425566 0.126023 -0.259333
C10   C     C_R   0.369389 0.484652 0.823526 -0.122710
C11   C     C_2   0.381545 0.068904 0.531953 -0.190098
C12   C     C_R   0.420954 0.493509 0.704601 0.868804
C13   C     C_2   0.500324 0.131468 0.513578 -0.306463
C14   C     C_2   0.386026 0.935804 0.546376 -0.027406
C15   C     C_2   0.496895 0.867630 0.482061 -0.189597
C16   C     C_2   0.110670 0.450738 0.424100 -0.114763
C17   C     C_2   0.962182 0.458373 0.420601 -0.130997
C18   C     C_R   0.500927 0.262768 0.501402 0.949114
C19   C     C_R   0.579279 0.503472 0.295852 0.886006
C20   C     C_R   0.778520 0.385136 0.021449 0.020640
C21   C     C_R   0.630837 0.495884 0.178483 -0.116662
C22   C     C_R   0.235051 0.534399 0.882516 -0.157297
C23   C     C_R   0.197227 0.551206 0.993415 -0.134543
C24   C     C_R   0.297820 0.530710 0.043570 -0.164747
H1    H     H_    0.824974 0.397391 0.168279 0.163542
H2    H     H_    0.598130 0.085583 0.513823 0.174245
H3    H     H_    0.074338 0.549366 0.557787 0.165923
H4    H     H_    0.946541 0.425620 0.348388 0.155898
H5    H     H_    0.865411 0.522595 0.569804 0.173363
H6    H     H_    0.769453 0.279686 0.842256 0.164204
H7    H     H_    0.160484 0.562254 0.842705 0.165992
H8    H     H_    0.279989 0.115220 0.542817 0.184055
N1    N     N_2   0.148270 0.498670 0.498870 -0.188462
N2    N     N_2   0.852610 0.498640 0.498840 -0.185959
O1    O     O_R   0.386950 0.680940 0.500020 -0.602434
O2    O     O_R   0.613110 0.680900 0.499980 -0.600783
O3    O     O_R   0.330780 0.500000 0.653640 -0.609628
O4    O     O_R   0.556930 0.499960 0.653610 -0.607269
O5    O     O_R   0.386890 0.319100 0.500020 -0.611469
O6    O     O_R   0.613050 0.319060 0.499980 -0.606022
O7    O     O_R   0.443070 0.500040 0.346390 -0.607955
O8    O     O_R   0.669220 0.500000 0.346360 -0.618879
Zn1   Zn    Zn3+2 0.349000 0.500030 0.500020 0.962685
Zn2   Zn    Zn3+2 0.651000 0.499970 0.499980 0.962468
C25   C     C_1   0.271633 0.882337 0.636706 0.211687
N3    N     N_1   0.180532 0.839681 0.708746 -0.204950
C26   C     C_1   0.602519 0.914937 0.382898 0.174501
N4    N     N_1   0.686619 0.952246 0.303781 -0.189754
H9    H     H_    0.191190 0.403879 0.358181 0.166207
C27   C     C_1   0.908727 0.315738 0.968888 0.142317
N5    N     N_1   0.013041 0.260420 0.926867 -0.187946
C28   C     C_1   0.459116 0.651540 0.158880 0.169255
N6    N     N_1   0.393412 0.741918 0.187982 -0.185908
H10   H     H_    0.262532 0.543236 0.130083 0.143702
H11   H     H_    0.091574 0.585062 0.039871 0.151770
C29   C     C_1   0.571282 0.265208 0.761220 0.198830
N7    N     N_1   0.567172 0.185020 0.706161 -0.213184

loop_
_geom_bond_atom_site_label_1
_geom_bond_atom_site_label_2
_ccdc_geom_bond_type
O3    Zn1   S    
C2    C4    A    
C18   O5    A    
O4    Zn2   S    
C6    C7    A    
C1    C15   S    
C16   N1    D    
O1    Zn1   S    
C4    C8    A    
C8    C28   S    
C9    C20   A    
C3    C7    A    
C26   N4    T    
C19   O8    A    
C15   C26   S    
C23   C24   A    
C2    C3    A    
C9    H1    S    
C3    C10   A    
C25   N3    T    
C10   C22   A    
C23   H11   S    
C11   C13   D    
C9    C21   A    
O8    Zn2   S    
C7    C29   S    
C13   C18   S    
C19   C21   S    
C11   H8    S    
C27   N5    T    
C14   C25   S    
C10   C12   S    
C2    C24   A    
C5    C6    A    
C11   C14   S    
C13   H2    S    
O2    Zn2   S    
C17   N2    D    
C24   H10   S    
C16   H9    S    
N1    Zn1   S    
C12   O4    A    
O6    Zn2   S    
N2    Zn2   S    
C29   N7    T    
C1    O1    A    
C20   C27   S    
C22   H7    S    
C12   O3    A    
C5    C20   A    
C18   O6    A    
C14   C15   D    
C16   C17   S    
O5    Zn1   S    
C6    H6    S    
C22   C23   A    
C17   H4    S    
H5    N2    S    
H3    N1    S    
O7    Zn1   S    
C19   O7    A    
C1    O2    A    
C28   N6    T    
C4    C5    A    
C8    C21   A    
