data_mof_unit_5968.cif
_audit_creation_date              2012-12-10T19:43:26-0500
_audit_creation_method            fapswitch 2.2
_symmetry_space_group_name_H-M    P1
_symmetry_Int_Tables_number       1
_space_group_crystal_system       triclinic
_cell_length_a                    10.892842
_cell_length_b                    10.851449
_cell_length_c                    9.592196
_cell_angle_alpha                 89.660781
_cell_angle_beta                  91.318316
_cell_angle_gamma                 92.352154
_cell_volume                      1132.55826514

loop_
_atom_site_label
_atom_site_type_symbol
_atom_type_description
_atom_site_fract_x
_atom_site_fract_y
_atom_site_fract_z
_atom_type_partial_charge
C1    C     C_R   0.505484 0.262268 0.501778 0.801276
C2    C     C_R   0.177548 0.578643 0.958560 -0.260769
C3    C     C_R   0.931168 0.523837 0.381899 -0.277710
C4    C     C_R   0.870864 0.490875 0.504095 -0.083809
C5    C     C_R   0.939440 0.449474 0.620795 -0.005350
C6    C     C_R   0.067082 0.453732 0.615632 -0.232837
C7    C     C_R   0.127573 0.491881 0.494845 -0.082488
C8    C     C_R   0.057501 0.519021 0.373933 0.040155
C9    C     C_R   0.867037 0.462705 0.862924 -0.149679
C10   C     C_R   0.820171 0.409451 0.984384 -0.128252
C11   C     C_R   0.791924 0.283136 0.990283 -0.252929
C12   C     C_R   0.262100 0.497899 0.498190 0.776936
C13   C     C_R   0.811930 0.209308 0.875047 -0.159574
C14   C     C_R   0.855008 0.261432 0.750499 0.433920
C15   C     C_R   0.882821 0.390549 0.744388 0.019534
C16   C     C_R   0.531771 0.113171 0.769032 -0.156385
C17   C     C_R   0.506059 0.049511 0.892052 -0.188673
C18   C     C_R   0.449754 0.932937 0.886263 -0.106210
C19   C     C_R   0.428779 0.876100 0.757761 -0.157148
C20   C     C_R   0.467946 0.934044 0.632397 0.096995
C21   C     C_R   0.502966 0.060403 0.636317 0.113665
C22   C     C_R   0.507455 0.127341 0.507611 -0.099755
C23   C     C_R   0.489122 0.736692 0.500290 0.788189
C24   C     C_R   0.498558 0.063705 0.380880 -0.205665
C25   C     C_R   0.487010 0.936603 0.379236 -0.217712
C26   C     C_R   0.475622 0.870288 0.503939 -0.117748
C27   C     C_R   0.655197 0.672659 0.145999 -0.189944
C28   C     C_R   0.729833 0.759519 0.074745 0.141004
C29   C     C_R   0.727997 0.757092 0.930425 -0.281509
C30   C     C_R   0.654960 0.670392 0.858310 -0.170751
C31   C     C_R   0.574616 0.585576 0.926397 0.215076
C32   C     C_R   0.574571 0.586123 0.075821 0.157732
C33   C     C_R   0.433340 0.415392 0.072620 -0.034931
C34   C     C_R   0.737311 0.495908 0.501785 0.790924
C35   C     C_R   0.432992 0.415522 0.924769 -0.068552
C36   C     C_R   0.171187 0.678327 0.050587 0.440632
C37   C     C_R   0.139270 0.655671 0.188661 -0.165856
C38   C     C_R   0.108968 0.535561 0.234400 0.032747
C39   C     C_R   0.111391 0.435233 0.140713 0.206272
C40   C     C_R   0.148052 0.458541 0.003723 -0.226937
Cu1   Cu    Cu3+1 0.499990 0.499990 0.640660 0.923346
Cu2   Cu    Cu3+1 0.500010 0.500010 0.359340 0.932765
H1    H     H_    0.203767 0.594210 0.851592 0.156005
H2    H     H_    0.756743 0.241972 0.085165 0.154275
H3    H     H_    0.791902 0.110894 0.881727 0.156843
H4    H     H_    0.502651 0.112059 0.281836 0.157593
H5    H     H_    0.579245 0.201143 0.782090 0.185261
H6    H     H_    0.527906 0.091874 0.992008 0.131014
H7    H     H_    0.425048 0.885270 0.981634 0.172832
H8    H     H_    0.379827 0.787592 0.758573 0.155253
H9    H     H_    0.488941 0.890162 0.279643 0.175488
H10   H     H_    0.378855 0.346295 0.126822 0.139858
H11   H     H_    0.665995 0.672975 0.255361 0.223371
H12   H     H_    0.787044 0.820818 0.872517 0.164538
H13   H     H_    0.669196 0.671095 0.749348 0.215878
H14   H     H_    0.377402 0.346554 0.868590 0.138441
H15   H     H_    0.132774 0.732676 0.259224 0.150704
H16   H     H_    0.151867 0.382939 0.931363 0.141696
H17   H     H_    0.879623 0.550506 0.289427 0.157701
H18   H     H_    0.119446 0.421357 0.704322 0.153615
H19   H     H_    0.892279 0.560248 0.861443 0.152438
H20   H     H_    0.807796 0.465830 0.074919 0.147887
N1    N     N_R   0.501190 0.501210 0.147910 -0.192753
N2    N     N_R   0.501230 0.501290 0.852040 -0.199021
O1    O     O_R   0.499990 0.319640 0.618810 -0.596089
O2    O     O_R   0.500000 0.319660 0.381240 -0.587739
O3    O     O_R   0.319640 0.500000 0.618780 -0.594546
O4    O     O_R   0.319650 0.500020 0.381210 -0.565516
O5    O     O_R   0.500000 0.680340 0.618760 -0.610744
O6    O     O_R   0.500010 0.680360 0.381190 -0.597063
O7    O     O_R   0.680350 0.499980 0.618790 -0.592064
O8    O     O_R   0.680360 0.500000 0.381220 -0.609610
O9    O     O_3   0.869644 0.182854 0.639796 -0.754769
H21   H     H_    0.895677 0.230532 0.556658 0.322813
O10   O     O_3   0.191802 0.798714 0.007993 -0.760207
H22   H     H_    0.201875 0.799871 0.905579 0.311837
C41   C     C_3   0.816159 0.854731 0.145621 -0.396087
C42   C     C_3   0.817962 0.854869 0.305062 -0.849083
H23   H     H_    0.725428 0.871452 0.344698 0.260112
H24   H     H_    0.850734 0.766414 0.346990 0.244197
H25   H     H_    0.881953 0.930086 0.343533 0.259940
H26   H     H_    0.911257 0.840153 0.111232 0.227451
H27   H     H_    0.790612 0.947913 0.109123 0.204293
C43   C     C_3   0.063622 0.306109 0.179063 -0.414527
C44   C     C_3   0.158093 0.231576 0.259105 -0.791747
H28   H     H_    0.232453 0.205888 0.189292 0.237161
H29   H     H_    0.197720 0.283137 0.349687 0.253387
H30   H     H_    0.112856 0.144947 0.298168 0.244869
H31   H     H_    0.979151 0.310681 0.241043 0.209516
H32   H     H_    0.036300 0.253730 0.083314 0.215308

loop_
_geom_bond_atom_site_label_1
_geom_bond_atom_site_label_2
_ccdc_geom_bond_type
C16   C21   A    
Cu1   Cu2   S    
C23   O5    A    
C19   C20   A    
C42   H25   S    
C17   H6    S    
C7    C8    A    
Cu1   O3    S    
C41   C42   S    
C33   H10   S    
C12   O4    A    
C37   C38   A    
C43   H32   S    
C9    H19   S    
C36   C37   A    
C39   C43   S    
C5    C6    A    
C42   H24   S    
C29   H12   S    
C41   H27   S    
Cu2   O6    S    
C18   C19   A    
O9    H21   S    
C23   C26   S    
C16   C17   A    
C1    O1    A    
C35   N2    A    
C9    C10   A    
Cu1   O7    S    
C27   C32   A    
C1    C22   S    
C21   C22   A    
Cu2   O4    S    
C23   O6    A    
C10   H20   S    
C8    C38   S    
C16   H5    S    
C17   C18   A    
C44   H29   S    
C7    C12   S    
C12   O3    A    
C4    C34   S    
C40   H16   S    
C14   O9    S    
C6    H18   S    
C24   C25   A    
C3    C8    A    
C39   C40   A    
C42   H23   S    
Cu1   O1    S    
C25   C26   A    
C44   H28   S    
O10   H22   S    
C25   H9    S    
C29   C30   A    
C36   O10   S    
C31   C32   A    
C2    H1    S    
C33   N1    A    
Cu2   O8    S    
C1    O2    A    
C11   H2    S    
C43   C44   S    
C28   C41   S    
C22   C24   A    
C43   H31   S    
C3    C4    A    
C34   O8    A    
Cu1   O5    S    
C44   H30   S    
C2    C36   A    
C30   C31   A    
C28   C29   A    
C35   H14   S    
C31   N2    A    
C32   N1    A    
C4    C5    A    
C27   H11   S    
C6    C7    A    
C30   H13   S    
C24   H4    S    
C9    C15   A    
C13   H3    S    
C11   C13   A    
C19   H8    S    
C38   C39   A    
C20   C26   A    
C41   H26   S    
C34   O7    A    
C33   C35   A    
C5    C15   S    
C10   C11   A    
C2    C40   A    
C20   C21   A    
C27   C28   A    
Cu2   O2    S    
C14   C15   A    
Cu1   N2    S    
C13   C14   A    
Cu2   N1    S    
C37   H15   S    
C18   H7    S    
C3    H17   S    
