data_mof_unit_38515.cif
_audit_creation_date              2013-03-05T16:01:15-0500
_audit_creation_method            fapswitch 2.2
_symmetry_space_group_name_H-M    P1
_symmetry_Int_Tables_number       1
_space_group_crystal_system       triclinic
_cell_length_a                    14.683578
_cell_length_b                    14.684322
_cell_length_c                    17.223878
_cell_angle_alpha                 106.051644
_cell_angle_beta                  72.714652
_cell_angle_gamma                 114.905376
_cell_volume                      3166.77831216

loop_
_atom_site_label
_atom_site_type_symbol
_atom_site_description
_atom_site_fract_x
_atom_site_fract_y
_atom_site_fract_z
_atom_type_partial_charge
O1    O     O_R   0.020090 0.662480 0.528530 -0.560477
O2    O     O_R   0.979910 0.337520 0.471470 -0.545688
O3    O     O_R   0.160710 0.620650 0.491980 -0.577674
O4    O     O_R   0.839290 0.379350 0.508020 -0.539477
C1    C     C_R   0.118412 0.688243 0.516486 0.906672
C2    C     C_R   0.880426 0.310887 0.487469 0.950744
O5    O     O_R   0.921540 0.523360 0.633990 -0.545951
O6    O     O_R   0.078460 0.476640 0.366010 -0.556542
O7    O     O_R   0.062170 0.481520 0.597440 -0.593765
O8    O     O_R   0.937830 0.518480 0.402560 -0.600729
C3    C     C_R   0.988321 0.502013 0.652564 0.885542
C4    C     C_R   0.010451 0.495866 0.347305 0.889248
Cu1   Cu    Cu3+1 0.916740 0.524770 0.521640 1.066427
Cu2   Cu    Cu3+1 0.083260 0.475230 0.478360 1.050789
C5    C     C_R   0.979000 0.500662 0.738622 -0.136208
C6    C     C_R   0.015616 0.489644 0.260667 -0.173388
C7    C     C_R   0.060728 0.566248 0.776886 -0.158821
C8    C     C_R   0.027574 0.576373 0.234130 -0.146840
C9    C     C_R   0.052645 0.569779 0.859891 -0.122434
C10   C     C_R   0.037438 0.574005 0.151081 -0.117704
C11   C     C_R   0.963584 0.505499 0.904877 -0.027233
C12   C     C_R   0.032285 0.483841 0.094061 -0.037681
C13   C     C_R   0.879908 0.440312 0.867336 0.310569
C14   C     C_R   0.022597 0.396486 0.119842 0.304679
C15   C     C_R   0.887540 0.437696 0.783583 0.231010
C16   C     C_R   0.014584 0.399431 0.203748 0.215078
C17   C     C_2   0.960037 0.502536 0.990434 0.205621
C18   C     C_2   0.031803 0.479786 0.007838 0.206077
H1    H     H_    0.130407 0.615161 0.742351 0.144478
H2    H     H_    0.030440 0.646251 0.277714 0.191866
H3    H     H_    0.046447 0.641782 0.131297 0.185507
H4    H     H_    0.116793 0.620820 0.888776 0.166634
C19   C     C_R   0.182969 0.795158 0.541278 -0.308111
C20   C     C_R   0.811952 0.200753 0.482160 -0.278869
C21   C     C_R   0.215751 0.947058 0.648405 0.242019
C22   C     C_R   0.785736 0.020793 0.426106 0.264054
C23   C     C_R   0.148118 0.852572 0.615959 0.204846
C24   C     C_R   0.852211 0.122894 0.442822 0.238107
C25   C     C_R   0.284856 0.835727 0.497435 0.220943
C26   C     C_R   0.704251 0.172463 0.512969 0.269257
C27   C     C_R   0.357222 0.917739 0.539644 -0.053733
C28   C     C_R   0.639324 0.068105 0.505804 -0.071483
C29   C     C_R   0.321283 0.977413 0.612775 -0.082515
C30   C     C_R   0.679036 0.993723 0.455101 -0.074834
C31   C     C_R   0.464657 0.941079 0.512058 0.094778
C32   C     C_R   0.533531 0.036055 0.544148 0.097055
C33   C     C_R   0.496174 0.091786 0.617927 -0.100319
C34   C     C_R   0.505327 0.868444 0.460407 -0.149410
C35   C     C_R   0.392203 0.062693 0.651986 -0.116779
C36   C     C_R   0.610861 0.893179 0.435516 -0.086359
H5    H     H_    0.368394 0.106657 0.710296 0.217064
H6    H     H_    0.638033 0.833280 0.398922 0.200789
H7    H     H_    0.547434 0.154058 0.653440 0.221241
H8    H     H_    0.456157 0.790272 0.442800 0.171548
N1    N     N_R   0.208390 0.438070 0.445820 -0.218187
N2    N     N_R   0.791610 0.561930 0.554180 -0.224115
C37   C     C_R   0.301642 0.338157 0.351095 0.243613
C38   C     C_R   0.698104 0.663778 0.644985 0.262838
C39   C     C_R   0.215144 0.364903 0.378908 0.093632
C40   C     C_R   0.782553 0.634006 0.621434 0.061144
C41   C     C_R   0.286175 0.488850 0.487714 0.056275
C42   C     C_R   0.716893 0.513619 0.509063 0.118114
C43   C     C_R   0.377632 0.467067 0.462943 -0.082720
C44   C     C_R   0.628353 0.539701 0.528604 -0.084035
C45   C     C_R   0.383284 0.387074 0.394678 -0.067295
C46   C     C_R   0.622237 0.620423 0.595985 -0.049684
C47   C     C_R   0.461977 0.521004 0.504839 0.055265
C48   C     C_R   0.546831 0.489011 0.483464 0.052884
C49   C     C_R   0.547984 0.407875 0.417096 -0.222814
C50   C     C_R   0.466423 0.609576 0.564382 -0.304360
C51   C     C_R   0.468331 0.356520 0.373702 0.479121
C52   C     C_R   0.543293 0.658331 0.611057 0.493064
H9    H     H_    0.729444 0.455934 0.457745 0.149716
H10   H     H_    0.273927 0.544466 0.541296 0.126851
H11   H     H_    0.840248 0.666703 0.658472 0.213705
H12   H     H_    0.153220 0.328246 0.345712 0.206153
H13   H     H_    0.611201 0.382518 0.395883 0.155235
H14   H     H_    0.413273 0.645906 0.572769 0.124892
O9    O     O_3   0.477774 0.280359 0.306642 -0.548386
C53   C     C_3   0.476790 0.195400 0.331327 0.089227
H15   H     H_    0.412379 0.127302 0.310103 0.214785
H16   H     H_    0.463164 0.201128 0.399545 0.161840
C54   C     C_3   0.577586 0.178421 0.289388 -0.326280
H17   H     H_    0.591495 0.174405 0.221680 0.276471
H18   H     H_    0.642608 0.243254 0.312795 0.232563
C55   C     C_3   0.575044 0.080097 0.305245 -0.714744
H19   H     H_    0.555090 0.079145 0.372497 0.270707
H20   H     H_    0.651656 0.074243 0.279574 0.276106
H21   H     H_    0.517769 0.013292 0.274557 0.292436
O10   O     O_3   0.553009 0.753300 0.660585 -0.572139
C56   C     C_3   0.460656 0.754092 0.717321 0.147675
H22   H     H_    0.477516 0.780270 0.780269 0.226991
H23   H     H_    0.396903 0.677979 0.718268 0.121175
C57   C     C_3   0.425914 0.830556 0.700819 -0.414983
H24   H     H_    0.490659 0.905488 0.698813 0.266369
H25   H     H_    0.402843 0.803624 0.640152 0.202638
C58   C     C_3   0.335643 0.844757 0.768063 -0.794181
H26   H     H_    0.269407 0.771249 0.770554 0.243138
H27   H     H_    0.311981 0.900305 0.754719 0.272064
H28   H     H_    0.357805 0.874352 0.829158 0.282956
N3    N     N_R   0.305842 0.264311 0.277021 0.160355
O11   O     O_R   0.231143 0.175894 0.271508 -0.244573
O12   O     O_R   0.370652 0.293189 0.210084 -0.218164
N4    N     N_R   0.686763 0.731140 0.722204 0.167129
O13   O     O_R   0.764073 0.813595 0.739923 -0.219092
O14   O     O_R   0.607700 0.699522 0.780853 -0.300465
N5    N     N_R   0.997621 0.309098 0.231878 0.137366
O15   O     O_R   0.062055 0.262487 0.201182 -0.219861
O16   O     O_R   0.917920 0.273662 0.288926 -0.382997
N6    N     N_R   0.806634 0.365030 0.742712 0.148171
O17   O     O_R   0.826297 0.299880 0.678040 -0.347774
O18   O     O_R   0.712271 0.358837 0.773150 -0.234191
N7    N     N_R   0.107466 0.448788 0.943553 0.134317
O19   O     O_R   0.197875 0.472006 0.957165 -0.270304
O20   O     O_R   0.081709 0.384562 0.877327 -0.255503
N8    N     N_R   0.876629 0.520909 0.053740 0.139283
O21   O     O_R   0.839994 0.584718 0.047514 -0.252418
O22   O     O_R   0.826882 0.462920 0.109566 -0.280965
N9    N     N_R   0.791445 0.370231 0.911888 0.167089
O23   O     O_R   0.798984 0.295315 0.932567 -0.229916
O24   O     O_R   0.706964 0.388217 0.940211 -0.199093
N10   N     N_R   0.011703 0.302689 0.062487 0.172330
O25   O     O_R   0.931753 0.256678 0.028769 -0.227757
O26   O     O_R   0.086494 0.269132 0.037251 -0.179732
N11   N     N_R   0.658398 0.248459 0.539907 0.123643
O27   O     O_R   0.597544 0.248440 0.498328 -0.417021
O28   O     O_R   0.669304 0.311335 0.609564 -0.276358
N12   N     N_R   0.310768 0.807567 0.408375 0.138162
O29   O     O_R   0.376253 0.876881 0.364808 -0.346892
O30   O     O_R   0.258500 0.720177 0.369171 -0.337066
N13   N     N_R   0.960535 0.146915 0.414538 0.165758
O31   O     O_R   0.017148 0.167793 0.467346 -0.286006
O32   O     O_R   0.998975 0.130164 0.335903 -0.210709
N14   N     N_R   0.044248 0.814827 0.660235 0.154145
O33   O     O_R   0.983500 0.861557 0.666865 -0.236476
O34   O     O_R   0.017140 0.747533 0.706683 -0.360471
N15   N     N_R   0.177999 0.007718 0.721409 0.158033
O35   O     O_R   0.129934 0.970097 0.788875 -0.229054
O36   O     O_R   0.189227 0.099961 0.719783 -0.252506
N16   N     N_R   0.827812 0.944703 0.379977 0.148794
O37   O     O_R   0.890724 0.927273 0.408289 -0.258481
O38   O     O_R   0.812301 0.901071 0.305784 -0.276067

loop_
_geom_bond_atom_site_label_1
_geom_bond_atom_site_label_2
_geom_bond_distance
_ccdc_geom_bond_type
C43   C45   1.424592 A    
N3    O11   1.300803 A    
N1    C39   1.352577 A    
C50   H14   1.074988 S    
C7    H1    1.082681 S    
C49   H13   1.071515 S    
N12   O29   1.301126 A    
N4    O14   1.300858 A    
C58   H26   1.108827 S    
C33   C35   1.383626 A    
C31   C32   1.411129 A    
C34   H8    1.081889 S    
N15   O36   1.301093 A    
C19   C25   1.410718 A    
O1    C1    1.294555 A    
C44   C48   1.440142 A    
C12   C14   1.409476 A    
C9    C11   1.401479 A    
N16   O38   1.301023 A    
C13   N9    1.433067 S    
C55   H20   1.110508 S    
C5    C15   1.410769 A    
C38   C40   1.397463 A    
N8    O21   1.301230 A    
C41   C43   1.426051 A    
C28   C32   1.420304 A    
O4    Cu1   1.935051 S    
C49   C51   1.400068 A    
N6    O17   1.300617 A    
C42   C44   1.427680 A    
C3    C5    1.452448 S    
C38   C46   1.422265 A    
C46   C52   1.416212 A    
C4    C6    1.450526 S    
C48   C49   1.406700 A    
C35   H5    1.081906 S    
C1    C19   1.470405 S    
C36   H6    1.081498 S    
N5    O15   1.300458 A    
C42   H9    1.073966 S    
C8    H2    1.083803 S    
C21   C29   1.407446 A    
C33   H7    1.077689 S    
Cu1   N2    2.012736 S    
C17   N8    1.443498 S    
C34   C36   1.390800 A    
Cu2   N1    2.012736 S    
C11   C17   1.471100 S    
N3    O12   1.301203 A    
C12   C18   1.471754 S    
Cu1   Cu2   2.679274 S    
C27   C29   1.420212 A    
O2    C2    1.304607 A    
C28   C30   1.414925 A    
C53   C54   1.533092 S    
C9    H4    1.083579 S    
C51   O9    1.387502 S    
N4    O13   1.300654 A    
C58   H27   1.108467 S    
N9    O24   1.300623 A    
C6    C16   1.410655 A    
C43   C47   1.439004 A    
C47   C48   1.425992 A    
N16   O37   1.300977 A    
C53   H16   1.116928 S    
C37   C45   1.424061 A    
C56   H22   1.110607 S    
C55   H19   1.109785 S    
C29   C35   1.400235 A    
N14   O34   1.300618 A    
C57   C58   1.526036 S    
O3    C1    1.296468 A    
C45   C51   1.416139 A    
C55   H21   1.109753 S    
C19   C23   1.414105 A    
C2    C20   1.496024 S    
C44   C46   1.423727 A    
O5    C3    1.289534 A    
O7    Cu2   1.962905 S    
C56   H23   1.116052 S    
C52   O10   1.392741 S    
C54   H17   1.111648 S    
O6    C4    1.288295 A    
C14   N10   1.433338 S    
C57   H25   1.109963 S    
O7    C3    1.293400 A    
O3    Cu2   1.935052 S    
O8    C4    1.293626 A    
C15   N6    1.435063 S    
O4    C2    1.299392 A    
C54   H18   1.109682 S    
C10   C12   1.401416 A    
C11   C13   1.408280 A    
N11   O27   1.300491 A    
N2    C42   1.362726 A    
C22   C30   1.407959 A    
O1    Cu1   1.948311 S    
N10   O26   1.300556 A    
N13   O31   1.301078 A    
C58   H28   1.110670 S    
N7    O19   1.301194 A    
C31   C34   1.407735 A    
C30   C36   1.405764 A    
C5    C7    1.395568 A    
C32   C33   1.405065 A    
O6    Cu2   1.963277 S    
C25   N12   1.450421 S    
C21   C23   1.401472 A    
C20   C24   1.420743 A    
C14   C16   1.404633 A    
C53   H15   1.111226 S    
N13   O32   1.300722 A    
O8    Cu1   1.962904 S    
N12   O30   1.300386 A    
C16   N5    1.435882 S    
N9    O23   1.300757 A    
N14   O33   1.300467 A    
C41   H10   1.076712 S    
C37   N3    1.432453 S    
N15   O35   1.301092 A    
C40   H11   1.079072 S    
C47   C50   1.406509 A    
C24   N13   1.433081 S    
C22   C24   1.406839 A    
C21   N15   1.436691 S    
C56   C57   1.531941 S    
O10   C56   1.418980 S    
N5    O16   1.300902 A    
C26   N11   1.440414 S    
N1    C41   1.362402 A    
C26   C28   1.416794 A    
C7    C9    1.387118 A    
N8    O22   1.301835 A    
C8    C10   1.386333 A    
C13   C15   1.404230 A    
C57   H24   1.111833 S    
O2    Cu2   1.948312 S    
N6    O18   1.300587 A    
C37   C39   1.396924 A    
C18   N7    1.443495 S    
O9    C53   1.418412 S    
N2    C40   1.352298 A    
O5    Cu1   1.963277 S    
C54   C55   1.525533 S    
C38   N4    1.433414 S    
C25   C27   1.416001 A    
C6    C8    1.395552 A    
C17   C18   1.360704 D    
N11   O28   1.301766 A    
C27   C31   1.421641 A    
C23   N14   1.430223 S    
C20   C26   1.423018 A    
C50   C52   1.404722 A    
C22   N16   1.435331 S    
N10   O25   1.300785 A    
C39   H12   1.081640 S    
N7    O20   1.301793 A    
C10   H3    1.083526 S    
