data_mof_unit_59506.cif
_audit_creation_date              2012-10-26T20:15:02-0400
_audit_creation_method            fapswitch 2.2
_symmetry_space_group_name_H-M    P1
_symmetry_Int_Tables_number       1
_space_group_crystal_system       triclinic
_cell_length_a                    17.806511
_cell_length_b                    9.096494
_cell_length_c                    7.768097
_cell_angle_alpha                 90.000103
_cell_angle_beta                  89.704838
_cell_angle_gamma                 90.0
_cell_volume                      1258.23495719

loop_
_atom_site_label
_atom_site_type_symbol
_atom_type_description
_atom_site_fract_x
_atom_site_fract_y
_atom_site_fract_z
_atom_type_partial_charge
C1    C     C_R   0.500000 0.219950 0.500000 0.539980
C2    C     C_R   0.845852 0.405658 0.369639 0.028265
C3    C     C_R   0.768389 0.557649 0.634306 0.039747
C4    C     C_R   0.231611 0.557650 0.365694 0.039747
C5    C     C_R   0.232896 0.414970 0.633289 0.014464
C6    C     C_R   0.767104 0.414970 0.366711 0.014464
C7    C     C_R   0.728033 0.491616 0.498614 0.046956
C8    C     C_R   0.271967 0.491616 0.501386 0.046956
C9    C     C_R   0.885713 0.471563 0.506488 0.010654
C10   C     C_R   0.114287 0.471563 0.493512 0.010654
C11   C     C_1   0.966344 0.472490 0.502093 0.175893
C12   C     C_R   0.500000 0.780052 0.500000 0.561570
C13   C     C_1   0.033656 0.472490 0.497906 0.175893
C14   C     C_2   0.888310 0.609811 0.790875 0.227809
C15   C     C_2   0.111690 0.609812 0.209126 0.227810
C16   C     C_2   0.115275 0.326700 0.774269 0.315460
C17   C     C_2   0.884725 0.326701 0.225729 0.315461
C18   C     C_1   0.500000 0.065356 0.500000 -0.044170
C19   C     C_1   0.500000 0.934655 0.500000 -0.039105
C20   C     C_R   0.355089 0.498230 0.500597 0.573060
C21   C     C_R   0.644911 0.498230 0.499403 0.573061
C22   C     C_R   0.847332 0.545033 0.641370 -0.009467
C23   C     C_R   0.152668 0.545034 0.358630 -0.009467
C24   C     C_R   0.154148 0.405657 0.630360 0.028265
Cu1   Cu    Cu3+1 0.500000 0.500000 0.669080 1.033401
Cu2   Cu    Cu3+1 0.500000 0.500000 0.330920 1.033401
H1    H     H_    0.864126 0.699777 0.863875 0.117037
H2    H     H_    0.312325 0.269025 0.713881 0.254937
H3    H     H_    0.701750 0.416608 0.152185 0.259673
H4    H     H_    0.687675 0.269026 0.286117 0.254937
H5    H     H_    0.135874 0.699778 0.136127 0.117037
H6    H     H_    0.142613 0.315091 0.898073 0.159064
H7    H     H_    0.857387 0.315092 0.101925 0.159064
H8    H     H_    0.739781 0.592732 0.884966 0.230196
H9    H     H_    0.745786 0.747915 0.761886 0.225121
H10   H     H_    0.254214 0.747916 0.238116 0.225121
H11   H     H_    0.260219 0.592734 0.115035 0.230196
H12   H     H_    0.298250 0.416607 0.847814 0.259673
N1    N     N_1   0.500000 0.500000 0.076820 -0.077629
N2    N     N_1   0.500000 0.500000 0.923180 -0.077629
N3    N     N_3   0.728163 0.638330 0.764442 -0.605944
N4    N     N_3   0.271837 0.638331 0.235560 -0.605945
N5    N     N_3   0.272312 0.339555 0.768064 -0.656683
N6    N     N_3   0.727688 0.339556 0.231935 -0.656683
O1    O     O_R   0.500000 0.288390 0.642760 -0.502542
O2    O     O_2   0.051460 0.560694 0.161645 -0.441323
O3    O     O_2   0.053644 0.270229 0.755907 -0.451993
O4    O     O_2   0.946357 0.270231 0.244091 -0.451993
O5    O     O_R   0.500000 0.711610 0.357240 -0.489344
O6    O     O_R   0.500000 0.711610 0.642760 -0.489344
O7    O     O_R   0.500000 0.288390 0.357240 -0.502542
O8    O     O_R   0.391250 0.500000 0.642840 -0.524108
O9    O     O_R   0.608750 0.500000 0.357160 -0.524108
O10   O     O_R   0.608750 0.500000 0.642840 -0.461842
O11   O     O_R   0.391250 0.500000 0.357160 -0.461842
O12   O     O_2   0.948540 0.560693 0.838356 -0.441322

loop_
_geom_bond_atom_site_label_1
_geom_bond_atom_site_label_2
_ccdc_geom_bond_type
C5    C8    A    
C14   O12   D    
C15   H5    S    
C6    C7    A    
C10   C23   A    
C16   H6    S    
C1    O7    A    
Cu2   N1    S    
H2    N5    S    
H10   N4    S    
C17   O4    D    
C4    C8    A    
H4    N6    S    
Cu2   O11   S    
C14   C22   S    
C15   C23   S    
C12   O5    A    
C5    N5    S    
Cu1   O8    S    
H12   N5    S    
C20   O8    A    
C6    N6    S    
Cu2   O7    S    
C2    C17   S    
C21   O9    A    
C9    C11   S    
C1    O1    A    
C1    C18   S    
C8    C20   S    
C5    C24   A    
C4    N4    S    
C20   O11   A    
H9    N3    S    
C12   C19   S    
C17   H7    S    
H11   N4    S    
C3    C7    A    
H3    N6    S    
Cu1   N2    S    
C21   O10   A    
C14   H1    S    
C9    C22   A    
Cu2   O9    S    
Cu1   O1    S    
C11   C13   T    
Cu1   O10   S    
C16   O3    D    
C16   C24   S    
C18   C19   T    
Cu2   O5    S    
N1    N2    T    
C4    C23   A    
Cu1   O6    S    
C3    N3    S    
C3    C22   A    
C15   O2    D    
C10   C24   A    
Cu1   Cu2   S    
C7    C21   S    
C2    C9    A    
C10   C13   S    
C2    C6    A    
C12   O6    A    
H8    N3    S    
