data_mof_unit_29402.cif
_audit_creation_date              2013-03-05T15:45:34-0500
_audit_creation_method            fapswitch 2.2
_symmetry_space_group_name_H-M    P1
_symmetry_Int_Tables_number       1
_space_group_crystal_system       triclinic
_cell_length_a                    27.676084
_cell_length_b                    10.778989
_cell_length_c                    10.025283
_cell_angle_alpha                 90.392768
_cell_angle_beta                  91.309356
_cell_angle_gamma                 90.240584
_cell_volume                      2989.86494052

loop_
_atom_site_label
_atom_site_type_symbol
_atom_site_description
_atom_site_fract_x
_atom_site_fract_y
_atom_site_fract_z
_atom_type_partial_charge
O1    O     O_R   0.499990 0.319060 0.613040 -0.618569
O2    O     O_R   0.500010 0.319100 0.386900 -0.616422
C1    C     C_R   0.499175 0.262714 0.499484 0.933116
O3    O     O_R   0.428750 0.500000 0.613050 -0.618016
O4    O     O_R   0.428760 0.500040 0.386920 -0.608544
C2    C     C_R   0.406001 0.501223 0.498350 0.885062
Zn1   Zn    Zn3+2 0.499990 0.499970 0.650990 0.993317
Zn2   Zn    Zn3+2 0.500010 0.500030 0.349010 0.965282
O5    O     O_R   0.499990 0.680900 0.613100 -0.598992
O6    O     O_R   0.500010 0.680940 0.386960 -0.623878
O7    O     O_R   0.571240 0.499960 0.613080 -0.569056
O8    O     O_R   0.571250 0.500000 0.386950 -0.622946
C3    C     C_R   0.501247 0.737310 0.500386 0.946230
C4    C     C_R   0.593986 0.499207 0.501577 0.890807
C5    C     C_R   0.178104 0.411777 0.430628 0.578950
O9    O     O_2   0.204488 0.319776 0.377331 -0.497582
N1    N     N_R   0.201034 0.516294 0.476043 -0.353785
C6    C     C_R   0.176360 0.618290 0.516226 0.611585
C7    C     C_R   0.278894 0.541703 0.363387 0.003292
C8    C     C_R   0.329324 0.534285 0.371626 -0.236761
C9    C     C_R   0.326549 0.487914 0.607873 -0.175855
C10   C     C_R   0.276477 0.493324 0.601017 -0.088311
C11   C     C_R   0.252562 0.519316 0.479989 0.231872
C12   C     C_R   0.101111 0.511342 0.465463 -0.086217
C13   C     C_R   0.127469 0.402263 0.436512 -0.035585
C14   C     C_R   0.102267 0.289449 0.412244 -0.017009
C15   C     C_R   0.125811 0.623086 0.497787 -0.026901
C16   C     C_R   0.353230 0.507266 0.492954 -0.068530
H1    H     H_    0.344287 0.467063 0.702452 0.176495
H2    H     H_    0.255955 0.475850 0.689715 0.161023
C17   C     C_R   0.646742 0.494255 0.506054 -0.031873
C18   C     C_R   0.973978 0.395470 0.428673 0.050849
C19   C     C_R   0.974688 0.602863 0.530131 0.037220
C20   C     C_R   0.949158 0.496117 0.486795 0.067283
C21   C     C_R   0.946781 0.295492 0.374234 -0.189810
C22   C     C_R   0.896895 0.292003 0.383917 -0.101388
C23   C     C_R   0.872544 0.387754 0.448434 -0.022829
C24   C     C_R   0.898580 0.489938 0.501983 -0.042651
C25   C     C_R   0.874086 0.585955 0.569631 -0.104476
C26   C     C_R   0.823127 0.582425 0.567709 0.558168
N2    N     N_R   0.798972 0.481739 0.515700 -0.329326
C27   C     C_R   0.822384 0.384748 0.458439 0.566942
C28   C     C_R   0.722911 0.509440 0.395121 -0.130258
C29   C     C_R   0.672868 0.515307 0.390442 -0.202693
C30   C     C_R   0.671212 0.465915 0.626169 -0.279893
C31   C     C_R   0.721557 0.457625 0.631757 0.022761
C32   C     C_R   0.747421 0.481193 0.514621 0.314253
O10   O     O_2   0.796933 0.286610 0.409899 -0.538158
C33   C     C_R   0.025143 0.397069 0.430185 0.068568
C34   C     C_R   0.050117 0.508211 0.464624 0.061594
C35   C     C_R   0.024196 0.615871 0.500089 0.041034
C36   C     C_R   0.051982 0.289168 0.405231 -0.285131
H3    H     H_    0.654710 0.537460 0.296811 0.170198
H4    H     H_    0.742944 0.527834 0.305774 0.150093
H5    H     H_    0.877454 0.213765 0.340104 0.204806
H6    H     H_    0.963036 0.220314 0.319889 0.164540
H7    H     H_    0.034398 0.200294 0.390865 0.137725
O11   O     O_2   0.200923 0.713511 0.574144 -0.506202
C37   C     C_R   0.099588 0.735419 0.506859 -0.107465
H8    H     H_    0.350128 0.551403 0.283319 0.202224
C38   C     C_R   0.951129 0.689068 0.611698 -0.113120
C39   C     C_R   0.901496 0.681786 0.633512 -0.009596
O12   O     O_2   0.797489 0.679782 0.612215 -0.569971
C40   C     C_R   0.048589 0.732377 0.502965 -0.118142
H9    H     H_    0.971987 0.759726 0.664626 0.167631
H10   H     H_    0.651009 0.448018 0.715452 0.173451
C41   C     C_2   0.501817 0.932531 0.388081 -0.142027
C42   C     C_2   0.506216 0.868747 0.501503 -0.322335
H11   H     H_    0.496304 0.886486 0.292143 0.182773
H12   H     H_    0.514865 0.911713 0.597200 0.172204
C43   C     C_2   0.504599 0.066328 0.388527 -0.139848
C44   C     C_2   0.495454 0.131181 0.498861 -0.314262
H13   H     H_    0.513430 0.111623 0.295626 0.180582
H14   H     H_    0.483979 0.088956 0.590735 0.163345
C45   C     C_2   0.515143 0.593198 0.928342 -0.017888
N3    N     N_2   0.500520 0.501330 0.852150 -0.227150
H15   H     H_    0.480038 0.433558 0.895660 0.164233
C46   C     C_2   0.506883 0.598381 0.076135 -0.174784
N4    N     N_2   0.500540 0.501360 0.147810 -0.198911
H16   H     H_    0.510181 0.687424 0.126634 0.189672
H17   H     H_    0.502151 0.416388 0.100911 0.170944
C47   C     C_2   0.254954 0.572677 0.233025 0.960890
O13   O     O_2   0.277753 0.566066 0.130060 -0.618304
O14   O     O_R   0.206787 0.611239 0.226850 -0.784408
H18   H     H_    0.195066 0.629567 0.132509 0.359927
C48   C     C_2   0.124695 0.857115 0.503134 0.519025
H19   H     H_    0.115409 0.930000 0.572953 0.051180
O15   O     O_2   0.154841 0.877498 0.418824 -0.470344
C49   C     C_2   0.880778 0.770094 0.731062 0.509226
H20   H     H_    0.850192 0.743639 0.790357 0.119186
O16   O     O_2   0.898631 0.872851 0.749048 -0.544704
C50   C     C_2   0.745188 0.422972 0.760612 0.442698
H21   H     H_    0.723775 0.417065 0.849766 0.062399
O17   O     O_2   0.788145 0.398364 0.769277 -0.554022
C51   C     C_2   0.021722 0.850375 0.478746 0.397482
H22   H     H_    0.034134 0.937036 0.523327 0.032694
O18   O     O_2   0.986095 0.852201 0.404609 -0.523436
C52   C     C_2   0.540914 0.700218 0.872034 0.978682
O19   O     O_2   0.529003 0.805678 0.902242 -0.660567
O20   O     O_R   0.580363 0.681299 0.790214 -0.775029
H23   H     H_    0.595195 0.761897 0.758956 0.333854
C53   C     C_2   0.125850 0.166690 0.406747 0.508535
H24   H     H_    0.112124 0.096438 0.337492 0.066492
O21   O     O_2   0.158253 0.139974 0.485980 -0.488437

loop_
_geom_bond_atom_site_label_1
_geom_bond_atom_site_label_2
_geom_bond_distance
_ccdc_geom_bond_type
C51   H22   1.083933 S    
N2    C27   1.362660 A    
C21   C22   1.386651 A    
C12   C15   1.414469 A    
C4    C17   1.460946 S    
C28   C29   1.386437 A    
C30   C31   1.396441 A    
Zn1   O7    2.016722 S    
C37   C40   1.411340 A    
N1    C11   1.425975 S    
C26   O12   1.348362 S    
C22   C23   1.397990 A    
O4    C2    1.294954 A    
O7    C4    1.295388 A    
C46   H16   1.084587 S    
C5    C13   1.407306 A    
C31   C50   1.485284 S    
C5    O9    1.348630 S    
C39   C49   1.486174 S    
Zn1   O5    1.989446 S    
C23   C27   1.394384 A    
C33   C34   1.417245 A    
O5    C3    1.287961 A    
C50   H21   1.085728 S    
O14   H18   1.013835 S    
C6    O11   1.349323 S    
C2    C16   1.461997 S    
C7    C8    1.398911 A    
Zn2   N4    2.017625 S    
C49   O16   1.221497 D    
C7    C47   1.492226 S    
C41   C43   1.443898 S    
C20   C24   1.412841 A    
C9    C10   1.387433 A    
C38   C39   1.397828 A    
O3    Zn1   1.999447 S    
C29   H3    1.083136 S    
C34   C35   1.414464 A    
C12   C34   1.411430 A    
C17   C29   1.399366 A    
C35   C40   1.423078 A    
C41   C42   1.336251 D    
C18   C21   1.411421 A    
C12   C13   1.418087 A    
O3    C2    1.298477 A    
C25   C26   1.410412 A    
N4    H17   1.028279 S    
C48   H19   1.084243 S    
C8    C16   1.404191 A    
C13   C14   1.416146 A    
C9    H1    1.083104 S    
C45   C52   1.475975 S    
O1    C1    1.286331 A    
C18   C20   1.415705 A    
C7    C11   1.413205 A    
C45   N3    1.303831 D    
C23   C24   1.410022 A    
C14   C36   1.391845 A    
C28   H4    1.083173 S    
Zn2   O8    1.999450 S    
C33   C36   1.406705 A    
C50   O17   1.220481 D    
N1    C6    1.360202 A    
N2    C32   1.426516 S    
C27   O10   1.350189 S    
N3    H15   1.028327 S    
C53   O21   1.220999 D    
C44   H14   1.083642 S    
C26   N2    1.366318 A    
C9    C16   1.398928 A    
O8    C4    1.297590 A    
C52   O19   1.222928 D    
C52   O20   1.395344 S    
C8    H8    1.083502 S    
C43   H13   1.086816 S    
C5    N1    1.361247 A    
C25   C39   1.419412 A    
C31   C32   1.413141 A    
C10   H2    1.083165 S    
C21   H6    1.078927 S    
O1    Zn1   1.984234 S    
Zn2   O6    1.984233 S    
O2    Zn2   1.989447 S    
C6    C15   1.408168 A    
C40   C51   1.494490 S    
O6    C3    1.285296 A    
O4    Zn2   2.016719 S    
C51   O18   1.221441 D    
Zn1   N3    2.016356 S    
C19   C35   1.416211 A    
C47   O14   1.398200 S    
C1    C44   1.421064 S    
C37   C48   1.482950 S    
C43   C44   1.334138 D    
C22   H5    1.083483 S    
C15   C37   1.417743 A    
C14   C53   1.479141 S    
C46   N4    1.286599 D    
C24   C25   1.417010 A    
C19   C38   1.405806 A    
O20   H23   1.013938 S    
C19   C20   1.408618 A    
O2    C1    1.286210 A    
C48   O15   1.221471 D    
C53   H24   1.085414 S    
C45   C46   1.505051 S    
C18   C33   1.415818 A    
C36   H7    1.079946 S    
C38   H9    1.082426 S    
C42   H12   1.083832 S    
C47   O13   1.223875 D    
C17   C30   1.404121 A    
C30   H10   1.084152 S    
C10   C11   1.399374 A    
C41   H11   1.086644 S    
C49   H20   1.083749 S    
C28   C32   1.399185 A    
C3    C42   1.422785 S    
