data_mof_unit_38268.cif
_audit_creation_date              2013-03-05T15:51:14-0500
_audit_creation_method            fapswitch 2.2
_symmetry_space_group_name_H-M    P1
_symmetry_Int_Tables_number       1
_space_group_crystal_system       triclinic
_cell_length_a                    19.121015
_cell_length_b                    10.931637
_cell_length_c                    18.815873
_cell_angle_alpha                 89.948663
_cell_angle_beta                  89.362142
_cell_angle_gamma                 90.285143
_cell_volume                      3932.67474449

loop_
_atom_site_label
_atom_site_type_symbol
_atom_site_description
_atom_site_fract_x
_atom_site_fract_y
_atom_site_fract_z
_atom_type_partial_charge
O1    O     O_R   0.787520 0.042810 0.170440 -0.517088
O2    O     O_R   0.212480 0.042810 0.829560 -0.533546
O3    O     O_R   0.287520 0.542810 0.170440 -0.522942
O4    O     O_R   0.712480 0.542810 0.829560 -0.533045
O5    O     O_R   0.765640 0.292100 0.175020 -0.492289
O6    O     O_R   0.234360 0.292100 0.824980 -0.498948
O7    O     O_R   0.265640 0.792100 0.175020 -0.488722
O8    O     O_R   0.734360 0.792100 0.824980 -0.498673
C1    C     C_R   0.730018 0.375601 0.145652 0.568254
C2    C     C_R   0.288245 0.329185 0.861226 0.552025
C3    C     C_R   0.230019 0.875604 0.145654 0.574670
C4    C     C_R   0.788244 0.829187 0.861226 0.552325
O9    O     O_R   0.670190 0.408840 0.168540 -0.510720
O10   O     O_R   0.329810 0.408840 0.831460 -0.513112
O11   O     O_R   0.170190 0.908840 0.168540 -0.508810
O12   O     O_R   0.829810 0.908840 0.831460 -0.512361
O13   O     O_R   0.556620 0.251410 0.175160 -0.505101
O14   O     O_R   0.443380 0.251410 0.824840 -0.527870
O15   O     O_R   0.056620 0.751410 0.175160 -0.505445
O16   O     O_R   0.943380 0.751410 0.824840 -0.528187
C5    C     C_R   0.531652 0.156413 0.146668 0.563792
C6    C     C_R   0.468670 0.155235 0.853089 0.524978
C7    C     C_R   0.031653 0.656413 0.146668 0.564058
C8    C     C_R   0.968670 0.655236 0.853090 0.524763
O17   O     O_R   0.545960 0.049620 0.170320 -0.511746
O18   O     O_R   0.454040 0.049620 0.829680 -0.518713
O19   O     O_R   0.045960 0.549620 0.170320 -0.511415
O20   O     O_R   0.954040 0.549620 0.829680 -0.518645
O21   O     O_R   0.681390 0.958010 0.176690 -0.487498
O22   O     O_R   0.318610 0.958010 0.823310 -0.502550
O23   O     O_R   0.181390 0.458010 0.176690 -0.488823
O24   O     O_R   0.818610 0.458010 0.823310 -0.502262
C9    C     C_R   0.742039 0.967525 0.147975 0.568887
C10   C     C_R   0.258062 0.970122 0.852502 0.532709
C11   C     C_R   0.242038 0.467529 0.147971 0.559713
C12   C     C_R   0.758062 0.470122 0.852502 0.533405
O25   O     O_R   0.787510 0.044390 0.330970 -0.471509
O26   O     O_R   0.212490 0.044390 0.669030 -0.458915
O27   O     O_R   0.287510 0.544390 0.330970 -0.526636
O28   O     O_R   0.712490 0.544390 0.669030 -0.466082
O29   O     O_R   0.765630 0.293570 0.323840 -0.514366
O30   O     O_R   0.234370 0.293570 0.676160 -0.473747
O31   O     O_R   0.265630 0.793570 0.323840 -0.454275
O32   O     O_R   0.734370 0.793570 0.676160 -0.484478
C13   C     C_R   0.726821 0.371287 0.354840 0.599483
C14   C     C_R   0.271130 0.379037 0.647618 0.548288
C15   C     C_R   0.211668 0.833547 0.359642 0.547671
C16   C     C_R   0.770703 0.880033 0.648129 0.544417
O33   O     O_R   0.670190 0.410420 0.329080 -0.505762
O34   O     O_R   0.329810 0.410420 0.670920 -0.473536
O35   O     O_R   0.170190 0.910420 0.329080 -0.466753
O36   O     O_R   0.829810 0.910420 0.670920 -0.469708
O37   O     O_R   0.556610 0.252880 0.323980 -0.468692
O38   O     O_R   0.443390 0.252880 0.676020 -0.497503
O39   O     O_R   0.056610 0.752880 0.323980 -0.480756
O40   O     O_R   0.943390 0.752880 0.676020 -0.496081
C17   C     C_R   0.562496 0.153000 0.360764 0.552250
C18   C     C_R   0.468860 0.157083 0.647290 0.536737
C19   C     C_R   0.062160 0.653291 0.360825 0.552230
C20   C     C_R   0.968805 0.657159 0.647201 0.538532
O41   O     O_R   0.545950 0.051210 0.330860 -0.461536
O42   O     O_R   0.454050 0.051210 0.669140 -0.464058
O43   O     O_R   0.045950 0.551210 0.330860 -0.455753
O44   O     O_R   0.954050 0.551210 0.669140 -0.466047
O45   O     O_R   0.681390 0.959480 0.325510 -0.460285
O46   O     O_R   0.318610 0.959480 0.674490 -0.488835
O47   O     O_R   0.181390 0.459480 0.325510 -0.500785
O48   O     O_R   0.818610 0.459480 0.674490 -0.489872
C21   C     C_R   0.728709 0.016884 0.361676 0.552776
C22   C     C_R   0.258379 0.970322 0.646200 0.538421
C23   C     C_R   0.239936 0.473465 0.355252 0.598704
C24   C     C_R   0.758378 0.470700 0.646279 0.542221
Cr1   Cr    Cr6+3 0.772010 0.169670 0.250090 1.051085
Cr2   Cr    Cr6+3 0.227990 0.169670 0.749910 1.077418
Cr3   Cr    Cr6+3 0.272010 0.669670 0.250090 1.055369
Cr4   Cr    Cr6+3 0.727990 0.669670 0.749910 1.072313
Cr5   Cr    Cr6+3 0.615000 0.323260 0.249260 1.050632
Cr6   Cr    Cr6+3 0.385000 0.323260 0.750740 1.068398
Cr7   Cr    Cr6+3 0.115000 0.823260 0.249260 1.063516
Cr8   Cr    Cr6+3 0.885000 0.823260 0.750740 1.069906
Cr9   Cr    Cr6+3 0.616710 0.010760 0.250840 1.080044
Cr10  Cr    Cr6+3 0.383290 0.010760 0.749160 1.074145
Cr11  Cr    Cr6+3 0.116710 0.510760 0.250840 1.070283
Cr12  Cr    Cr6+3 0.883290 0.510760 0.749160 1.074530
O49   O     O_3   0.667900 0.167900 0.250060 -0.329209
O50   O     O_3   0.332100 0.167900 0.749940 -0.295824
O51   O     O_3   0.167900 0.667900 0.250060 -0.329676
O52   O     O_3   0.832100 0.667900 0.749940 -0.294736
H1    H     H_    0.484251 0.974029 0.067986 0.134952
H2    H     H_    0.479747 0.967302 0.942416 0.137956
H3    H     H_    0.984255 0.474027 0.067985 0.134616
H4    H     H_    0.979751 0.467302 0.942415 0.138012
C25   C     C_R   0.496155 0.161882 0.925596 -0.001189
C26   C     C_R   0.503125 0.168988 0.074694 0.001419
C27   C     C_R   0.996155 0.661884 0.925597 -0.001143
C28   C     C_R   0.003125 0.668987 0.074695 0.001520
C29   C     C_R   0.511297 0.274250 0.959432 0.008949
C30   C     C_R   0.508732 0.280215 0.034838 0.024803
C31   C     C_R   0.011294 0.774252 0.959434 0.008969
C32   C     C_R   0.008730 0.780215 0.034839 0.024532
C33   C     C_R   0.489456 0.059655 0.039384 -0.166148
C34   C     C_R   0.488431 0.055534 0.966561 -0.156747
C35   C     C_R   0.989457 0.559654 0.039383 -0.166435
C36   C     C_R   0.988433 0.555534 0.966561 -0.156693
C37   C     C_R   0.527759 0.381097 0.920186 -0.093355
C38   C     C_R   0.510937 0.397242 0.067132 -0.089202
C39   C     C_R   0.027754 0.881102 0.920189 -0.093380
C40   C     C_R   0.010932 0.897241 0.067135 -0.089424
C41   C     C_R   0.032837 0.994165 0.953783 -0.128779
C42   C     C_R   0.022717 0.002615 0.026819 -0.142643
C43   C     C_R   0.532843 0.494162 0.953778 -0.128689
C44   C     C_R   0.522722 0.502614 0.026815 -0.142402
H5    H     H_    0.537171 0.378233 0.863447 0.145678
H6    H     H_    0.499902 0.410387 0.122958 0.146205
H7    H     H_    0.037167 0.878239 0.863450 0.145411
H8    H     H_    0.999897 0.910385 0.122962 0.148194
H9    H     H_    0.043695 0.075727 0.922861 0.115346
H10   H     H_    0.024332 0.091203 0.052451 0.107140
H11   H     H_    0.543702 0.575721 0.922855 0.115284
H12   H     H_    0.524339 0.591203 0.052445 0.106683
C45   C     C_R   0.778492 0.842582 0.938034 0.011484
C46   C     C_R   0.247285 0.906961 0.073160 0.020217
C47   C     C_R   0.278493 0.342577 0.938035 0.011583
C48   C     C_R   0.747285 0.406959 0.073159 0.021300
C49   C     C_R   0.714477 0.818269 0.971812 0.005091
C50   C     C_R   0.277730 0.817673 0.029204 0.027397
C51   C     C_R   0.214479 0.318260 0.971813 0.004816
C52   C     C_R   0.777730 0.317671 0.029203 0.028239
C53   C     C_R   0.704248 0.845786 0.043039 0.009560
C54   C     C_R   0.277917 0.830213 0.956105 0.007943
C55   C     C_R   0.204249 0.345777 0.043041 0.010719
C56   C     C_R   0.777917 0.330213 0.956105 0.007828
C57   C     C_R   0.825138 0.904411 0.052449 -0.149945
C58   C     C_R   0.206610 0.010080 0.968692 -0.140298
C59   C     C_R   0.325139 0.404407 0.052450 -0.150264
C60   C     C_R   0.706613 0.510083 0.968693 -0.140249
C61   C     C_R   0.835243 0.877216 0.980420 -0.158067
C62   C     C_R   0.209189 0.000907 0.041705 -0.140970
C63   C     C_R   0.335244 0.377211 0.980421 -0.157718
C64   C     C_R   0.709190 0.500908 0.041705 -0.140602
C65   C     C_3   0.642722 0.858956 0.952613 -0.266572
C66   C     C_3   0.350269 0.767088 0.028184 -0.270496
C67   C     C_3   0.142722 0.358941 0.952615 -0.266879
C68   C     C_3   0.850269 0.267087 0.028185 -0.270740
C69   C     C_3   0.631639 0.889334 0.030519 -0.264908
C70   C     C_3   0.349288 0.778250 0.947648 -0.274810
C71   C     C_3   0.131639 0.389316 0.030523 -0.264247
C72   C     C_3   0.849288 0.278249 0.947648 -0.274695
C73   C     C_R   0.757687 0.899097 0.082909 0.023335
C74   C     C_R   0.245673 0.930551 0.924899 0.023770
C75   C     C_R   0.257688 0.399093 0.082910 0.024239
C76   C     C_R   0.745673 0.430552 0.924899 0.023616
H13   H     H_    0.868479 0.941479 0.082080 0.137555
H14   H     H_    0.177553 0.085659 0.947062 0.146132
H15   H     H_    0.368480 0.441476 0.082080 0.136378
H16   H     H_    0.677558 0.585664 0.947062 0.146160
H17   H     H_    0.886078 0.892622 0.956612 0.153668
H18   H     H_    0.179860 0.065926 0.073530 0.147359
H19   H     H_    0.386079 0.392618 0.956613 0.153635
H20   H     H_    0.679863 0.565927 0.073530 0.146951
H21   H     H_    0.109310 0.282028 0.934276 0.128840
H22   H     H_    0.851691 0.170743 0.046852 0.155301
H23   H     H_    0.609308 0.782045 0.934273 0.128822
H24   H     H_    0.351691 0.670743 0.046852 0.155496
H25   H     H_    0.643017 0.940998 0.917596 0.159613
H26   H     H_    0.388631 0.829117 0.053795 0.131621
H27   H     H_    0.143014 0.440984 0.917600 0.159604
H28   H     H_    0.888630 0.329117 0.053796 0.131160
H29   H     H_    0.626441 0.989049 0.040515 0.159080
H30   H     H_    0.387567 0.845020 0.925901 0.155600
H31   H     H_    0.126437 0.489031 0.040519 0.159539
H32   H     H_    0.887568 0.345020 0.925902 0.155637
H33   H     H_    0.591777 0.830147 0.057097 0.134332
H34   H     H_    0.348492 0.688152 0.920284 0.157300
H35   H     H_    0.091779 0.330125 0.057100 0.134517
H36   H     H_    0.848494 0.188152 0.920284 0.157521
C77   C     C_R   0.505200 0.161392 0.579534 -0.008337
C78   C     C_R   0.543857 0.159090 0.435364 0.054389
C79   C     C_R   0.005678 0.662260 0.579628 -0.011802
C80   C     C_R   0.043063 0.660258 0.435304 0.048055
C81   C     C_R   0.505322 0.054097 0.539991 0.022078
C82   C     C_R   0.524608 0.051896 0.470527 -0.031369
C83   C     C_R   0.009351 0.553652 0.541196 0.026638
C84   C     C_R   0.028137 0.551838 0.471053 -0.031330
C85   C     C_R   0.551155 0.267265 0.475581 -0.127667
C86   C     C_R   0.532830 0.268154 0.548281 -0.151397
C87   C     C_R   0.044275 0.770685 0.473857 -0.123508
C88   C     C_R   0.027152 0.771426 0.546645 -0.150105
C89   C     C_3   0.450610 0.957715 0.530806 0.139012
C90   C     C_3   0.475228 0.948243 0.454077 0.142244
C91   C     C_3   0.953646 0.459334 0.531409 0.130578
C92   C     C_3   0.975767 0.453243 0.454222 0.126687
H37   H     H_    0.566562 0.351628 0.449968 0.152731
H38   H     H_    0.535351 0.352702 0.577991 0.202108
H39   H     H_    0.054339 0.856286 0.446959 0.158995
H40   H     H_    0.025727 0.857063 0.575308 0.206337
H41   H     H_    0.900318 0.496384 0.540930 0.165188
H42   H     H_    0.000832 0.365724 0.438326 0.172391
H43   H     H_    0.396740 0.993969 0.538036 0.163980
H44   H     H_    0.503146 0.861853 0.441387 0.172501
C93   C     C_R   0.751902 0.934846 0.580806 -0.007466
C94   C     C_R   0.222017 0.855634 0.434794 0.036565
C95   C     C_R   0.255637 0.424706 0.577255 -0.011210
C96   C     C_R   0.737171 0.391020 0.429696 0.070061
C97   C     C_R   0.804915 0.992472 0.540825 -0.002090
C98   C     C_R   0.178997 0.939087 0.469819 -0.049283
C99   C     C_R   0.311162 0.467922 0.534775 -0.005528
C100  C     C_R   0.686940 0.457935 0.466299 -0.054154
C101  C     C_R   0.796048 0.013826 0.469874 -0.041803
C102  C     C_R   0.191355 0.969450 0.538598 0.031388
C103  C     C_R   0.305362 0.470466 0.462777 -0.031114
C104  C     C_R   0.693033 0.476182 0.537367 0.021745
C105  C     C_R   0.678097 0.938915 0.476692 -0.131958
C106  C     C_R   0.281285 0.818199 0.547343 -0.143567
C107  C     C_R   0.184645 0.414150 0.471252 -0.140058
C108  C     C_R   0.788429 0.334759 0.543298 -0.159736
C109  C     C_R   0.686296 0.916296 0.549576 -0.153162
C110  C     C_R   0.270916 0.789223 0.475205 -0.121286
C111  C     C_R   0.190095 0.408344 0.545627 -0.156985
C112  C     C_R   0.785203 0.321198 0.469223 -0.126847
C113  C     C_3   0.879782 0.955058 0.527898 0.106606
C114  C     C_3   0.155753 0.067253 0.452515 0.101708
C115  C     C_3   0.386777 0.431638 0.527454 0.102482
C116  C     C_3   0.659001 0.583838 0.453964 0.092199
C117  C     C_3   0.869207 0.981578 0.449595 0.129935
C118  C     C_3   0.175658 0.101404 0.527887 0.120798
C119  C     C_3   0.378543 0.436163 0.446877 0.107170
C120  C     C_3   0.672332 0.607374 0.532240 0.120166
C121  C     C_R   0.734277 0.985386 0.436059 0.055948
C122  C     C_R   0.243291 0.914622 0.578183 -0.005982
C123  C     C_R   0.244473 0.439242 0.429027 0.077547
C124  C     C_R   0.745004 0.420531 0.576874 -0.002651
H45   H     H_    0.630004 0.913109 0.451315 0.148511
H46   H     H_    0.320879 0.770763 0.577161 0.201019
H47   H     H_    0.134613 0.397126 0.446966 0.158989
H48   H     H_    0.827427 0.285663 0.572948 0.202412
H49   H     H_    0.643586 0.876306 0.579795 0.209195
H50   H     H_    0.303196 0.720149 0.450383 0.159484
H51   H     H_    0.144685 0.385172 0.577617 0.213936
H52   H     H_    0.821482 0.260073 0.442952 0.158830
H53   H     H_    0.889895 0.857787 0.541516 0.146448
H54   H     H_    0.098851 0.073055 0.441563 0.175725
H55   H     H_    0.397551 0.339645 0.549581 0.143392
H56   H     H_    0.602903 0.583336 0.438849 0.172739
H57   H     H_    0.897070 0.062657 0.427312 0.168275
H58   H     H_    0.223239 0.159719 0.532274 0.151563
H59   H     H_    0.406063 0.509982 0.417072 0.182755
H60   H     H_    0.716738 0.670219 0.543297 0.155008
Cl1   Cl    Cl    0.468741 0.827526 0.583532 -0.471004
Cl2   Cl    Cl    0.407379 0.983529 0.393085 -0.450831
Cl3   Cl    Cl    0.972435 0.326323 0.581194 -0.479193
Cl4   Cl    Cl    0.907496 0.501636 0.396388 -0.497127
N1    N     N_R   0.930309 0.039372 0.558469 0.078244
O53   O     O_R   0.933084 0.054896 0.626872 -0.244236
O54   O     O_R   0.982035 0.077543 0.518906 -0.316109
N2    N     N_R   0.198941 0.128718 0.398658 0.080713
O55   O     O_R   0.266663 0.120516 0.399600 -0.220599
O56   O     O_R   0.169204 0.186132 0.346616 -0.318870
N3    N     N_R   0.433464 0.526976 0.553817 0.084166
O57   O     O_R   0.471272 0.591880 0.509813 -0.310573
O58   O     O_R   0.441023 0.542100 0.621839 -0.238776
N4    N     N_R   0.703241 0.656590 0.406213 0.072803
O59   O     O_R   0.770203 0.664671 0.416376 -0.240287
O60   O     O_R   0.676802 0.702355 0.348723 -0.298098
Cl5   Cl    Cl    0.879656 0.848167 0.395925 -0.455930
Cl6   Cl    Cl    0.105452 0.147105 0.583886 -0.474413
Cl7   Cl    Cl    0.386901 0.290817 0.405520 -0.495413
Cl8   Cl    Cl    0.596814 0.635022 0.584951 -0.476548

loop_
_geom_bond_atom_site_label_1
_geom_bond_atom_site_label_2
_geom_bond_distance
_ccdc_geom_bond_type
C18   O42   1.257782 A    
Cr6   O50   1.972565 S    
Cr11  O51   1.972816 S    
O4    C12   1.261763 A    
C57   C61   1.399273 A    
C33   C34   1.371352 A    
O39   C19   1.295583 A    
C114  N2    1.461146 S    
O20   Cr12  2.084948 S    
C39   C41   1.392185 A    
O29   C13   1.268935 A    
C66   C70   1.520489 S    
C55   C75   1.399445 A    
C43   C44   1.388892 A    
C90   Cl2   1.785003 S    
C68   C72   1.520489 S    
C119  Cl7   1.776965 S    
C62   H18   1.084205 S    
C42   H10   1.082696 S    
O29   Cr1   1.943253 S    
O26   C22   1.268589 A    
C29   C30   1.420694 A    
C114  H54   1.111735 S    
O1    C9    1.270414 A    
C66   H26   1.110659 S    
C9    C73   1.464104 S    
C38   C44   1.394689 A    
C81   C82   1.354362 A    
C20   C79   1.447867 S    
O5    C1    1.271277 A    
C97   C113  1.507971 S    
C91   H41   1.111779 S    
O39   Cr7   1.941553 S    
C72   H36   1.111899 S    
C101  C117  1.489967 S    
C68   H28   1.110659 S    
C86   H38   1.081731 S    
C57   H13   1.081280 S    
O24   C12   1.283383 A    
Cr1   O49   1.990693 S    
C37   H5    1.081193 S    
C19   C80   1.446411 S    
O40   C20   1.274882 A    
C21   C121  1.446221 S    
C66   H24   1.110495 S    
N1    O53   1.299994 A    
C60   H16   1.079790 S    
C27   C31   1.414216 A    
O47   C23   1.265758 A    
C54   C70   1.487755 S    
C5    C26   1.472173 S    
C26   C30   1.430933 A    
C111  H51   1.079951 S    
C58   C74   1.409523 A    
O21   C9    1.277626 A    
O8    Cr4   1.951109 S    
C1    C48   1.440509 S    
O23   Cr11  1.943904 S    
C7    C28   1.472169 S    
C96   C112  1.414341 A    
C89   Cl1   1.771988 S    
O30   C14   1.280438 A    
H4    C36   1.079420 S    
C45   C61   1.404501 A    
C112  H52   1.081493 S    
O14   Cr6   1.961727 S    
C1    O9    1.272645 A    
O44   Cr12  2.059273 S    
C88   H40   1.081125 S    
C5    O17   1.280906 A    
C120  Cl8   1.770066 S    
Cr5   O49   1.981191 S    
C108  C124  1.401727 A    
C45   C49   1.397136 A    
C78   C85   1.411663 A    
C3    O11   1.272639 A    
O41   Cr9   2.062741 S    
O11   Cr7   2.060972 S    
C4    C45   1.462700 S    
C4    O12   1.298410 A    
C26   C33   1.392982 A    
C115  H55   1.109191 S    
N2    O56   1.300371 A    
C54   C74   1.393424 A    
C91   Cl3   1.769464 S    
C84   C92   1.503871 S    
O6    Cr2   1.951109 S    
C30   C38   1.417408 A    
O32   C16   1.280083 A    
C97   C101  1.367607 A    
C15   O35   1.296834 A    
O3    Cr3   2.062792 S    
Cr4   O52   1.990884 S    
C53   C69   1.491071 S    
O2    Cr2   2.058998 S    
C60   C64   1.378807 A    
C48   C52   1.404280 A    
C68   H22   1.110494 S    
C46   C50   1.404283 A    
O2    C10   1.261763 A    
O10   Cr6   2.066967 S    
C37   C43   1.392182 A    
C63   H19   1.078150 S    
O18   Cr10  2.084948 S    
C103  C119  1.477911 S    
C99   C103  1.360731 A    
C102  C118  1.488816 S    
C106  H46   1.081525 S    
C11   C75   1.464096 S    
C95   C111  1.404025 A    
C113  H53   1.111929 S    
C105  H45   1.077346 S    
C52   C56   1.382067 A    
Cr7   O51   1.981191 S    
C100  C104  1.358380 A    
C60   C76   1.409520 A    
C58   H14   1.079789 S    
C71   H31   1.111081 S    
C118  H58   1.112175 S    
C79   C83   1.392361 A    
C117  H57   1.111243 S    
O24   Cr12  1.939506 S    
C69   H29   1.111083 S    
C32   C40   1.417410 A    
O30   Cr2   1.940672 S    
O22   C10   1.283385 A    
C90   H44   1.111947 S    
C91   C92   1.509779 S    
C77   C81   1.389549 A    
C108  C112  1.403792 A    
C57   C73   1.406420 A    
C46   C62   1.396981 A    
C2    C47   1.462709 S    
C2    O10   1.298415 A    
C59   H15   1.081280 S    
C49   C65   1.492516 S    
C81   C89   1.492576 S    
C50   C54   1.382066 A    
O16   Cr8   1.961727 S    
C99   C115  1.506032 S    
C116  H56   1.112774 S    
O7    Cr3   1.950204 S    
C79   C88   1.402135 A    
O27   C23   1.272968 A    
C92   Cl4   1.790420 S    
C95   C99   1.401663 A    
C16   C93   1.450471 S    
C50   C66   1.495671 S    
C114  C118  1.518886 S    
O13   C5    1.263133 A    
C77   C86   1.404543 A    
O28   Cr4   2.071016 S    
C15   C94   1.450308 S    
O43   Cr11  2.062741 S    
O48   C24   1.279888 A    
O12   Cr8   2.066967 S    
O48   Cr12  1.962386 S    
C41   H9    1.082181 S    
O7    C3    1.271277 A    
C83   C84   1.364142 A    
C22   C122  1.449056 S    
O21   Cr9   1.943904 S    
C80   C87   1.409126 A    
C107  C111  1.405865 A    
C116  C120  1.519465 S    
O46   Cr10  1.962386 S    
C105  C109  1.403909 A    
O25   C21   1.292364 A    
C98   C102  1.359270 A    
C25   C29   1.414209 A    
N1    O54   1.298236 A    
C31   C32   1.420695 A    
C13   O33   1.267440 A    
O8    C4    1.305005 A    
C67   H27   1.112339 S    
N2    O55   1.298773 A    
O13   Cr5   1.958276 S    
C102  C122  1.386274 A    
C115  C119  1.526797 S    
C107  H47   1.080162 S    
C113  N1    1.455416 S    
C51   C67   1.492521 S    
O47   Cr11  1.965181 S    
Cr2   O50   1.990884 S    
O15   Cr7   1.958276 S    
C70   H34   1.111900 S    
C52   C68   1.495667 S    
O35   Cr7   2.074841 S    
C39   H7    1.081190 S    
C78   C82   1.391131 A    
C103  C123  1.374120 A    
C118  Cl6   1.771440 S    
C96   C100  1.387467 A    
C113  C117  1.517288 S    
C43   H11   1.082181 S    
Cr3   O51   1.990693 S    
C14   C95   1.448744 S    
C38   H6    1.078980 S    
C65   H23   1.110954 S    
C7    O19   1.280903 A    
C117  Cl5   1.785401 S    
O9    Cr5   2.060972 S    
C106  C110  1.410019 A    
O37   Cr5   1.941553 S    
C56   C76   1.393428 A    
C47   C63   1.404501 A    
C107  C123  1.411167 A    
C8    C27   1.469183 S    
C3    C46   1.440524 S    
C110  H50   1.080793 S    
O3    C11   1.270424 A    
N3    O57   1.300800 A    
C106  C122  1.405299 A    
C109  H49   1.080279 S    
C47   C51   1.397140 A    
O34   Cr6   2.078426 S    
C105  C121  1.404306 A    
C27   C36   1.400586 A    
O15   C7    1.263133 A    
O31   Cr3   1.943253 S    
C44   H12   1.082696 S    
O26   Cr2   2.071016 S    
C94   C98   1.392717 A    
O45   C21   1.297819 A    
O25   Cr1   2.071163 S    
O37   C17   1.298246 A    
O22   Cr10  1.939506 S    
O28   C24   1.265430 A    
H1    C33   1.082899 S    
O14   C6    1.277295 A    
C56   C72   1.487758 S    
C65   H25   1.112340 S    
C29   C37   1.413591 A    
C48   C64   1.396978 A    
O5    Cr1   1.950204 S    
C12   C76   1.445537 S    
C8    O20   1.267166 A    
H3    C35   1.082900 S    
N3    O58   1.300221 A    
O17   Cr9   2.087137 S    
C83   C91   1.491728 S    
C25   C34   1.400587 A    
C58   C62   1.378808 A    
C116  N4    1.459615 S    
C40   C42   1.394687 A    
C17   O41   1.287029 A    
N4    O59   1.299256 A    
C120  H60   1.111115 S    
C65   C69   1.516130 S    
C100  C116  1.497674 S    
C31   C39   1.413591 A    
C14   O34   1.255492 A    
C19   O43   1.288722 A    
O40   Cr8   1.946947 S    
C104  C124  1.389911 A    
C61   H17   1.078149 S    
C20   O44   1.258851 A    
C59   C63   1.399275 A    
O1    Cr1   2.062792 S    
C94   C110  1.414583 A    
H2    C34   1.079419 S    
C70   H30   1.106079 S    
C69   H33   1.111605 S    
C93   C109  1.405047 A    
C67   C71   1.516132 S    
Cr8   O52   1.972565 S    
C23   C123  1.441004 S    
Cr10  O50   1.981303 S    
C41   C42   1.388893 A    
C64   H20   1.084204 S    
C115  N3    1.459689 S    
C40   H8    1.078983 S    
C85   C86   1.408353 A    
C17   C78   1.446024 S    
Cr12  O52   1.981303 S    
C89   H43   1.112482 S    
C98   C114  1.508357 S    
C13   C96   1.440780 S    
C59   C75   1.406420 A    
C28   C32   1.430928 A    
O23   C11   1.277633 A    
O19   Cr11  2.087137 S    
C72   H32   1.106080 S    
C108  H48   1.080755 S    
O33   Cr5   2.074841 S    
C18   C77   1.445760 S    
C71   H35   1.111605 S    
C10   C74   1.445541 S    
O42   Cr10  2.059273 S    
C89   C90   1.517306 S    
O16   C8    1.277294 A    
C51   C55   1.385773 A    
O4    Cr4   2.058998 S    
C6    C25   1.469179 S    
O6    C2    1.305007 A    
C101  C121  1.382014 A    
C119  H59   1.109494 S    
C92   H42   1.111912 S    
C104  C120  1.492983 S    
C49   C53   1.385772 A    
C16   O36   1.256520 A    
N4    O60   1.299877 A    
O38   C18   1.275259 A    
O46   C22   1.280096 A    
C87   C88   1.404649 A    
O27   Cr3   2.071163 S    
C6    O18   1.267161 A    
C28   C35   1.392984 A    
C35   C36   1.371350 A    
C93   C97   1.402170 A    
O45   Cr9   1.965181 S    
C87   H39   1.078891 S    
C85   H37   1.078369 S    
C55   C71   1.491070 S    
C82   C90   1.505897 S    
O32   Cr4   1.940672 S    
C53   C73   1.399449 A    
O36   Cr8   2.078426 S    
O31   C15   1.303436 A    
C67   H21   1.110953 S    
Cr9   O49   1.972816 S    
C24   C124  1.441856 S    
C80   C84   1.389072 A    
O38   Cr6   1.946947 S    
