data_mof_unit_35801.cif
_audit_creation_date              2012-12-10T18:19:54-0500
_audit_creation_method            fapswitch 2.2
_symmetry_space_group_name_H-M    P1
_symmetry_Int_Tables_number       1
_space_group_crystal_system       triclinic
_cell_length_a                    14.949854
_cell_length_b                    14.118224
_cell_length_c                    14.135281
_cell_angle_alpha                 90.000107
_cell_angle_beta                  89.077347
_cell_angle_gamma                 90.0
_cell_volume                      2983.08173805

loop_
_atom_site_label
_atom_site_type_symbol
_atom_type_description
_atom_site_fract_x
_atom_site_fract_y
_atom_site_fract_z
_atom_type_partial_charge
C1    C     C_R   0.327283 0.499744 0.499477 0.972537
C2    C     C_R   0.672717 0.499743 0.500523 0.972537
C3    C     C_R   0.953084 0.508228 0.499937 -0.038078
C4    C     C_R   0.046916 0.508229 0.500064 -0.038074
C5    C     C_R   0.907866 0.509346 0.412645 0.033034
C6    C     C_R   0.092134 0.509343 0.587356 0.033035
C7    C     C_R   0.950344 0.514419 0.673114 0.468701
C8    C     C_R   0.049656 0.514429 0.326887 0.468713
C9    C     C_R   0.043015 0.514311 0.672604 -0.284373
C10   C     C_R   0.956985 0.514319 0.327397 -0.284385
C11   C     C_R   0.556090 0.798340 0.439347 0.036617
C12   C     C_R   0.443346 0.201888 0.560127 0.032995
C13   C     C_R   0.443910 0.798340 0.560653 0.036617
C14   C     C_R   0.556654 0.201887 0.439873 0.032995
C15   C     C_R   0.442408 0.899054 0.561757 -0.023640
C16   C     C_R   0.557863 0.101234 0.438464 -0.022810
C17   C     C_R   0.557592 0.899054 0.438243 -0.023640
C18   C     C_R   0.442137 0.101234 0.561536 -0.022809
C19   C     C_R   0.500000 0.949555 0.500000 0.082971
C20   C     C_R   0.500000 0.050743 0.500000 0.077363
C21   C     C_R   0.385052 0.950678 0.622837 -0.195503
C22   C     C_R   0.615143 0.049655 0.377347 -0.194424
C23   C     C_R   0.614948 0.950677 0.377163 -0.195503
C24   C     C_R   0.384857 0.049655 0.622653 -0.194424
C25   C     C_R   0.499840 0.499981 0.329224 0.921603
C26   C     C_R   0.500160 0.499981 0.670776 0.921604
C27   C     C_1   0.499612 0.499895 0.227789 -0.157267
C28   C     C_1   0.500388 0.499895 0.772211 -0.157266
C29   C     C_1   0.499647 0.499792 0.142523 0.002201
C30   C     C_1   0.500353 0.499792 0.857477 0.002202
C31   C     C_1   0.499878 0.499720 0.042640 0.012797
C32   C     C_1   0.500122 0.499720 0.957359 0.012798
C33   C     C_R   0.814410 0.506973 0.412725 -0.103958
C34   C     C_R   0.185591 0.506971 0.587276 -0.103956
C35   C     C_R   0.768147 0.498823 0.499147 -0.213154
C36   C     C_R   0.231853 0.498823 0.500853 -0.213149
C37   C     C_R   0.811914 0.489058 0.585118 0.399942
C38   C     C_R   0.188085 0.489063 0.414882 0.399922
C39   C     C_R   0.904669 0.503990 0.587016 -0.115977
C40   C     C_R   0.095331 0.503995 0.412984 -0.115981
H1    H     H_    0.075880 0.517794 0.740204 0.172418
H2    H     H_    0.924120 0.517805 0.259798 0.172429
H3    H     H_    0.339592 0.915040 0.671410 0.150372
H4    H     H_    0.660711 0.085336 0.328917 0.150919
H5    H     H_    0.660408 0.915040 0.328590 0.150372
H6    H     H_    0.339289 0.085337 0.671083 0.150919
N1    N     N_R   0.500000 0.750030 0.500000 -0.138973
N2    N     N_R   0.500000 0.249970 0.500000 -0.144371
O1    O     O_R   0.367850 0.580280 0.500020 -0.612698
O2    O     O_R   0.632150 0.419720 0.499980 -0.633059
O3    O     O_R   0.632150 0.580280 0.499980 -0.612697
O4    O     O_R   0.367850 0.419720 0.500020 -0.633059
O5    O     O_R   0.500000 0.580290 0.373720 -0.599157
O6    O     O_R   0.500000 0.419710 0.626280 -0.615342
O7    O     O_R   0.500000 0.580290 0.626280 -0.599158
O8    O     O_R   0.500000 0.419710 0.373720 -0.615342
Zn1   Zn    Zn3+2 0.500000 0.607200 0.500000 0.973852
Zn2   Zn    Zn3+2 0.500000 0.392800 0.500000 0.938882
C41   C     C_1   0.765516 0.508177 0.324635 0.191441
N3    N     N_1   0.726892 0.508749 0.254333 -0.198318
C42   C     C_1   0.234485 0.508175 0.675366 0.191441
N4    N     N_1   0.273108 0.508746 0.745667 -0.198320
O9    O     O_3   0.761738 0.469450 0.666483 -0.644499
C43   C     C_3   0.779419 0.376058 0.698887 0.138767
H7    H     H_    0.766359 0.375195 0.776480 0.185008
H8    H     H_    0.850395 0.353733 0.688319 0.143253
C44   C     C_3   0.717750 0.303470 0.652622 -0.383741
H9    H     H_    0.647109 0.326098 0.662108 0.262860
H10   H     H_    0.734184 0.298612 0.575878 0.233769
C45   C     C_3   0.728499 0.205310 0.696062 -0.959838
H11   H     H_    0.798512 0.180217 0.686761 0.267159
H12   H     H_    0.683253 0.154680 0.660357 0.274841
H13   H     H_    0.710794 0.207009 0.772664 0.269050
O10   O     O_3   0.238262 0.469458 0.333515 -0.644504
C46   C     C_3   0.220580 0.376067 0.301108 0.138764
H14   H     H_    0.233641 0.375206 0.223514 0.185006
H15   H     H_    0.149604 0.353742 0.311674 0.143256
C47   C     C_3   0.282248 0.303477 0.347371 -0.383738
H16   H     H_    0.352890 0.326105 0.337886 0.262859
H17   H     H_    0.265814 0.298615 0.424114 0.233768
C48   C     C_3   0.271500 0.205318 0.303926 -0.959835
H18   H     H_    0.201486 0.180226 0.313224 0.267158
H19   H     H_    0.316745 0.154686 0.339630 0.274840
H20   H     H_    0.289207 0.207020 0.227324 0.269050
O11   O     O_3   0.905680 0.520424 0.759434 -0.638734
C49   C     C_3   0.879459 0.615289 0.776875 0.149578
H21   H     H_    0.815071 0.613149 0.817188 0.182235
H22   H     H_    0.866469 0.656737 0.711158 0.122568
C50   C     C_3   0.949193 0.665735 0.837155 -0.392817
H23   H     H_    0.962651 0.622837 0.901329 0.239143
H24   H     H_    0.012657 0.673385 0.795937 0.220572
C51   C     C_3   0.917102 0.763897 0.867449 -0.941537
H25   H     H_    0.904047 0.808407 0.804353 0.265683
H26   H     H_    0.969389 0.798748 0.910168 0.268710
H27   H     H_    0.854929 0.758261 0.911186 0.266696
O12   O     O_3   0.094319 0.520437 0.240567 -0.638739
C52   C     C_3   0.120555 0.615299 0.223138 0.149599
H28   H     H_    0.184915 0.613151 0.182773 0.182227
H29   H     H_    0.133606 0.656716 0.288859 0.122600
C53   C     C_3   0.050793 0.665794 0.162932 -0.392877
H30   H     H_    0.037264 0.622918 0.098761 0.239147
H31   H     H_    0.987365 0.673468 0.204209 0.220568
C54   C     C_3   0.082905 0.763948 0.132632 -0.941506
H32   H     H_    0.096040 0.808434 0.195727 0.265681
H33   H     H_    0.030595 0.798839 0.089976 0.268698
H34   H     H_    0.145037 0.758289 0.088831 0.266692
C55   C     C_1   0.613644 0.745642 0.375758 0.233995
N5    N     N_1   0.660138 0.704503 0.324073 -0.211950
C56   C     C_1   0.384789 0.255001 0.622468 0.227199
N6    N     N_1   0.337531 0.296825 0.672874 -0.210647
C57   C     C_1   0.386356 0.745642 0.624241 0.233995
N7    N     N_1   0.339862 0.704503 0.675926 -0.211950
C58   C     C_1   0.615211 0.255001 0.377532 0.227198
N8    N     N_1   0.662469 0.296824 0.327126 -0.210647

loop_
_geom_bond_atom_site_label_1
_geom_bond_atom_site_label_2
_ccdc_geom_bond_type
C2    C35   S    
C38   C40   A    
C23   H5    S    
C10   H2    S    
C11   N1    A    
C19   C20   A    
C8    O12   S    
C25   O8    A    
C12   N2    A    
C26   O7    A    
C52   C53   S    
C6    C9    A    
C52   H28   S    
O11   C49   S    
C15   C19   A    
C17   C23   A    
C18   C24   A    
C35   C37   A    
C25   O5    A    
C1    O4    A    
C38   O10   S    
C33   C35   A    
C47   H17   S    
C27   C29   T    
O1    Zn1   S    
C53   H30   S    
C2    O2    A    
C52   H29   S    
C21   H3    S    
C22   H4    S    
C4    C40   A    
C5    C33   A    
C55   N5    T    
C45   H11   S    
O3    Zn1   S    
C50   H24   S    
C34   C36   A    
C3    C39   A    
C41   N3    T    
C33   C41   S    
C26   O6    A    
C53   H31   S    
C12   C56   S    
C37   O9    S    
C48   H18   S    
O10   C46   S    
C49   H22   S    
C44   H9    S    
O2    Zn2   S    
C43   C44   S    
C4    C6    A    
C13   N1    A    
O5    Zn1   S    
C49   H21   S    
C14   N2    A    
C53   C54   S    
C6    C34   A    
C44   H10   S    
C43   H8    S    
C46   H14   S    
N1    Zn1   S    
C31   C32   T    
C16   C20   A    
O12   C52   S    
C45   H13   S    
C51   H26   S    
C54   H33   S    
C50   C51   S    
C46   H15   S    
O4    Zn2   S    
C8    C10   A    
O7    Zn1   S    
C11   C55   S    
C14   C16   A    
C51   H27   S    
C3    C4    A    
C48   H20   S    
C58   N8    T    
O6    Zn2   S    
C7    C9    A    
C11   C17   A    
C16   C22   A    
C57   N7    T    
C47   H16   S    
C26   C28   S    
C3    C5    A    
C49   C50   S    
C48   H19   S    
N2    Zn2   S    
C25   C27   S    
C14   C58   S    
C9    H1    S    
C44   C45   S    
C24   H6    S    
C43   H7    S    
C13   C15   A    
C5    C10   A    
C37   C39   A    
C56   N6    T    
C36   C38   A    
C30   C32   S    
C47   C48   S    
C7    O11   S    
C13   C57   S    
C28   C30   T    
C51   H25   S    
C17   C19   A    
O8    Zn2   S    
C54   H34   S    
C18   C20   A    
C34   C42   S    
C42   N4    T    
C46   C47   S    
C2    O3    A    
O9    C43   S    
C15   C21   A    
C29   C31   S    
C21   C24   A    
C12   C18   A    
C54   H32   S    
C7    C39   A    
C22   C23   A    
C45   H12   S    
C8    C40   A    
C50   H23   S    
C1    O1    A    
C1    C36   S    
