data_mof_unit_36554.cif
_audit_creation_date              2012-12-11T15:44:56-0500
_audit_creation_method            fapswitch 2.2
_symmetry_space_group_name_H-M    P1
_symmetry_Int_Tables_number       1
_space_group_crystal_system       triclinic
_cell_length_a                    6.945959
_cell_length_b                    16.844666
_cell_length_c                    16.971824
_cell_angle_alpha                 100.083316
_cell_angle_beta                  90.385731
_cell_angle_gamma                 89.947921
_cell_volume                      1955.02768336

loop_
_atom_site_label
_atom_site_type_symbol
_atom_type_description
_atom_site_fract_x
_atom_site_fract_y
_atom_site_fract_z
_atom_type_partial_charge
O1    O     O_R   0.494370 0.415690 0.413450 -0.537970
O2    O     O_R   0.819420 0.429360 0.578420 -0.542768
O3    O     O_R   0.994280 0.584310 0.586550 -0.544475
C1    C     C_R   0.653430 0.417504 0.608313 0.696026
O4    O     O_R   0.823790 0.406230 0.413570 -0.540733
O5    O     O_R   0.998670 0.561000 0.420530 -0.532512
C2    C     C_R   0.654655 0.383135 0.384859 0.697308
O6    O     O_R   0.489970 0.439000 0.579470 -0.533854
O7    O     O_3   0.662300 0.550810 0.502470 -0.377269
V1    V     V_3+5 0.935380 0.490570 0.499540 1.390003
O8    O     O_R   0.328650 0.570640 0.421580 -0.539521
C3    C     C_R   0.159286 0.586935 0.395577 0.692506
O9    O     O_R   0.324290 0.593770 0.586430 -0.547011
C4    C     C_R   0.154223 0.619032 0.612912 0.700627
V2    V     V_3+5 0.435930 0.509430 0.500460 1.380781
O10   O     O_3   0.159140 0.449190 0.497530 -0.365381
C5    C     C_R   0.306097 0.723944 0.717890 -0.269055
H1    H     H_    0.443382 0.696152 0.702111 0.133571
C6    C     C_R   0.299227 0.796024 0.773561 0.455752
C7    C     C_R   0.120594 0.822933 0.808140 -0.178149
C8    C     C_R   0.953693 0.793739 0.765877 -0.255956
H2    H     H_    0.817527 0.821435 0.784238 0.195379
C9    C     C_R   0.964291 0.735323 0.695262 0.083336
C10   C     C_R   0.139641 0.692267 0.677009 -0.129186
C11   C     C_R   0.148857 0.637493 0.332557 -0.040225
C12   C     C_R   0.115104 0.865245 0.170098 -0.070386
C13   C     C_R   0.137019 0.854296 0.311619 -0.206489
C14   C     C_R   0.122829 0.902501 0.251766 0.074289
C15   C     C_R   0.116684 0.780502 0.150535 -0.255998
C16   C     C_R   0.127413 0.732666 0.210810 0.153456
C17   C     C_R   0.139547 0.769906 0.292015 0.133675
C18   C     C_R   0.151959 0.722109 0.352401 -0.226626
C19   C     C_R   0.135156 0.601021 0.251808 -0.170530
C20   C     C_R   0.125596 0.648072 0.191412 -0.164089
H3    H     H_    0.162888 0.750585 0.414685 0.094334
H4    H     H_    0.132669 0.535907 0.235497 0.104831
H5    H     H_    0.143273 0.882999 0.373993 0.118102
H6    H     H_    0.115890 0.618269 0.129532 0.114530
H7    H     H_    0.109064 0.751862 0.088176 0.109037
C21   C     C_R   0.658774 0.370466 0.675070 -0.097399
C22   C     C_R   0.605842 0.140810 0.834199 -0.068101
C23   C     C_R   0.418620 0.190783 0.730372 -0.188079
C24   C     C_R   0.442639 0.137243 0.783817 -0.176509
C25   C     C_R   0.743442 0.201314 0.831241 -0.230192
C26   C     C_R   0.715023 0.258164 0.779926 0.126641
C27   C     C_R   0.553070 0.252031 0.728267 0.157030
C28   C     C_R   0.528029 0.306945 0.675263 -0.269668
C29   C     C_R   0.809936 0.381845 0.733529 0.086762
C30   C     C_R   0.841595 0.322972 0.781871 -0.204650
H8    H     H_    0.409980 0.298791 0.632464 0.129193
H9    H     H_    0.292238 0.185318 0.691998 0.122651
H10   H     H_    0.963102 0.328947 0.822883 0.118881
H11   H     H_    0.331313 0.092790 0.785957 0.123468
H12   H     H_    0.866249 0.206742 0.871586 0.118652
C31   C     C_R   0.808541 0.269898 0.288870 -0.161719
H13   H     H_    0.946368 0.283634 0.318296 0.119067
C32   C     C_R   0.797755 0.206067 0.223785 -0.158517
H14   H     H_    0.927571 0.172489 0.205229 0.114612
C33   C     C_R   0.621855 0.185571 0.183624 -0.037340
C34   C     C_R   0.457400 0.231063 0.210086 -0.157588
H15   H     H_    0.319677 0.217366 0.180564 0.119117
C35   C     C_R   0.467917 0.294637 0.275419 -0.160653
H16   H     H_    0.337919 0.328047 0.294071 0.120053
C36   C     C_R   0.643584 0.314929 0.315821 -0.048444
O11   O     O_R   0.774880 0.061150 0.920630 -0.538606
O12   O     O_R   0.440980 0.093710 0.086500 -0.543916
O13   O     O_R   0.266190 0.938890 0.079390 -0.534473
C37   C     C_R   0.610219 0.116931 0.115084 0.673601
O14   O     O_R   0.445420 0.070740 0.921670 -0.545614
O15   O     O_R   0.270660 0.915760 0.913380 -0.519590
C38   C     C_R   0.612123 0.087771 0.895815 0.679568
O16   O     O_R   0.770400 0.084270 0.086640 -0.544352
O17   O     O_3   0.602590 0.949210 0.997500 -0.353664
V3    V     V_3+5 0.329470 0.009420 0.000470 1.420148
O18   O     O_R   0.940650 0.906250 0.913470 -0.537596
C39   C     C_R   0.109202 0.886068 0.882206 0.701766
O19   O     O_R   0.936210 0.929220 0.078300 -0.538801
C40   C     C_R   0.105418 0.913577 0.104896 0.700209
V4    V     V_3+5 0.828930 0.990510 0.999490 1.424236
O20   O     O_3   0.105680 0.050790 0.002500 -0.376774
C41   C     C_3   0.937896 0.456403 0.747464 -0.347713
C42   C     C_3   0.923113 0.502397 0.833856 -0.335498
C43   C     C_3   0.032658 0.582150 0.844662 -0.759759
H17   H     H_    0.185707 0.571684 0.827226 0.228603
H18   H     H_    0.965612 0.622850 0.807535 0.237707
H19   H     H_    0.027188 0.612056 0.908340 0.215811
H20   H     H_    0.769403 0.515141 0.849116 0.201395
H21   H     H_    0.983840 0.465647 0.876357 0.196104
H22   H     H_    0.089625 0.437831 0.734309 0.173579
H23   H     H_    0.897339 0.499521 0.707941 0.184479
O21   O     O_3   0.466216 0.841358 0.788034 -0.583810
C44   C     C_3   0.448150 0.914052 0.756171 0.114948
H24   H     H_    0.568107 0.954284 0.781017 0.120510
H25   H     H_    0.313422 0.947251 0.775283 0.103422
C45   C     C_3   0.463314 0.900744 0.664379 -0.391662
H26   H     H_    0.615945 0.890063 0.647225 0.201983
H27   H     H_    0.374529 0.848380 0.636764 0.202240
C46   C     C_3   0.396293 0.973924 0.629958 -0.839236
H28   H     H_    0.247944 0.991599 0.649916 0.228230
H29   H     H_    0.396342 0.959020 0.563566 0.231115
H30   H     H_    0.496545 0.025058 0.648502 0.246074
C47   C     C_3   0.796853 0.728935 0.636656 -0.338122
C48   C     C_3   0.855807 0.758379 0.559226 -0.303889
C49   C     C_3   0.689989 0.754769 0.499117 -0.741379
H31   H     H_    0.566852 0.791907 0.525073 0.210741
H32   H     H_    0.640312 0.691979 0.479760 0.255717
H33   H     H_    0.739708 0.778140 0.445463 0.212746
H34   H     H_    0.907630 0.821702 0.574308 0.183672
H35   H     H_    0.975616 0.721313 0.529718 0.183825
H36   H     H_    0.735198 0.667507 0.624620 0.200076
H37   H     H_    0.678518 0.767382 0.663646 0.175719
C50   C     C_3   0.109804 0.993008 0.277832 -0.369542
C51   C     C_3   0.307125 0.029326 0.304257 -0.296129
C52   C     C_3   0.288078 0.117324 0.344543 -0.763029
H38   H     H_    0.210969 0.152463 0.304609 0.226098
H39   H     H_    0.207049 0.121649 0.401337 0.223208
H40   H     H_    0.433404 0.143765 0.358329 0.228281
H41   H     H_    0.376410 0.995279 0.347320 0.193889
H42   H     H_    0.401700 0.025528 0.251120 0.194027
H43   H     H_    0.051764 0.022919 0.229369 0.156006
H44   H     H_    0.006170 0.006206 0.328135 0.176795

loop_
_geom_bond_atom_site_label_1
_geom_bond_atom_site_label_2
_ccdc_geom_bond_type
C21   C28   A    
O12   C37   A    
C31   H13   S    
O11   V4    S    
O17   V3    S    
C45   H26   S    
C1    O6    A    
C49   H32   S    
C52   H38   S    
C45   C46   S    
O19   C40   A    
C14   C50   S    
C12   C40   S    
O16   V4    S    
O5    C3    A    
C16   C17   A    
C32   C33   A    
C9    C47   S    
C42   H20   S    
O12   V3    S    
C19   H4    S    
C29   C41   S    
C7    C39   S    
C34   C35   A    
C23   C27   A    
C4    C10   S    
O14   C38   A    
C50   C51   S    
C35   C36   A    
C51   H42   S    
O8    V2    S    
C24   H11   S    
C1    C21   S    
O15   V3    S    
C9    C10   A    
C48   H34   S    
O1    V2    S    
O7    V1    S    
C23   H9    S    
C22   C38   S    
C41   H22   S    
C11   C18   A    
C33   C34   A    
V3    O20   S    
O9    C4    A    
C22   C24   A    
C47   H37   S    
O13   C40   A    
C49   H31   S    
C5    H1    S    
C28   H8    S    
O19   V4    S    
C5    C10   A    
C16   C20   A    
C13   C17   A    
C18   H3    S    
O21   C44   S    
C50   H43   S    
O11   C38   A    
C44   C45   S    
C41   C42   S    
V4    O20   S    
C34   H15   S    
C20   H6    S    
O2    C1    A    
O18   C39   A    
C31   C32   A    
C15   C16   A    
C25   H12   S    
C33   C37   S    
C43   H17   S    
C26   C30   A    
C37   O16   A    
C30   H10   S    
C31   C36   A    
C15   H7    S    
C35   H16   S    
C44   H25   S    
C19   C20   A    
O17   V4    S    
O14   V3    S    
O13   V3    S    
O3    C4    A    
C41   H23   S    
C29   C30   A    
C43   H18   S    
C46   H28   S    
O6    V2    S    
C46   H29   S    
O9    V2    S    
O15   C39   A    
C22   C25   A    
C47   H36   S    
C23   C24   A    
O2    V1    S    
C48   C49   S    
C25   C26   A    
O4    C2    A    
C51   C52   S    
C21   C29   A    
C27   C28   A    
O1    C2    A    
C17   C18   A    
O5    V1    S    
C52   H39   S    
O8    C3    A    
C45   H27   S    
C46   H30   S    
C12   C14   A    
C3    C11   S    
C48   H35   S    
C6    C7    A    
C8    C9    A    
O7    V2    S    
O4    V1    S    
O3    V1    S    
V1    O10   S    
C32   H14   S    
C13   H5    S    
C42   H21   S    
C44   H24   S    
C5    C6    A    
C47   C48   S    
C2    C36   S    
C52   H40   S    
C6    O21   S    
C51   H41   S    
C26   C27   A    
C50   H44   S    
C43   H19   S    
C7    C8    A    
C12   C15   A    
C42   C43   S    
C13   C14   A    
C8    H2    S    
O18   V4    S    
C49   H33   S    
V2    O10   S    
C11   C19   A    
