data_mof_unit_40978.cif
_audit_creation_date              2012-12-10T18:15:10-0500
_audit_creation_method            fapswitch 2.2
_symmetry_space_group_name_H-M    P1
_symmetry_Int_Tables_number       1
_space_group_crystal_system       triclinic
_cell_length_a                    12.5945
_cell_length_b                    13.112407
_cell_length_c                    23.419504
_cell_angle_alpha                 90.482324
_cell_angle_beta                  102.965635
_cell_angle_gamma                 82.186643
_cell_volume                      3733.0227874

loop_
_atom_site_label
_atom_site_type_symbol
_atom_type_description
_atom_site_fract_x
_atom_site_fract_y
_atom_site_fract_z
_atom_type_partial_charge
C1    C     C_R   0.438507 0.691255 0.490732 0.908042
C2    C     C_R   0.428510 0.668217 0.023767 -0.152964
C3    C     C_R   0.430934 0.671016 0.964784 -0.159507
C4    C     C_R   0.469911 0.582081 0.937991 -0.009575
C5    C     C_R   0.506885 0.489386 0.970951 -0.018320
C6    C     C_R   0.545935 0.400018 0.944157 -0.038821
C7    C     C_R   0.582593 0.308192 0.977020 -0.215232
C8    C     C_R   0.581003 0.303871 0.036453 0.117373
C9    C     C_R   0.472637 0.583179 0.878719 0.507456
C10   C     C_R   0.546731 0.404790 0.884654 0.537569
C11   C     C_R   0.606550 0.502065 0.773987 0.152444
C12   C     C_R   0.501095 0.500221 0.610577 0.882422
C13   C     C_R   0.603674 0.502905 0.714120 -0.277426
C14   C     C_R   0.503906 0.499964 0.673213 -0.053361
C15   C     C_R   0.406864 0.496051 0.692586 -0.215771
C16   C     C_R   0.409647 0.494872 0.752112 -0.157403
C17   C     C_R   0.509085 0.497637 0.792696 0.338566
C18   C     C_R   0.600359 0.490274 0.249725 0.585839
C19   C     C_R   0.597939 0.498182 0.309110 -0.355628
C20   C     C_R   0.499714 0.493465 0.327269 -0.093557
C21   C     C_R   0.402939 0.482503 0.285798 -0.202829
C22   C     C_R   0.403949 0.478181 0.226727 -0.190351
C23   C     C_R   0.561291 0.308611 0.506065 0.857744
C24   C     C_R   0.501758 0.483157 0.208822 0.235321
C25   C     C_R   0.697645 0.065742 0.454967 -0.177046
C26   C     C_R   0.597305 0.199833 0.500883 -0.049032
C27   C     C_R   0.300981 0.838056 0.500581 -0.194642
C28   C     C_R   0.273927 0.942654 0.507706 -0.147701
C29   C     C_R   0.347457 0.009682 0.501807 -0.191848
C30   C     C_R   0.446966 0.973280 0.484839 0.054651
C31   C     C_R   0.464221 0.870193 0.467415 0.095100
C32   C     C_R   0.529238 0.036168 0.484063 0.076562
C33   C     C_R   0.618064 0.001673 0.457562 0.151321
C34   C     C_R   0.499411 0.498762 0.389491 0.896115
C35   C     C_R   0.623627 0.905754 0.431796 -0.281118
C36   C     C_R   0.546727 0.840330 0.435489 0.090312
C37   C     C_R   0.525694 0.132763 0.509251 -0.238722
C38   C     C_R   0.686167 0.165622 0.475670 -0.200468
C39   C     C_R   0.398191 0.800886 0.482954 -0.099784
C40   C     C_R   0.088802 0.343288 0.419662 0.433214
C41   C     C_R   0.800324 0.629699 0.569702 0.682324
C42   C     C_R   0.905036 0.661070 0.581053 -0.355426
C43   C     C_R   0.985105 0.612036 0.554281 -0.279441
C44   C     C_R   0.962045 0.531391 0.515146 0.061098
C45   C     C_R   0.538439 0.394380 0.123609 0.564207
C46   C     C_R   0.854222 0.504487 0.503175 0.140047
C47   C     C_R   0.041311 0.477242 0.487210 -0.049228
C48   C     C_R   0.010978 0.398304 0.447178 0.065969
C49   C     C_R   0.903885 0.374306 0.435923 -0.267661
C50   C     C_R   0.827387 0.426172 0.463762 -0.217676
C51   C     C_R   0.150478 0.497713 0.497770 -0.082897
C52   C     C_R   0.194729 0.370200 0.431082 -0.112350
C53   C     C_R   0.463882 0.572859 0.116283 0.537526
C54   C     C_R   0.465113 0.576457 0.057001 -0.012621
C55   C     C_R   0.504610 0.486254 0.030697 -0.060060
C56   C     C_R   0.541776 0.393405 0.063939 -0.028956
H1    H     H_    0.397997 0.738215 0.043223 0.192085
H2    H     H_    0.672213 0.508842 0.340898 0.174314
H3    H     H_    0.326323 0.478633 0.298847 0.178066
H4    H     H_    0.328623 0.471759 0.194630 0.162774
H5    H     H_    0.742390 0.217362 0.468822 0.146057
H6    H     H_    0.687268 0.881532 0.408172 0.151493
H7    H     H_    0.765286 0.040462 0.434326 0.139436
H8    H     H_    0.464138 0.160296 0.533274 0.148624
H9    H     H_    0.248087 0.785876 0.511157 0.152839
H10   H     H_    0.322846 0.089809 0.509237 0.128075
H11   H     H_    0.198399 0.971323 0.520816 0.140970
H12   H     H_    0.402129 0.742974 0.940302 0.191469
H13   H     H_    0.255787 0.331735 0.409357 0.155511
H14   H     H_    0.878687 0.314317 0.405825 0.191589
H15   H     H_    0.181683 0.554605 0.527963 0.139535
H16   H     H_    0.063632 0.639895 0.564803 0.160888
H17   H     H_    0.924779 0.724032 0.609865 0.166753
H18   H     H_    0.747699 0.402664 0.453733 0.209874
H19   H     H_    0.612819 0.238900 0.956788 0.190869
H20   H     H_    0.679452 0.505023 0.699905 0.162569
H21   H     H_    0.328854 0.494015 0.661863 0.165322
H22   H     H_    0.334632 0.491511 0.766902 0.143657
N1    N     N_R   0.500468 0.483120 0.147916 -0.344712
N2    N     N_R   0.510373 0.495342 0.853578 -0.348561
N3    N     N_R   0.222200 0.444670 0.469780 -0.126463
N4    N     N_R   0.776960 0.554790 0.529910 -0.175854
O1    O     O_R   0.366740 0.627150 0.485570 -0.625997
O2    O     O_2   0.427332 0.658440 0.142510 -0.552465
O3    O     O_2   0.438009 0.671015 0.846311 -0.560138
O4    O     O_2   0.582743 0.319782 0.857803 -0.557937
O5    O     O_R   0.544830 0.662520 0.504870 -0.546616
O6    O     O_R   0.410930 0.482340 0.574190 -0.625894
O7    O     O_R   0.589010 0.517710 0.593490 -0.577282
O8    O     O_R   0.455170 0.337480 0.495130 -0.613653
O9    O     O_R   0.633260 0.372850 0.514430 -0.639265
O10   O     O_R   0.410990 0.482290 0.406510 -0.615052
O11   O     O_R   0.589070 0.517660 0.425810 -0.652184
O12   O     O_2   0.572651 0.308214 0.157456 -0.534624
Zn1   Zn    Zn3+2 0.381090 0.476380 0.487110 0.942515
Zn2   Zn    Zn3+2 0.618910 0.523620 0.512890 0.970708
N5    N     N_3   0.546803 0.748204 0.402115 -0.446633
H23   H     H_    0.531306 0.769417 0.357769 0.194055
H24   H     H_    0.625915 0.706810 0.413214 0.216227
O13   O     O_3   0.058964 0.268874 0.379125 -0.617676
C57   C     C_3   0.111783 0.171409 0.402394 -0.322196
H25   H     H_    0.077540 0.111459 0.372906 0.206497
H26   H     H_    0.096590 0.156520 0.446460 0.153052
H27   H     H_    0.201570 0.163024 0.404374 0.169256
O14   O     O_3   0.716265 0.678512 0.593834 -0.569556
C58   C     C_3   0.752687 0.694262 0.654399 -0.332670
H28   H     H_    0.791540 0.765785 0.661749 0.170097
H29   H     H_    0.809533 0.627077 0.677390 0.140146
H30   H     H_    0.679964 0.704973 0.674281 0.204901
N6    N     N_3   0.619553 0.208093 0.068217 -0.372633
H31   H     H_    0.701031 0.185213 0.065420 0.192096
H32   H     H_    0.572388 0.152798 0.047644 0.191178
N7    N     N_3   0.707827 0.505868 0.815943 -0.443333
H33   H     H_    0.738824 0.572741 0.807336 0.180614
H34   H     H_    0.763783 0.442770 0.809351 0.200329
O15   O     O_3   0.694564 0.498419 0.229523 -0.611403
C59   C     C_3   0.784931 0.430065 0.260836 -0.238427
H35   H     H_    0.762128 0.353135 0.268969 0.172806
H36   H     H_    0.823422 0.464142 0.302684 0.164449
H37   H     H_    0.847960 0.417713 0.234222 0.205729

loop_
_geom_bond_atom_site_label_1
_geom_bond_atom_site_label_2
_ccdc_geom_bond_type
C1    O5    A    
C55   C56   A    
C43   H16   S    
C41   C42   A    
C19   C20   A    
C34   O11   A    
C8    C56   A    
N5    H23   S    
C2    H1    S    
C7    C8    A    
C15   H21   S    
C53   C54   A    
C57   H25   S    
C41   O14   S    
C53   O2    S    
C18   C24   A    
C22   C24   A    
C28   C29   A    
C53   N1    A    
C21   H3    S    
C59   H36   S    
C22   H4    S    
C30   C31   A    
N3    Zn1   S    
C58   H28   S    
C15   C16   A    
O15   C59   S    
C18   C19   A    
C25   H7    S    
C23   C26   S    
N6    H31   S    
C52   H13   S    
C57   H27   S    
C9    O3    S    
O9    Zn2   S    
C46   N4    A    
C10   O4    S    
C3    H12   S    
C45   C56   A    
C27   C39   A    
C16   C17   A    
C36   N5    S    
C51   N3    A    
C44   C47   A    
C38   H5    S    
C20   C34   S    
O6    Zn1   S    
C57   H26   S    
C21   C22   A    
C51   H15   S    
C45   O12   S    
N5    H24   S    
C44   C46   A    
N6    H32   S    
C19   H2    S    
N4    Zn2   S    
C12   O6    A    
C12   O7    A    
O8    Zn1   S    
C28   H11   S    
C2    C54   A    
C59   H37   S    
C18   O15   S    
C10   N2    A    
C26   C38   A    
C7    H19   S    
C40   C52   A    
C17   N2    S    
C9    N2    A    
C43   C44   A    
C40   O13   S    
C29   C30   A    
C27   H9    S    
C8    N6    S    
C25   C38   A    
C24   N1    S    
C47   C48   A    
C13   H20   S    
O1    Zn1   S    
O5    Zn2   S    
C23   O8    A    
C45   N1    A    
C32   C37   A    
C48   C49   A    
C12   C14   S    
O11   Zn2   S    
C49   H14   S    
C23   O9    A    
C42   C43   A    
C3    C4    A    
C37   H8    S    
N7    H33   S    
C40   C48   A    
C54   C55   A    
C11   C17   A    
C42   H17   S    
C31   C36   A    
C5    C55   A    
C4    C5    A    
C6    C10   A    
C47   C51   A    
C26   C37   A    
C6    C7    A    
C1    O1    A    
O14   C58   S    
C46   C50   A    
C32   C33   A    
O7    Zn2   S    
C50   H18   S    
C2    C3    A    
C59   H35   S    
C30   C32   A    
C11   C13   A    
C5    C6    A    
C58   H29   S    
C41   N4    A    
O13   C57   S    
C33   C35   A    
C31   C39   A    
C35   H6    S    
C16   H22   S    
O10   Zn1   S    
C52   N3    A    
C11   N7    S    
C34   O10   A    
C1    C39   S    
C29   H10   S    
C20   C21   A    
C49   C50   A    
C27   C28   A    
C14   C15   A    
C35   C36   A    
C4    C9    A    
C13   C14   A    
C25   C33   A    
N7    H34   S    
C58   H30   S    
