data_mof_unit_35588.cif
_audit_creation_date              2013-03-05T15:43:49-0500
_audit_creation_method            fapswitch 2.2
_symmetry_space_group_name_H-M    P1
_symmetry_Int_Tables_number       1
_space_group_crystal_system       triclinic
_cell_length_a                    10.025329
_cell_length_b                    10.658602
_cell_length_c                    15.566452
_cell_angle_alpha                 89.82912
_cell_angle_beta                  67.070472
_cell_angle_gamma                 89.352522
_cell_volume                      1531.83752742

loop_
_atom_site_label
_atom_site_type_symbol
_atom_site_description
_atom_site_fract_x
_atom_site_fract_y
_atom_site_fract_z
_atom_type_partial_charge
O1    O     O_R   0.386950 0.680940 0.500010 -0.617961
O2    O     O_R   0.613110 0.680900 0.499990 -0.550307
C1    C     C_R   0.493720 0.736881 0.509247 0.958159
O3    O     O_R   0.322330 0.500030 0.632270 -0.614026
O4    O     O_R   0.548480 0.499990 0.632240 -0.592464
C2    C     C_R   0.408640 0.504603 0.676108 0.870343
Zn1   Zn    Zn3+2 0.349000 0.500030 0.500020 0.967006
Zn2   Zn    Zn3+2 0.651000 0.499970 0.499980 1.034425
O5    O     O_R   0.386890 0.319100 0.500010 -0.604486
O6    O     O_R   0.613050 0.319060 0.499990 -0.610852
O7    O     O_R   0.451520 0.500010 0.367760 -0.621465
O8    O     O_R   0.677670 0.499970 0.367730 -0.556005
C3    C     C_R   0.501037 0.262240 0.499721 0.947945
C4    C     C_R   0.591632 0.501854 0.323547 0.891567
C5    C     C_R   0.351256 0.525701 0.777115 -0.156787
C6    C     C_R   0.650933 0.508373 0.221054 -0.184326
C7    C     C_R   0.182752 0.615470 0.922297 -0.209696
C8    C     C_R   0.218332 0.588475 0.828216 0.430975
C9    C     C_R   0.444435 0.494558 0.821124 -0.263786
C10   C     C_R   0.419581 0.538169 0.910416 0.105656
C11   C     C_R   0.283354 0.593706 0.963017 0.062989
C12   C     C_R   0.527126 0.528204 0.948195 0.081279
C13   C     C_R   0.489208 0.557385 0.043552 0.064973
C14   C     C_R   0.351279 0.612003 0.094727 -0.175414
C15   C     C_R   0.251085 0.630840 0.054526 -0.123328
C16   C     C_R   0.672813 0.495398 0.892709 -0.191143
C17   C     C_R   0.775208 0.481560 0.931667 -0.156872
C18   C     C_R   0.735130 0.496222 0.027252 0.100246
C19   C     C_R   0.591548 0.532608 0.084018 0.099664
C20   C     C_R   0.836954 0.473646 0.066846 -0.270648
C21   C     C_R   0.797287 0.482176 0.163334 0.327474
C22   C     C_R   0.552020 0.535734 0.180346 -0.290396
H1    H     H_    0.148098 0.675527 0.095156 0.182909
H2    H     H_    0.440978 0.553008 0.225768 0.183893
H3    H     H_    0.885584 0.456298 0.886971 0.184431
H4    H     H_    0.079997 0.661373 0.961863 0.170513
H5    H     H_    0.538784 0.437785 0.783164 0.166212
H6    H     H_    0.319632 0.646923 0.164880 0.158018
H7    H     H_    0.712435 0.484163 0.818048 0.160714
H8    H     H_    0.947611 0.448548 0.022728 0.177085
C23   C     C_2   0.561451 0.070065 0.554410 -0.203183
C24   C     C_2   0.503370 0.129314 0.501160 -0.368388
H9    H     H_    0.609302 0.122928 0.594705 0.192698
H10   H     H_    0.457364 0.082347 0.457635 0.153263
C25   C     C_2   0.567244 0.933635 0.557733 0.363791
C26   C     C_2   0.475791 0.867663 0.531541 -0.467284
H11   H     H_    0.382263 0.911477 0.524716 0.157366
C27   C     C_2   0.110981 0.435019 0.441524 -0.100752
N1    N     N_2   0.148330 0.498670 0.499030 -0.188816
H12   H     H_    0.193484 0.380041 0.388012 0.174484
H13   H     H_    0.069624 0.545578 0.552798 0.176473
C28   C     C_2   0.958944 0.429711 0.444975 -0.057654
N2    N     N_2   0.852680 0.498640 0.499000 -0.184369
H14   H     H_    0.938554 0.365139 0.397844 0.192959
H15   H     H_    0.872622 0.564630 0.540217 0.196107
N3    N     N_R   0.668697 0.875099 0.590585 0.227120
O9    O     O_R   0.794013 0.926256 0.572451 -0.385609
O10   O     O_R   0.625859 0.786685 0.653003 -0.391434
N4    N     N_R   0.906061 0.462162 0.200520 0.197538
O11   O     O_R   0.938928 0.553199 0.243984 -0.405882
O12   O     O_R   0.994142 0.366486 0.172290 -0.404560
O13   O     O_3   0.123280 0.628583 0.789277 -0.761379
H16   H     H_    0.180570 0.661831 0.726395 0.350996

loop_
_geom_bond_atom_site_label_1
_geom_bond_atom_site_label_2
_geom_bond_distance
_ccdc_geom_bond_type
Zn2   N2    2.015904 S    
O4    Zn2   1.909524 S    
C14   H6    1.077738 S    
C13   C14   1.418394 A    
C14   C15   1.387573 A    
O13   H16   0.988983 S    
C7    H4    1.084411 S    
C6    C22   1.397120 A    
C23   C24   1.337770 D    
C1    C26   1.429854 S    
C3    C24   1.416983 S    
C9    C10   1.393391 A    
Zn2   O8    1.969944 S    
C28   H14   1.084793 S    
C18   C20   1.401311 A    
O2    C1    1.288170 A    
C20   H8    1.083815 S    
N4    O11   1.301040 A    
C26   H11   1.084425 S    
C25   C26   1.344939 D    
C10   C11   1.413973 A    
C6    C21   1.415306 A    
Zn1   O7    1.909522 S    
C23   H9    1.087984 S    
C16   C17   1.387240 A    
O4    C2    1.298791 A    
C24   H10   1.083103 S    
O3    Zn1   1.969947 S    
C13   C19   1.419730 A    
C27   H12   1.084661 S    
C27   N1    1.293179 D    
O8    C4    1.295842 A    
C7    C8    1.395698 A    
C19   C22   1.394131 A    
O1    C1    1.287180 A    
N2    H15   1.025744 S    
C20   C21   1.398902 A    
C5    C8    1.418917 A    
O7    C4    1.301693 A    
C4    C6    1.471373 S    
C16   H7    1.078380 S    
N4    O12   1.301068 A    
C15   H1    1.083861 S    
N3    O9    1.301378 A    
C10   C12   1.417974 A    
C7    C11   1.401703 A    
C27   C28   1.505805 S    
O5    C3    1.287331 A    
C28   N2    1.292223 D    
Zn1   N1    2.018053 S    
O3    C2    1.295378 A    
C12   C16   1.417324 A    
C21   N4    1.433740 S    
C17   C18   1.390645 A    
Zn1   O5    1.961289 S    
C23   C25   1.456220 S    
C12   C13   1.415984 A    
C18   C19   1.414773 A    
O1    Zn1   1.969625 S    
C11   C15   1.389907 A    
O2    Zn2   1.961288 S    
C9    H5    1.078761 S    
C17   H3    1.084217 S    
C2    C5    1.465634 S    
C5    C9    1.393703 A    
Zn2   O6    1.969625 S    
C8    O13   1.377512 S    
C25   N3    1.440258 S    
N3    O10   1.301946 A    
N1    H13   1.025717 S    
O6    C3    1.283311 A    
C22   H2    1.075147 S    
