data_mof_unit_13446.cif
_audit_creation_date              2012-12-11T15:42:56-0500
_audit_creation_method            fapswitch 2.2
_symmetry_space_group_name_H-M    P1
_symmetry_Int_Tables_number       1
_space_group_crystal_system       triclinic
_cell_length_a                    19.12984
_cell_length_b                    10.977326
_cell_length_c                    18.763007
_cell_angle_alpha                 90.095633
_cell_angle_beta                  89.977282
_cell_angle_gamma                 90.004002
_cell_volume                      3940.12227836

loop_
_atom_site_label
_atom_site_type_symbol
_atom_type_description
_atom_site_fract_x
_atom_site_fract_y
_atom_site_fract_z
_atom_type_partial_charge
C1    C     C_R   0.726859 0.369389 0.143051 0.550203
C2    C     C_R   0.269695 0.376731 0.853754 0.554492
C3    C     C_R   0.226842 0.869345 0.143036 0.546365
C4    C     C_R   0.769695 0.876729 0.853756 0.544096
C5    C     C_R   0.484159 0.403385 0.936462 0.124818
C6    C     C_R   0.452284 0.360155 0.080407 0.104118
C7    C     C_R   0.984028 0.903381 0.936529 0.123776
C8    C     C_R   0.952178 0.860027 0.080469 0.103328
C9    C     C_R   0.958048 0.996719 0.980086 -0.140556
C10   C     C_R   0.939877 0.974066 0.050303 -0.132733
C11   C     C_R   0.458217 0.496782 0.979998 -0.140627
C12   C     C_R   0.440032 0.474192 0.050216 -0.132851
C13   C     C_R   0.745272 0.922307 0.921637 0.020509
C14   C     C_R   0.235657 0.883409 0.067097 0.020807
C15   C     C_R   0.245279 0.422321 0.921636 0.020516
C16   C     C_R   0.735676 0.383460 0.067112 0.019310
C17   C     C_R   0.702596 0.848977 0.964782 0.005487
C18   C     C_R   0.300613 0.868230 0.035270 -0.008682
C19   C     C_R   0.202561 0.349045 0.964769 0.005272
C20   C     C_R   0.800641 0.368361 0.035293 -0.008898
C21   C     C_R   0.700013 0.866815 0.037570 0.001361
C22   C     C_R   0.307530 0.881275 0.962489 0.003181
C23   C     C_R   0.199979 0.366872 0.037559 0.002017
C24   C     C_R   0.807557 0.381384 0.962509 0.003649
C25   C     C_R   0.773765 0.043224 0.024808 -0.143087
C26   C     C_R   0.182821 0.897111 0.949622 -0.164844
C27   C     C_R   0.273832 0.543158 0.024821 -0.142471
C28   C     C_R   0.682845 0.397037 0.949627 -0.165942
C29   C     C_R   0.775762 0.026541 0.951330 -0.146595
C30   C     C_R   0.175800 0.886486 0.023203 -0.146193
C31   C     C_R   0.275822 0.526496 0.951343 -0.146323
C32   C     C_R   0.675823 0.386435 0.023209 -0.146298
C33   C     C_3   0.701002 0.713426 0.973279 -0.238896
C34   C     C_3   0.367469 0.932532 0.050597 -0.282038
C35   C     C_3   0.200897 0.213495 0.973251 -0.239571
C36   C     C_3   0.867463 0.432769 0.050617 -0.281779
C37   C     C_3   0.697624 0.733738 0.053091 -0.279589
C38   C     C_3   0.375182 0.947829 0.970723 -0.240010
C39   C     C_3   0.197517 0.233792 0.053064 -0.280231
C40   C     C_3   0.875177 0.448033 0.970740 -0.240096
C41   C     C_R   0.741452 0.956026 0.068951 0.018292
C42   C     C_R   0.249320 0.907119 0.919604 0.009799
C43   C     C_R   0.241463 0.456009 0.068953 0.021297
C44   C     C_R   0.749339 0.407131 0.919614 0.008954
C45   C     C_R   0.533573 0.154324 0.145409 0.591463
C46   C     C_R   0.469730 0.157568 0.852411 0.554208
C47   C     C_R   0.033568 0.654320 0.145415 0.588795
C48   C     C_R   0.969722 0.657571 0.852417 0.564571
C49   C     C_R   0.494366 0.159790 0.574843 -0.013007
C50   C     C_R   0.502163 0.164795 0.424796 -0.004576
C51   C     C_R   0.954310 0.657573 0.564302 -0.017653
C52   C     C_R   0.997376 0.660344 0.421553 -0.000163
C53   C     C_R   0.477329 0.058926 0.533826 0.072738
C54   C     C_R   0.476235 0.060793 0.460618 0.003188
C55   C     C_R   0.984492 0.555209 0.533539 0.045568
C56   C     C_R   0.009056 0.560678 0.465570 -0.000133
C57   C     C_R   0.515878 0.270788 0.465655 -0.153837
C58   C     C_R   0.513155 0.267143 0.540306 -0.152369
C59   C     C_R   0.955813 0.756085 0.447561 -0.132536
C60   C     C_R   0.936124 0.756059 0.519892 -0.154763
C61   C     C_3   0.504034 0.932188 0.539902 0.005996
C62   C     C_3   0.489488 0.923159 0.460946 -0.025349
C63   C     C_3   0.045460 0.481124 0.558723 0.022104
C64   C     C_3   0.074831 0.493513 0.483749 -0.022159
C65   C     C_R   0.749446 0.937341 0.583735 -0.004978
C66   C     C_R   0.244746 0.924818 0.422452 -0.003219
C67   C     C_R   0.281084 0.347803 0.563056 -0.005864
C68   C     C_R   0.723202 0.355633 0.433529 -0.003945
C69   C     C_R   0.791191 0.025709 0.550420 0.107323
C70   C     C_R   0.197351 0.000193 0.459911 0.070587
C71   C     C_R   0.334411 0.402847 0.523842 0.092433
C72   C     C_R   0.766384 0.452707 0.450606 0.035395
C73   C     C_R   0.784934 0.049540 0.479836 -0.014374
C74   C     C_R   0.200854 0.006377 0.532723 -0.014332
C75   C     C_R   0.327294 0.424140 0.451448 -0.011733
C76   C     C_R   0.779320 0.482205 0.521208 -0.037789
C77   C     C_R   0.700412 0.892339 0.468254 -0.160530
C78   C     C_R   0.302710 0.881184 0.533828 -0.143773
C79   C     C_R   0.216357 0.323460 0.451814 -0.130613
C80   C     C_R   0.704415 0.318588 0.560253 -0.122775
C81   C     C_R   0.699380 0.877999 0.541991 -0.194390
C82   C     C_R   0.300094 0.872521 0.459926 -0.166561
C83   C     C_R   0.224040 0.299970 0.525061 -0.137063
C84   C     C_R   0.692754 0.286575 0.488551 -0.178746
C85   C     C_3   0.856220 0.103264 0.556437 0.178119
C86   C     C_3   0.117983 0.012217 0.465546 0.191648
C87   C     C_3   0.372351 0.521329 0.534839 0.206787
C88   C     C_3   0.757268 0.584498 0.430816 0.208683
C89   C     C_R   0.739292 0.977309 0.144847 0.544383
C90   C     C_R   0.258738 0.967819 0.851737 0.538813
C91   C     C_R   0.239294 0.477304 0.144847 0.534430
C92   C     C_R   0.758740 0.467815 0.851737 0.535603
C93   C     C_3   0.848684 0.127500 0.475891 -0.186778
C94   C     C_3   0.124522 0.016449 0.545697 -0.163650
C95   C     C_3   0.368482 0.539697 0.454962 -0.180628
C96   C     C_3   0.770501 0.614711 0.508150 -0.178211
C97   C     C_R   0.740015 0.983620 0.436051 -0.001413
C98   C     C_R   0.250748 0.942703 0.571126 -0.003718
C99   C     C_R   0.263971 0.398554 0.416540 0.007077
C100  C     C_R   0.747875 0.418018 0.576418 0.047240
C101  C     C_R   0.710118 0.329614 0.359322 0.542142
C102  C     C_R   0.288705 0.332380 0.640224 0.571152
C103  C     C_R   0.228585 0.878634 0.352413 0.544520
C104  C     C_R   0.769516 0.883130 0.650256 0.533368
C105  C     C_R   0.532260 0.156664 0.353677 0.538661
C106  C     C_R   0.469304 0.156666 0.647571 0.542951
C107  C     C_R   0.030670 0.656901 0.352228 0.542204
C108  C     C_R   0.936199 0.652614 0.639234 0.556807
C109  C     C_R   0.730407 0.015245 0.361885 0.543499
C110  C     C_R   0.258693 0.973174 0.645224 0.544584
C111  C     C_R   0.243505 0.467096 0.352526 0.543580
C112  C     C_R   0.757150 0.466414 0.647768 0.537538
C113  C     C_R   0.504486 0.175861 0.921760 0.012933
C114  C     C_R   0.511521 0.159685 0.070652 0.013789
C115  C     C_R   0.004452 0.675878 0.921780 0.012296
C116  C     C_R   0.011505 0.659664 0.070666 0.014705
C117  C     C_R   0.491575 0.282681 0.964381 0.033712
C118  C     C_R   0.484867 0.267296 0.039407 0.015716
C119  C     C_R   0.991491 0.782667 0.964419 0.032437
C120  C     C_R   0.984794 0.767239 0.039443 0.015983
C121  C     C_R   0.535586 0.064393 0.026931 -0.167657
C122  C     C_R   0.531027 0.071547 0.953893 -0.178309
C123  C     C_R   0.035606 0.564416 0.026934 -0.167813
C124  C     C_R   0.031036 0.571585 0.953899 -0.177853
Cr1   Cr    Cr6+3 0.772010 0.169670 0.250090 0.996483
Cr2   Cr    Cr6+3 0.227990 0.169670 0.749910 1.005307
Cr3   Cr    Cr6+3 0.272010 0.669670 0.250090 0.994843
Cr4   Cr    Cr6+3 0.727990 0.669670 0.749910 0.991387
Cr5   Cr    Cr6+3 0.615000 0.323260 0.249260 0.993636
Cr6   Cr    Cr6+3 0.385000 0.323260 0.750740 0.996260
Cr7   Cr    Cr6+3 0.115000 0.823260 0.249260 0.992431
Cr8   Cr    Cr6+3 0.885000 0.823260 0.750740 0.998426
Cr9   Cr    Cr6+3 0.616710 0.010760 0.250840 0.993355
Cr10  Cr    Cr6+3 0.383290 0.010760 0.749160 1.005289
Cr11  Cr    Cr6+3 0.116710 0.510760 0.250840 1.006066
Cr12  Cr    Cr6+3 0.883290 0.510760 0.749160 1.013300
H1    H     H_    0.558193 0.982371 0.049182 0.151792
H2    H     H_    0.544397 0.991815 0.922565 0.135831
H3    H     H_    0.058250 0.482418 0.049175 0.152019
H4    H     H_    0.044437 0.491882 0.922560 0.138341
H5    H     H_    0.560278 0.930349 0.554760 0.137504
H6    H     H_    0.442597 0.869639 0.447694 0.151233
H7    H     H_    0.076485 0.525826 0.601647 0.178668
H8    H     H_    0.079953 0.407704 0.453226 0.168422
H9    H     H_    0.671521 0.830037 0.436057 0.212403
H10   H     H_    0.342707 0.835427 0.562454 0.212596
H11   H     H_    0.170069 0.295113 0.424307 0.162058
H12   H     H_    0.679095 0.267739 0.602390 0.114360
H13   H     H_    0.837549 0.223611 0.462340 0.145146
H14   H     H_    0.108395 0.103794 0.570267 0.123571
H15   H     H_    0.337276 0.620065 0.439925 0.157689
H16   H     H_    0.817851 0.667474 0.518581 0.125144
H17   H     H_    0.890232 0.084426 0.442900 0.130418
H18   H     H_    0.103425 0.934721 0.573430 0.145949
H19   H     H_    0.419386 0.531088 0.426734 0.121979
H20   H     H_    0.723826 0.647263 0.536944 0.147709
H21   H     H_    0.800562 0.120970 0.047271 0.143155
H22   H     H_    0.136982 0.908196 0.917243 0.152974
H23   H     H_    0.300670 0.620856 0.047290 0.143735
H24   H     H_    0.637006 0.408020 0.917239 0.152091
H25   H     H_    0.806661 0.088189 0.919098 0.130859
H26   H     H_    0.123689 0.885454 0.045738 0.151681
H27   H     H_    0.306757 0.588107 0.919124 0.132217
H28   H     H_    0.623711 0.385333 0.045739 0.151483
H29   H     H_    0.250403 0.169330 0.956043 0.149384
H30   H     H_    0.907355 0.371119 0.074090 0.140812
H31   H     H_    0.750527 0.669333 0.956065 0.150591
H32   H     H_    0.407334 0.870809 0.074054 0.140550
H33   H     H_    0.646898 0.705692 0.076874 0.144958
H34   H     H_    0.371653 0.044534 0.953601 0.149995
H35   H     H_    0.146772 0.205821 0.076836 0.144645
H36   H     H_    0.871609 0.544723 0.953599 0.149118
H37   H     H_    0.744850 0.700781 0.081786 0.135115
H38   H     H_    0.419630 0.895232 0.948148 0.147557
H39   H     H_    0.244721 0.200751 0.081762 0.134328
H40   H     H_    0.919647 0.395476 0.948179 0.147623
O1    O     O_R   0.787520 0.042810 0.170440 -0.535567
O2    O     O_R   0.212480 0.042810 0.829560 -0.527063
O3    O     O_R   0.287520 0.542810 0.170440 -0.540067
O4    O     O_R   0.712480 0.542810 0.829560 -0.527317
O5    O     O_R   0.556610 0.252880 0.323980 -0.519801
O6    O     O_R   0.443390 0.252880 0.676020 -0.511804
O7    O     O_R   0.056610 0.752880 0.323980 -0.525372
O8    O     O_R   0.943390 0.752880 0.676020 -0.496735
O9    O     O_R   0.545950 0.051210 0.330860 -0.539334
O10   O     O_R   0.454050 0.051210 0.669140 -0.500840
O11   O     O_R   0.045950 0.551210 0.330860 -0.517601
O12   O     O_R   0.954050 0.551210 0.669140 -0.489529
O13   O     O_R   0.681390 0.959480 0.325510 -0.505663
O14   O     O_R   0.318610 0.959480 0.674490 -0.489118
O15   O     O_R   0.181390 0.459480 0.325510 -0.508761
O16   O     O_R   0.818610 0.459480 0.674490 -0.503139
O17   O     O_3   0.667900 0.167900 0.250060 -0.289318
O18   O     O_3   0.332100 0.167900 0.749940 -0.270879
O19   O     O_3   0.167900 0.667900 0.250060 -0.253711
O20   O     O_3   0.832100 0.667900 0.749940 -0.270456
O21   O     O_R   0.765640 0.292100 0.175020 -0.496851
O22   O     O_R   0.234360 0.292100 0.824980 -0.497113
O23   O     O_R   0.265640 0.792100 0.175020 -0.499776
O24   O     O_R   0.734360 0.792100 0.824980 -0.501696
O25   O     O_R   0.670190 0.408840 0.168540 -0.525162
O26   O     O_R   0.329810 0.408840 0.831460 -0.528495
O27   O     O_R   0.170190 0.908840 0.168540 -0.528141
O28   O     O_R   0.829810 0.908840 0.831460 -0.532486
O29   O     O_R   0.556620 0.251410 0.175160 -0.479500
O30   O     O_R   0.443380 0.251410 0.824840 -0.472182
O31   O     O_R   0.056620 0.751410 0.175160 -0.482034
O32   O     O_R   0.943380 0.751410 0.824840 -0.467519
O33   O     O_R   0.545960 0.049620 0.170320 -0.529610
O34   O     O_R   0.454040 0.049620 0.829680 -0.537766
O35   O     O_R   0.045960 0.549620 0.170320 -0.531279
O36   O     O_R   0.954040 0.549620 0.829680 -0.530541
O37   O     O_R   0.681390 0.958010 0.176690 -0.489679
O38   O     O_R   0.318610 0.958010 0.823310 -0.500919
O39   O     O_R   0.181390 0.458010 0.176690 -0.497936
O40   O     O_R   0.818610 0.458010 0.823310 -0.503730
O41   O     O_R   0.787510 0.044390 0.330970 -0.512421
O42   O     O_R   0.212490 0.044390 0.669030 -0.532210
O43   O     O_R   0.287510 0.544390 0.330970 -0.529053
O44   O     O_R   0.712490 0.544390 0.669030 -0.527204
O45   O     O_R   0.765630 0.293570 0.323840 -0.509789
O46   O     O_R   0.234370 0.293570 0.676160 -0.506583
O47   O     O_R   0.265630 0.793570 0.323840 -0.506730
O48   O     O_R   0.734370 0.793570 0.676160 -0.512432
O49   O     O_R   0.670190 0.410420 0.329080 -0.530957
O50   O     O_R   0.329810 0.410420 0.670920 -0.527893
O51   O     O_R   0.170190 0.910420 0.329080 -0.530391
O52   O     O_R   0.829810 0.910420 0.670920 -0.530357
H41   H     H_    0.535564 0.352920 0.440802 0.145219
H42   H     H_    0.529362 0.345028 0.571308 0.157992
H43   H     H_    0.941398 0.831703 0.413639 0.148481
H44   H     H_    0.904304 0.828672 0.540399 0.182690
N1    N     N_3   0.024313 0.356903 0.577016 -0.631824
H45   H     H_    0.069337 0.308362 0.590219 0.226583
H46   H     H_    0.001566 0.313729 0.532991 0.216266
N2    N     N_3   0.137487 0.570878 0.482682 -0.648776
H47   H     H_    0.146728 0.599174 0.430514 0.256389
H48   H     H_    0.129238 0.650027 0.512724 0.221913
N3    N     N_3   0.461423 0.851965 0.583520 -0.619078
H49   H     H_    0.486021 0.842074 0.632911 0.240481
H50   H     H_    0.463039 0.765705 0.560548 0.224345
N4    N     N_3   0.550326 0.877037 0.424406 -0.659587
H51   H     H_    0.536472 0.849246 0.373005 0.263195
H52   H     H_    0.586109 0.947851 0.422990 0.268925
H53   H     H_    0.665004 0.810198 0.564832 0.139140
H54   H     H_    0.337207 0.816025 0.432509 0.121320
H55   H     H_    0.183061 0.253271 0.552896 0.142308
H56   H     H_    0.659318 0.209937 0.476041 0.101677
N5    N     N_3   0.920700 0.037776 0.573889 -0.625807
H57   H     H_    0.962911 0.087692 0.553952 0.219229
H58   H     H_    0.927401 0.036388 0.629127 0.257240
N6    N     N_3   0.077224 0.907021 0.443742 -0.613991
H59   H     H_    0.108920 0.829693 0.441123 0.240731
H60   H     H_    0.055499 0.925515 0.394006 0.272694
N7    N     N_3   0.443631 0.505152 0.560959 -0.628102
H61   H     H_    0.476082 0.572710 0.540245 0.212848
H62   H     H_    0.444852 0.511633 0.616505 0.249071
N8    N     N_3   0.686596 0.620922 0.408969 -0.615224
H63   H     H_    0.648372 0.564144 0.431005 0.236617
H64   H     H_    0.682025 0.622398 0.353521 0.274944
N9    N     N_3   0.845611 0.211483 0.600479 -0.621502
H65   H     H_    0.840634 0.184346 0.653639 0.235937
H66   H     H_    0.890116 0.266283 0.596931 0.258944
N10   N     N_3   0.090872 0.126215 0.436237 -0.669951
H67   H     H_    0.096619 0.123956 0.380813 0.236588
H68   H     H_    0.037328 0.131519 0.447076 0.223578
N11   N     N_3   0.332746 0.615130 0.573605 -0.654412
H69   H     H_    0.278915 0.602350 0.567056 0.246847
H70   H     H_    0.343827 0.613994 0.628032 0.261985
N12   N     N_3   0.811517 0.629946 0.382466 -0.584139
H71   H     H_    0.859620 0.592283 0.396919 0.222905
H72   H     H_    0.801064 0.596301 0.331398 0.245839
N13   N     N_3   0.509469 0.436216 0.867057 -0.605358
H73   H     H_    0.545882 0.506517 0.872875 0.199774
H74   H     H_    0.467803 0.473998 0.838586 0.250324
N14   N     N_3   0.426753 0.336433 0.150887 -0.615139
H75   H     H_    0.372341 0.344348 0.150042 0.233329
H76   H     H_    0.446258 0.403561 0.185149 0.240455
N15   N     N_3   0.009346 0.936298 0.867141 -0.600513
H77   H     H_    0.045746 0.006612 0.872994 0.200554
H78   H     H_    0.967680 0.974082 0.838672 0.250906
N16   N     N_3   0.926681 0.836230 0.150955 -0.613820
H79   H     H_    0.872266 0.844091 0.150138 0.236382
H80   H     H_    0.946183 0.903340 0.185231 0.240169
H81   H     H_    0.951555 0.087821 0.958982 0.102131
H82   H     H_    0.917259 0.046374 0.082110 0.124900
H83   H     H_    0.451756 0.587877 0.958872 0.101842
H84   H     H_    0.417434 0.546545 0.082005 0.124787
H85   H     H_    0.652466 0.672540 0.951131 0.146707
H86   H     H_    0.359728 0.020129 0.079447 0.141557
H87   H     H_    0.152345 0.172688 0.951091 0.147107
H88   H     H_    0.859675 0.520370 0.079450 0.141587

loop_
_geom_bond_atom_site_label_1
_geom_bond_atom_site_label_2
_ccdc_geom_bond_type
N7    H62   S    
C111  O15   A    
Cr10  O34   S    
C2    O26   A    
C73   C93   S    
Cr4   O48   S    
C90   O2    A    
C75   C95   S    
N16   H79   S    
Cr12  O16   S    
C79   C99   A    
C16   C20   A    
C103  O51   A    
C22   C38   S    
C23   C43   A    
C101  O49   A    
C10   H82   S    
C91   O39   A    
C92   O4    A    
C103  O47   A    
C113  C122  A    
C48   O36   A    
C70   C74   A    
N4    H52   S    
Cr4   O4    S    
Cr6   O26   S    
C59   C60   A    
C7    N15   S    
C86   N10   S    
C104  O52   A    
C25   C29   A    
C47   C116  S    
C108  O8    A    
Cr9   O13   S    
C61   N3    S    
C7    C119  A    
C28   C32   A    
C68   C101  S    
C106  O10   A    
C25   C41   A    
C46   O34   A    
C28   C44   A    
C17   C21   A    
C19   C23   A    
Cr3   O19   S    
C66   C82   A    
C78   C82   A    
Cr1   O17   S    
C68   C72   A    
C48   O32   A    
N12   H72   S    
C5    N13   S    
C30   H26   S    
C90   O38   A    
C102  O46   A    
C50   C57   A    
C66   C103  S    
C108  O12   A    
Cr7   O19   S    
C64   N2    S    
C49   C106  S    
C76   C100  A    
C9    H81   S    
C93   H17   S    
C11   H83   S    
C19   C35   S    
C76   C96   S    
C96   H20   S    
C49   C53   A    
C26   H22   S    
C51   C55   A    
N15   H78   S    
C78   H10   S    
C94   H14   S    
Cr10  O18   S    
Cr6   O50   S    
C8    C10   A    
C107  O7    A    
Cr2   O42   S    
N6    H59   S    
C41   C89   S    
C85   N5    S    
C116  C123  A    
C47   O35   A    
Cr9   O33   S    
Cr10  O10   S    
Cr7   O31   S    
C123  C124  A    
C74   C98   A    
C66   C70   A    
C53   C54   A    
N5    H57   S    
C58   H42   S    
C37   H33   S    
N9    H65   S    
C38   H38   S    
C27   H23   S    
C96   H16   S    
C123  H3    S    
C28   H24   S    
C97   C109  S    
N2    H47   S    
C121  H1    S    
Cr12  O36   S    
C53   C61   S    
C45   C114  S    
C35   H87   S    
N2    H48   S    
N10   H67   S    
C55   C63   S    
C50   C105  S    
C39   H35   S    
C56   C64   S    
C77   C97   A    
C6    N14   S    
N1    H45   S    
Cr4   O44   S    
Cr9   O9    S    
Cr5   O25   S    
Cr2   O22   S    
Cr12  O12   S    
C111  O43   A    
C62   H6    S    
Cr11  O11   S    
C18   C34   S    
C82   H54   S    
C39   H39   S    
C40   H40   S    
Cr2   O2    S    
C45   O33   A    
C116  C120  A    
C87   C95   S    
C42   C90   S    
Cr6   O30   S    
Cr7   O51   S    
C8    N16   S    
C80   H12   S    
C99   C111  S    
C75   C99   A    
C112  O44   A    
N3    H50   S    
C113  C117  A    
C61   H5    S    
C26   C30   A    
C115  C119  A    
C83   H55   S    
C69   C85   S    
C26   C42   A    
C46   O30   A    
C46   C113  S    
C18   C22   A    
C1    O21   A    
C44   C92   S    
N11   H69   S    
Cr12  O20   S    
C15   C31   A    
Cr1   O45   S    
C16   C32   A    
N16   H80   S    
C13   C17   A    
C84   H56   S    
Cr3   O3    S    
N8    H63   S    
C117  C118  A    
C12   H84   S    
Cr1   O1    S    
C57   C58   A    
C32   H28   S    
N13   H74   S    
C61   C62   S    
C109  O41   A    
C63   C64   S    
C4    O24   A    
N14   H75   S    
Cr9   O17   S    
Cr5   O49   S    
C63   H7    S    
C51   C60   A    
C105  O5    A    
C104  O48   A    
C87   N11   S    
Cr11  O35   S    
C55   C56   A    
C88   C96   S    
C98   C110  S    
C3    O27   A    
C74   C94   S    
C93   H13   S    
N3    H49   S    
C80   C84   A    
C1    O25   A    
Cr3   O43   S    
C15   C19   A    
C50   C54   A    
C13   C29   A    
C5    C11   A    
Cr8   O52   S    
C6    C12   A    
C102  O50   A    
C36   H88   S    
C114  C121  A    
Cr7   O7    S    
C52   C107  S    
N15   H77   S    
C69   C73   A    
Cr7   O27   S    
C88   N8    S    
C87   N7    S    
C59   H43   S    
C34   C38   S    
C81   H53   S    
C33   H31   S    
C17   C33   S    
C34   H32   S    
C38   H34   S    
C86   N6    S    
Cr8   O28   S    
C68   C84   A    
C122  H2    S    
C79   H11   S    
C54   C62   S    
C27   C31   A    
C33   C37   S    
Cr3   O23   S    
C35   C39   S    
Cr4   O24   S    
C112  O16   A    
C57   H41   S    
Cr2   O18   S    
C65   C81   A    
C77   C81   A    
N4    H51   S    
C1    C16   S    
C2    C15   S    
Cr11  O15   S    
C121  C122  A    
C3    C14   S    
C71   C87   S    
C88   N12   S    
C100  C112  S    
C24   C44   A    
C95   H15   S    
C40   H36   S    
C89   O37   A    
C101  O45   A    
C45   O29   A    
C115  C124  A    
C60   H44   S    
C124  H4    S    
Cr6   O18   S    
C33   H85   S    
C119  C120  A    
Cr10  O38   S    
Cr8   O8    S    
C79   C83   A    
N11   H70   S    
C65   C69   A    
C110  O14   A    
C92   O40   A    
C67   C71   A    
Cr11  O19   S    
C20   C36   S    
C27   C43   A    
C21   C37   S    
N10   H68   S    
N12   H71   S    
Cr1   O41   S    
C14   C18   A    
C72   C76   A    
C73   C97   A    
C4    O28   A    
C107  O11   A    
Cr5   O29   S    
C105  O9    A    
C4    C13   S    
C106  O6    A    
C86   C94   S    
C35   H29   S    
Cr11  O39   S    
C20   C24   A    
C109  O13   A    
C51   C108  S    
C91   O3    A    
C78   C98   A    
C3    O23   A    
C89   O1    A    
Cr3   O47   S    
Cr1   O21   S    
C80   C100  A    
C85   C93   S    
C14   C30   A    
C72   C88   S    
C62   N4    S    
C31   H27   S    
N5    H58   S    
C29   H25   S    
C36   C40   S    
Cr6   O6    S    
N9    H66   S    
C64   H8    S    
C43   C91   S    
C49   C58   A    
C5    C117  A    
N8    H64   S    
C52   C59   A    
C63   N1    S    
N6    H60   S    
C94   H18   S    
C36   H30   S    
N13   H73   S    
C67   C83   A    
N1    H46   S    
C114  C118  A    
C48   C115  S    
N14   H76   S    
Cr8   O32   S    
C25   H21   S    
C21   C41   A    
N7    H61   S    
C70   C86   S    
C77   H9    S    
C8    C120  A    
C9    C10   A    
C7    C9    A    
Cr5   O5    S    
C2    O22   A    
Cr4   O20   S    
C85   N9    S    
Cr5   O17   S    
C11   C12   A    
Cr2   O46   S    
C47   O31   A    
Cr9   O37   S    
Cr10  O14   S    
C71   C75   A    
C22   C42   A    
C23   C39   S    
C24   C40   S    
C95   H19   S    
C110  O42   A    
C37   H37   S    
Cr8   O20   S    
C65   C104  S    
C34   H86   S    
C6    C118  A    
C52   C56   A    
C67   C102  S    
Cr12  O40   S    
