data_mof_unit_23100.cif
_audit_creation_date              2012-10-26T17:12:50-0400
_audit_creation_method            fapswitch 2.2
_symmetry_space_group_name_H-M    P1
_symmetry_Int_Tables_number       1
_space_group_crystal_system       triclinic
_cell_length_a                    27.759107
_cell_length_b                    18.670347
_cell_length_c                    16.845368
_cell_angle_alpha                 89.647684
_cell_angle_beta                  62.677205
_cell_angle_gamma                 89.472603
_cell_volume                      7756.11917793

loop_
_atom_site_label
_atom_site_type_symbol
_atom_type_description
_atom_site_fract_x
_atom_site_fract_y
_atom_site_fract_z
_atom_type_partial_charge
C1    C     C_R   0.290583 0.719873 0.332810 0.831600
C2    C     C_R   0.703384 0.268005 0.671726 0.855598
C3    C     C_R   0.709483 0.719707 0.667049 0.843156
C4    C     C_R   0.290603 0.280155 0.332840 0.839404
C5    C     C_R   0.790583 0.219873 0.332810 0.831600
C6    C     C_R   0.203384 0.768005 0.671726 0.855598
C7    C     C_R   0.209483 0.219707 0.667049 0.843157
C8    C     C_R   0.790603 0.780155 0.332840 0.839404
C9    C     C_R   0.401086 0.000601 0.492758 -0.017686
C10   C     C_R   0.586129 0.000537 0.550439 -0.023623
C11   C     C_R   0.901086 0.500601 0.492758 -0.017686
C12   C     C_R   0.086129 0.500536 0.550439 -0.023623
C13   C     C_R   0.571397 0.875870 0.596443 0.377382
C14   C     C_R   0.423553 0.121600 0.431606 0.381884
C15   C     C_R   0.376130 0.884929 0.567038 0.353515
C16   C     C_R   0.582483 0.130223 0.550218 0.401189
C17   C     C_R   0.071397 0.375870 0.596443 0.377382
C18   C     C_R   0.923553 0.621600 0.431606 0.381884
C19   C     C_R   0.876130 0.384929 0.567038 0.353515
C20   C     C_R   0.082483 0.630223 0.550218 0.401189
C21   C     C_R   0.204885 0.738834 0.965496 -0.101001
C22   C     C_R   0.763863 0.205982 0.060020 -0.097410
C23   C     C_R   0.776927 0.772238 0.049458 -0.088787
C24   C     C_R   0.223590 0.227134 0.949928 -0.089200
C25   C     C_R   0.704885 0.238834 0.965496 -0.101001
C26   C     C_R   0.263863 0.705982 0.060020 -0.097410
C27   C     C_R   0.276927 0.272238 0.049458 -0.088787
C28   C     C_R   0.723590 0.727134 0.949928 -0.089200
C29   C     C_R   0.255279 0.703329 0.922113 -0.008907
C30   C     C_R   0.709057 0.230781 0.108068 -0.020254
C31   C     C_R   0.721092 0.753622 0.094717 -0.025562
C32   C     C_R   0.279468 0.245644 0.904603 -0.023943
C33   C     C_R   0.755279 0.203329 0.922113 -0.008908
C34   C     C_R   0.209057 0.730781 0.108068 -0.020254
C35   C     C_R   0.221092 0.253622 0.094717 -0.025562
C36   C     C_R   0.779468 0.745644 0.904603 -0.023943
C37   C     C_R   0.287747 0.696762 0.966312 -0.077086
C38   C     C_R   0.679262 0.247280 0.059448 -0.089035
C39   C     C_R   0.693636 0.735597 0.043834 -0.085570
C40   C     C_R   0.306917 0.263794 0.955529 -0.088517
C41   C     C_R   0.787747 0.196762 0.966312 -0.077086
C42   C     C_R   0.179262 0.747280 0.059448 -0.089035
C43   C     C_R   0.193636 0.235597 0.043834 -0.085570
C44   C     C_R   0.806917 0.763794 0.955529 -0.088517
C45   C     C_R   0.129978 0.801893 0.956042 -0.116901
C46   C     C_R   0.851276 0.172419 0.056251 -0.117728
C47   C     C_R   0.859108 0.816121 0.054344 -0.120862
C48   C     C_R   0.141253 0.183493 0.945298 -0.113935
C49   C     C_R   0.629978 0.301893 0.956042 -0.116901
C50   C     C_R   0.351276 0.672419 0.056251 -0.117728
C51   C     C_R   0.359108 0.316121 0.054344 -0.120862
C52   C     C_R   0.641253 0.683492 0.945298 -0.113935
C53   C     C_R   0.111312 0.839676 0.901708 -0.034137
C54   C     C_R   0.880189 0.149340 0.103516 -0.035119
C55   C     C_R   0.882816 0.848537 0.104111 -0.031219
C56   C     C_R   0.117401 0.151208 0.895678 -0.035060
C57   C     C_R   0.611313 0.339676 0.901708 -0.034137
C58   C     C_R   0.380189 0.649340 0.103516 -0.035119
C59   C     C_R   0.382816 0.348537 0.104111 -0.031219
C60   C     C_R   0.617401 0.651208 0.895678 -0.035060
C61   C     C_R   0.135558 0.825410 0.809927 -0.206323
C62   C     C_R   0.858889 0.165393 0.193953 -0.237301
C63   C     C_R   0.858725 0.837369 0.196032 -0.214066
C64   C     C_R   0.141444 0.162381 0.803771 -0.216027
C65   C     C_R   0.635558 0.325410 0.809927 -0.206323
C66   C     C_R   0.358889 0.665393 0.193953 -0.237301
C67   C     C_R   0.358725 0.337369 0.196032 -0.214066
C68   C     C_R   0.641444 0.662381 0.803771 -0.216027
C69   C     C_R   0.178023 0.775849 0.770340 -0.040459
C70   C     C_R   0.806994 0.194269 0.241100 -0.075602
C71   C     C_R   0.808182 0.805035 0.240269 -0.076116
C72   C     C_R   0.192021 0.194626 0.759465 -0.071448
C73   C     C_R   0.678023 0.275849 0.770340 -0.040459
C74   C     C_R   0.306994 0.694269 0.241100 -0.075602
C75   C     C_R   0.308182 0.305035 0.240269 -0.076116
C76   C     C_R   0.692021 0.694626 0.759465 -0.071448
C77   C     C_R   0.199341 0.742150 0.824149 -0.043726
C78   C     C_R   0.772696 0.199766 0.198738 -0.063529
C79   C     C_R   0.777153 0.794425 0.193309 -0.076053
C80   C     C_R   0.223177 0.205028 0.806243 -0.072107
C81   C     C_R   0.699341 0.242150 0.824149 -0.043726
C82   C     C_R   0.272696 0.699766 0.198738 -0.063529
C83   C     C_R   0.277153 0.294425 0.193309 -0.076053
C84   C     C_R   0.723177 0.705028 0.806243 -0.072107
C85   C     C_R   0.196383 0.631740 0.528400 0.876365
C86   C     C_R   0.799667 0.369331 0.485039 0.884994
C87   C     C_R   0.804097 0.631919 0.470447 0.864361
C88   C     C_R   0.195536 0.367880 0.531419 0.871301
C89   C     C_R   0.696383 0.131740 0.528400 0.876365
C90   C     C_R   0.299667 0.869331 0.485039 0.884994
C91   C     C_R   0.304097 0.131919 0.470447 0.864361
C92   C     C_R   0.695536 0.867880 0.531419 0.871301
C93   C     C_R   0.178567 0.762049 0.914694 -0.088953
C94   C     C_R   0.795927 0.192826 0.105055 -0.092310
C95   C     C_R   0.804203 0.794609 0.099072 -0.095789
C96   C     C_R   0.196212 0.204842 0.900450 -0.094655
C97   C     C_R   0.678567 0.262049 0.914694 -0.088953
C98   C     C_R   0.295927 0.692826 0.105055 -0.092310
C99   C     C_R   0.304203 0.294609 0.099072 -0.095789
C100  C     C_R   0.696212 0.704842 0.900450 -0.094655
C101  C     C_R   0.099775 0.795253 0.049564 0.543115
C102  C     C_R   0.875911 0.178905 0.962507 0.548771
C103  C     C_R   0.889490 0.797407 0.964177 0.555145
C104  C     C_R   0.110954 0.202292 0.035429 0.545702
C105  C     C_R   0.599775 0.295253 0.049564 0.543115
C106  C     C_R   0.375911 0.678905 0.962507 0.548771
C107  C     C_R   0.389490 0.297407 0.964177 0.555145
C108  C     C_R   0.610954 0.702292 0.035429 0.545702
C109  C     C_R   0.123085 0.763613 0.099495 0.599147
C110  C     C_R   0.844639 0.190154 0.918352 0.579170
C111  C     C_R   0.864221 0.766323 0.918052 0.594282
C112  C     C_R   0.136329 0.233240 0.081428 0.590743
C113  C     C_R   0.623085 0.263613 0.099495 0.599147
C114  C     C_R   0.344639 0.690154 0.918352 0.579170
C115  C     C_R   0.364221 0.266323 0.918052 0.594282
C116  C     C_R   0.636329 0.733240 0.081428 0.590743
C117  C     C_R   0.237928 0.685663 0.794485 0.585751
C118  C     C_R   0.716608 0.214488 0.245632 0.534951
C119  C     C_R   0.721252 0.779862 0.236364 0.546113
C120  C     C_R   0.279114 0.219403 0.763035 0.543122
C121  C     C_R   0.737928 0.185663 0.794485 0.585752
C122  C     C_R   0.216608 0.714488 0.245632 0.534951
C123  C     C_R   0.221251 0.279862 0.236364 0.546113
C124  C     C_R   0.779115 0.719403 0.763035 0.543122
C125  C     C_R   0.267734 0.668903 0.840305 0.357470
C126  C     C_R   0.688345 0.241038 0.201568 0.350726
C127  C     C_R   0.695834 0.750972 0.189585 0.360029
C128  C     C_R   0.304705 0.248105 0.809688 0.362706
C129  C     C_R   0.767734 0.168903 0.840305 0.357471
C130  C     C_R   0.188345 0.741038 0.201568 0.350726
C131  C     C_R   0.195834 0.250972 0.189585 0.360029
C132  C     C_R   0.804705 0.748105 0.809688 0.362706
C133  C     C_R   0.927819 0.900637 0.065344 0.852616
C134  C     C_R   0.072252 0.099292 0.934591 0.845601
C135  C     C_R   0.071167 0.899244 0.935830 0.840918
C136  C     C_R   0.926984 0.098811 0.065383 0.836154
C137  C     C_R   0.427819 0.400637 0.065344 0.852616
C138  C     C_R   0.572252 0.599292 0.934591 0.845601
C139  C     C_R   0.571167 0.399244 0.935830 0.840918
C140  C     C_R   0.426984 0.598812 0.065383 0.836154
C141  C     C_R   0.045560 0.628894 0.515238 0.021631
C142  C     C_R   0.925686 0.380246 0.570760 0.022666
C143  C     C_R   0.964744 0.624660 0.458166 0.021267
C144  C     C_R   0.023001 0.376132 0.587369 0.019267
C145  C     C_R   0.545560 0.128894 0.515238 0.021631
C146  C     C_R   0.425686 0.880246 0.570760 0.022666
C147  C     C_R   0.464744 0.124659 0.458166 0.021267
C148  C     C_R   0.523001 0.876132 0.587369 0.019267
C149  C     C_R   0.030149 0.691636 0.486275 -0.047841
C150  C     C_R   0.939136 0.320040 0.607428 -0.091394
C151  C     C_R   0.992136 0.688828 0.453641 -0.043228
C152  C     C_R   0.987492 0.317432 0.614019 -0.080049
C153  C     C_R   0.530149 0.191636 0.486275 -0.047841
C154  C     C_R   0.439136 0.820040 0.607428 -0.091394
C155  C     C_R   0.492136 0.188827 0.453641 -0.043228
C156  C     C_R   0.487492 0.817432 0.614019 -0.080049
C157  C     C_R   0.978048 0.562650 0.492364 0.015340
C158  C     C_R   0.008743 0.437475 0.553111 0.019854
C159  C     C_R   0.021571 0.563634 0.513569 0.014267
C160  C     C_R   0.961348 0.438489 0.541395 0.020834
C161  C     C_R   0.478048 0.062650 0.492364 0.015340
C162  C     C_R   0.508743 0.937474 0.553111 0.019854
C163  C     C_R   0.521571 0.063634 0.513569 0.014267
C164  C     C_R   0.461348 0.938489 0.541395 0.020834
C165  C     C_R   0.447416 0.000145 0.507140 0.005461
C166  C     C_R   0.538821 0.000302 0.538961 0.003468
C167  C     C_R   0.947416 0.500145 0.507140 0.005461
C168  C     C_R   0.038821 0.500301 0.538961 0.003468
C169  C     C_R   0.367528 0.939606 0.515668 -0.074944
C170  C     C_R   0.611091 0.066444 0.549472 -0.080380
C171  C     C_R   0.607106 0.935493 0.565666 -0.061275
C172  C     C_R   0.387049 0.063045 0.459182 -0.071171
C173  C     C_R   0.867528 0.439606 0.515668 -0.074944
C174  C     C_R   0.111091 0.566444 0.549472 -0.080380
C175  C     C_R   0.107106 0.435493 0.565666 -0.061275
C176  C     C_R   0.887049 0.563045 0.459182 -0.071171
C177  C     C_R   0.326054 0.936971 0.488047 -0.205386
C178  C     C_R   0.663190 0.065859 0.546942 -0.197765
C179  C     C_R   0.661626 0.934566 0.553434 -0.190652
C180  C     C_R   0.336086 0.064775 0.457615 -0.177355
C181  C     C_R   0.826054 0.436970 0.488047 -0.205386
C182  C     C_R   0.163190 0.565859 0.546942 -0.197765
C183  C     C_R   0.161626 0.434566 0.553434 -0.190652
C184  C     C_R   0.836086 0.564775 0.457615 -0.177355
C185  C     C_R   0.310383 0.000152 0.460757 0.532765
C186  C     C_R   0.687307 0.000016 0.549467 0.547577
C187  C     C_R   0.810383 0.500151 0.460757 0.532764
C188  C     C_R   0.187307 0.500016 0.549467 0.547576
Cu1   Cu    Cu3+1 0.209920 0.785290 0.495070 1.173386
Cu2   Cu    Cu3+1 0.790080 0.214710 0.504930 1.165031
Cu3   Cu    Cu3+1 0.790080 0.785290 0.504930 1.181852
Cu4   Cu    Cu3+1 0.209920 0.214710 0.495070 1.174839
Cu5   Cu    Cu3+1 0.709920 0.285290 0.495070 1.173386
Cu6   Cu    Cu3+1 0.290080 0.714710 0.504930 1.165031
Cu7   Cu    Cu3+1 0.290080 0.285290 0.504930 1.181853
Cu8   Cu    Cu3+1 0.709920 0.714710 0.495070 1.174839
Cu9   Cu    Cu3+1 0.495240 0.500000 0.924150 1.139661
Cu10  Cu    Cu3+1 0.504760 0.500000 0.075850 1.125714
Cu11  Cu    Cu3+1 0.995240 1.000000 0.924150 1.139661
Cu12  Cu    Cu3+1 0.004760 0.000000 0.075850 1.125714
H1    H     H_    0.496533 0.769048 0.640415 0.226117
H2    H     H_    0.482086 0.237960 0.429945 0.215578
H3    H     H_    0.412903 0.773803 0.629365 0.226391
H4    H     H_    0.548825 0.242393 0.486029 0.210658
H5    H     H_    0.996533 0.269048 0.640415 0.226117
H6    H     H_    0.982086 0.737960 0.429945 0.215578
H7    H     H_    0.912903 0.273803 0.629365 0.226391
H8    H     H_    0.048825 0.742393 0.486029 0.210658
H9    H     H_    0.121853 0.854470 0.768084 0.195132
H10   H     H_    0.882779 0.154200 0.228566 0.200809
H11   H     H_    0.879466 0.854245 0.233680 0.207721
H12   H     H_    0.120612 0.145655 0.766209 0.206028
H13   H     H_    0.621853 0.354470 0.768084 0.195132
H14   H     H_    0.382779 0.654200 0.228566 0.200809
H15   H     H_    0.379466 0.354245 0.233680 0.207721
H16   H     H_    0.620612 0.645655 0.766209 0.206028
O1    O     O_R   0.255040 0.869590 0.478480 -0.515692
O2    O     O_R   0.744960 0.130410 0.521520 -0.498129
O3    O     O_R   0.744960 0.869590 0.521520 -0.520154
O4    O     O_R   0.255040 0.130410 0.478480 -0.529577
O5    O     O_R   0.755040 0.369590 0.478480 -0.515692
O6    O     O_R   0.244960 0.630410 0.521520 -0.498128
O7    O     O_R   0.244960 0.369590 0.521520 -0.520154
O8    O     O_R   0.755040 0.630410 0.478480 -0.529577
O9    O     O_R   0.182050 0.796550 0.624440 -0.584104
O10   O     O_R   0.817950 0.203450 0.375560 -0.599012
O11   O     O_R   0.817950 0.796550 0.375560 -0.574595
O12   O     O_R   0.182050 0.203450 0.624440 -0.572432
O13   O     O_R   0.682050 0.296550 0.624440 -0.584104
O14   O     O_R   0.317950 0.703450 0.375560 -0.599012
O15   O     O_R   0.317950 0.296550 0.375560 -0.574595
O16   O     O_R   0.682050 0.703450 0.624440 -0.572432
O17   O     O_R   0.250530 0.763330 0.367210 -0.518110
O18   O     O_R   0.749470 0.236670 0.632790 -0.496896
O19   O     O_R   0.749470 0.763330 0.632790 -0.523187
O20   O     O_R   0.250530 0.236670 0.367210 -0.523543
O21   O     O_R   0.750530 0.263330 0.367210 -0.518110
O22   O     O_R   0.249470 0.736670 0.632790 -0.496896
O23   O     O_R   0.249470 0.263330 0.632790 -0.523187
O24   O     O_R   0.750530 0.736670 0.367210 -0.523543
O25   O     O_R   0.177260 0.690030 0.513710 -0.537954
O26   O     O_R   0.822740 0.309970 0.486290 -0.571027
O27   O     O_R   0.822740 0.690030 0.486290 -0.531660
O28   O     O_R   0.177260 0.309970 0.513710 -0.526072
O29   O     O_R   0.677260 0.190030 0.513710 -0.537954
O30   O     O_R   0.322740 0.809970 0.486290 -0.571027
O31   O     O_R   0.322740 0.190030 0.486290 -0.531660
O32   O     O_R   0.677260 0.809970 0.513710 -0.526072
O33   O     O_R   0.051640 0.926880 0.885090 -0.572371
O34   O     O_R   0.948360 0.073120 0.114910 -0.576443
O35   O     O_R   0.948360 0.926880 0.114910 -0.567651
O36   O     O_R   0.051640 0.073120 0.885090 -0.575221
O37   O     O_R   0.551640 0.426880 0.885090 -0.572371
O38   O     O_R   0.448360 0.573120 0.114910 -0.576443
O39   O     O_R   0.448360 0.426880 0.114910 -0.567651
O40   O     O_R   0.551640 0.573120 0.885090 -0.575221
O41   O     O_R   0.940620 0.926560 0.986760 -0.549922
O42   O     O_R   0.059380 0.073440 0.013240 -0.547970
O43   O     O_R   0.059380 0.926560 0.013240 -0.546897
O44   O     O_R   0.940620 0.073440 0.986760 -0.536893
O45   O     O_R   0.440620 0.426560 0.986760 -0.549922
O46   O     O_R   0.559380 0.573440 0.013240 -0.547970
O47   O     O_R   0.559380 0.426560 0.013240 -0.546897
O48   O     O_R   0.440620 0.573440 0.986760 -0.536893
F1    F     F_    0.268630 0.999503 0.439602 -0.614294
F2    F     F_    0.737406 0.999592 0.545238 -0.598016
F3    F     F_    0.768630 0.499503 0.439602 -0.614293
F4    F     F_    0.237406 0.499592 0.545238 -0.598015
Cl1   Cl    Cl    0.578484 0.811799 0.668745 -0.560390
Cl2   Cl    Cl    0.426926 0.181380 0.346851 -0.512834
Cl3   Cl    Cl    0.319999 0.841436 0.652824 -0.636443
Cl4   Cl    Cl    0.571045 0.197757 0.630847 -0.491207
Cl5   Cl    Cl    0.078484 0.311799 0.668745 -0.560390
Cl6   Cl    Cl    0.926926 0.681380 0.346851 -0.512834
Cl7   Cl    Cl    0.819999 0.341436 0.652824 -0.636443
Cl8   Cl    Cl    0.071045 0.697757 0.630847 -0.491207
F5    F     F_    0.045463 0.807717 0.091124 -0.584982
F6    F     F_    0.930622 0.183089 0.913559 -0.585495
F7    F     F_    0.944543 0.798585 0.924327 -0.583259
F8    F     F_    0.055898 0.201319 0.075368 -0.598369
F9    F     F_    0.545463 0.307717 0.091124 -0.584982
F10   F     F_    0.430622 0.683089 0.913559 -0.585495
F11   F     F_    0.444543 0.298585 0.924327 -0.583259
F12   F     F_    0.555898 0.701319 0.075368 -0.598369
F13   F     F_    0.088603 0.737726 0.181288 -0.556943
F14   F     F_    0.870943 0.202813 0.828944 -0.590792
F15   F     F_    0.896383 0.729379 0.842748 -0.552885
F16   F     F_    0.104280 0.270120 0.156853 -0.564515
F17   F     F_    0.588603 0.237726 0.181288 -0.556943
F18   F     F_    0.370943 0.702813 0.828944 -0.590792
F19   F     F_    0.396383 0.229379 0.842748 -0.552885
F20   F     F_    0.604280 0.770120 0.156853 -0.564515
F21   F     F_    0.240967 0.639224 0.730570 -0.586879
F22   F     F_    0.687377 0.200357 0.334220 -0.640861
F23   F     F_    0.689531 0.796828 0.323499 -0.619697
F24   F     F_    0.310670 0.202526 0.675808 -0.626208
F25   F     F_    0.740967 0.139224 0.730570 -0.586880
F26   F     F_    0.187377 0.700357 0.334220 -0.640861
F27   F     F_    0.189531 0.296828 0.323499 -0.619697
F28   F     F_    0.810670 0.702527 0.675808 -0.626208
Cl9   Cl    Cl    0.310437 0.592417 0.804487 -0.419966
Cl10  Cl    Cl    0.635974 0.302101 0.266002 -0.463382
Cl11  Cl    Cl    0.640429 0.694693 0.254468 -0.429486
Cl12  Cl    Cl    0.360389 0.303859 0.744441 -0.406439
Cl13  Cl    Cl    0.810437 0.092417 0.804487 -0.419966
Cl14  Cl    Cl    0.135974 0.802101 0.266002 -0.463382
Cl15  Cl    Cl    0.140429 0.194693 0.254468 -0.429486
Cl16  Cl    Cl    0.860389 0.803859 0.744441 -0.406439

loop_
_geom_bond_atom_site_label_1
_geom_bond_atom_site_label_2
_ccdc_geom_bond_type
C85   C182  S    
C4    O20   A    
Cu6   O14   S    
C9    C169  A    
C34   C42   A    
C134  O36   A    
C104  F8    S    
C154  H3    S    
C181  C187  A    
C6    O22   A    
C27   C99   A    
C188  F4    S    
C12   C174  A    
C42   C109  A    
C24   C96   A    
C113  F17   S    
C30   C38   A    
Cu3   Cu8   S    
C90   O1    A    
C2    O13   A    
C3    O19   A    
Cu11  O44   S    
C129  Cl13  S    
Cu1   Cu6   S    
Cu11  O33   S    
C1    O17   A    
C136  O44   A    
C105  F9    S    
C155  H2    S    
C147  C155  A    
C85   O6    A    
C108  F12   S    
Cu6   O6    S    
C143  C151  A    
C90   C177  S    
Cu11  Cu12  S    
Cu8   O32   S    
C11   C167  A    
C82   C98   A    
C136  O34   A    
C73   C81   A    
C161  C163  A    
Cu1   O1    S    
C162  C164  A    
C50   C98   A    
C84   C100  A    
Cu4   Cu7   S    
C121  C129  A    
C37   C114  A    
C130  Cl14  S    
C27   C35   A    
C10   C171  A    
C55   C133  S    
C21   C29   A    
C117  F21   S    
C23   C31   A    
C20   Cl8   S    
C65   H13   S    
C5    C70   S    
C56   C134  S    
C110  F14   S    
C134  O42   A    
C120  C128  A    
C137  O39   A    
C63   C71   A    
Cu1   O25   S    
C36   C44   A    
C116  F20   S    
C175  C183  A    
C58   C140  S    
C176  C184  A    
C8    C71   S    
C48   C96   A    
C123  F27   S    
C17   Cl5   S    
C148  C162  A    
C33   C41   A    
C183  C188  A    
C108  C116  A    
C21   C93   A    
C78   C94   A    
C9    C165  A    
C89   O29   A    
C49   C97   A    
C21   C42   A    
C22   C41   A    
C51   C107  A    
Cu6   O30   S    
C24   C43   A    
C64   H12   S    
C101  C109  A    
C82   C122  A    
C161  C165  A    
C17   C175  A    
C60   C138  S    
C18   C176  A    
C6    C69   S    
C139  O47   A    
C69   C77   A    
C53   C135  S    
C31   C127  A    
C45   C93   A    
C174  C182  A    
C71   C79   A    
C92   O32   A    
C185  F1    S    
C179  C186  A    
C62   C70   A    
C11   C176  A    
C17   C144  A    
C1    C74   S    
C105  C113  A    
C18   C143  A    
C78   C118  A    
Cu9   O48   S    
C149  C151  A    
Cu12  O35   S    
Cu10  O47   S    
C66   C74   A    
C6    O9    A    
C49   C57   A    
C124  C132  A    
C52   C60   A    
C59   C67   A    
C53   C61   A    
C141  C159  A    
C20   C174  A    
Cu8   O16   S    
C23   C95   A    
C55   C63   A    
C86   C181  S    
C56   C64   A    
Cu1   O17   S    
C125  Cl9   S    
Cu10  O38   S    
C45   C53   A    
C22   C94   A    
C171  C179  A    
C156  H1    S    
C149  H8    S    
C169  C177  A    
C8    O24   A    
C114  F18   S    
C119  F23   S    
C120  F24   S    
C7    C72   S    
C104  C112  A    
C145  C163  A    
C146  C164  A    
C14   C147  A    
C52   C100  A    
C16   C145  A    
C106  F10   S    
C178  C186  A    
C92   O3    A    
C13   Cl1   S    
C25   C38   A    
C46   C94   A    
C27   C40   A    
C10   C166  A    
Cu5   O21   S    
C91   C180  S    
C62   H10   S    
C182  C188  A    
C89   C178  S    
Cu6   O22   S    
C28   C36   A    
C2    C73   S    
C25   C97   A    
C67   C75   A    
C29   C37   A    
C131  Cl15  S    
C111  F15   S    
C22   C30   A    
Cu2   O10   S    
C20   C141  A    
C118  F22   S    
C63   H11   S    
C15   C146  A    
C68   C76   A    
C135  O43   A    
C184  C187  A    
C32   C128  A    
C72   C80   A    
C186  F2    S    
Cu5   O5    S    
Cu9   Cu10  S    
Cu11  O36   S    
C13   C171  A    
C140  O48   A    
C117  C125  A    
C25   C33   A    
C18   Cl6   S    
C119  C127  A    
Cu5   O13   S    
C76   C84   A    
C80   C120  A    
C158  C168  A    
C5    O21   A    
C101  F5    S    
C164  C165  A    
C132  Cl16  S    
C29   C125  A    
Cu8   O24   S    
C40   C115  A    
Cu3   O19   S    
C177  C185  A    
C57   C139  S    
C103  C111  A    
C91   O4    A    
C4    C75   S    
Cu9   O45   S    
Cu2   Cu5   S    
Cu12  O34   S    
C89   O2    A    
C162  C166  A    
C1    O14   A    
C2    O18   A    
C138  O46   A    
Cu9   O40   S    
C79   C119  A    
C121  F25   S    
C86   O5    A    
C153  C155  A    
C133  O35   A    
C154  C156  A    
C124  F28   S    
C172  C180  A    
C133  O41   A    
C173  C181  A    
C157  C159  A    
C83   C99   A    
C158  C160  A    
C135  O33   A    
C138  O40   A    
Cu2   O2    S    
C16   Cl4   S    
Cu4   O20   S    
C91   O31   A    
C47   C103  A    
C50   C58   A    
C4    O15   A    
C163  C166  A    
C147  C161  A    
C38   C113  A    
C49   C105  A    
C54   C62   A    
C28   C39   A    
C23   C44   A    
C66   H14   S    
C19   C173  A    
C79   C95   A    
C92   C179  S    
Cu11  O41   S    
C126  Cl10  S    
C46   C54   A    
C85   O25   A    
C61   H9    S    
C45   C101  A    
Cu2   O26   S    
C19   C142  A    
C115  F19   S    
C157  C167  A    
C102  C110  A    
C140  O38   A    
C35   C131  A    
Cu12  O43   S    
C33   C129  A    
C123  C131  A    
C107  F11   S    
C57   C65   A    
C88   O28   A    
C14   Cl2   S    
C26   C37   A    
C10   C170  A    
Cu3   O27   S    
C87   O8    A    
C142  C150  A    
C36   C132  A    
C75   C83   A    
Cu7   O31   S    
C90   O30   A    
C77   C93   A    
C68   H16   S    
C44   C111  A    
C16   C170  A    
C60   C68   A    
C144  C152  A    
C39   C116  A    
C81   C121  A    
C50   C106  A    
Cu5   O29   S    
C9    C172  A    
C148  C156  A    
C83   C123  A    
C170  C178  A    
Cu10  O39   S    
C30   C126  A    
Cu4   O28   S    
C70   C78   A    
C67   H15   S    
C103  F7    S    
C24   C32   A    
C141  C149  A    
C5    O10   A    
C46   C102  A    
C106  C114  A    
C139  O37   A    
C150  H7    S    
C77   C117  A    
C127  Cl11  S    
C128  Cl12  S    
C7    O12   A    
C59   C137  S    
C48   C104  A    
C65   C73   A    
C159  C168  A    
C15   C169  A    
C160  C167  A    
C26   C34   A    
C19   Cl7   S    
C146  C154  A    
Cu7   O23   S    
Cu2   O18   S    
C80   C96   A    
C86   O26   A    
C153  H4    S    
C109  F13   S    
C28   C100  A    
C32   C40   A    
C52   C108  A    
Cu9   O37   S    
C102  F6    S    
C15   Cl3   S    
C8    O11   A    
C58   C66   A    
C143  C157  A    
C51   C99   A    
C11   C173  A    
C152  H5    S    
C14   C172  A    
Cu3   O3    S    
C87   C184  S    
Cu10  O46   S    
C88   C183  S    
C122  F26   S    
C87   O27   A    
C187  F3    S    
C54   C136  S    
C88   O7    A    
Cu7   O15   S    
Cu8   O8    S    
C3    C76   S    
C107  C115  A    
C26   C98   A    
C12   C175  A    
C7    O23   A    
C41   C110  A    
C150  C152  A    
C51   C59   A    
C43   C112  A    
Cu4   O4    S    
C144  C158  A    
C35   C43   A    
C47   C55   A    
C74   C82   A    
C61   C69   A    
C48   C56   A    
Cu3   O11   S    
Cu1   O9    S    
C142  C160  A    
C3    O16   A    
C12   C168  A    
Cu12  O42   S    
C84   C124  A    
C118  C126  A    
C145  C153  A    
Cu7   O7    S    
C81   C97   A    
C31   C39   A    
C64   C72   A    
C151  H6    S    
C180  C185  A    
Cu4   O12   S    
C34   C130  A    
C47   C95   A    
C112  F16   S    
C13   C148  A    
C122  C130  A    
C137  O45   A    
