data_mof_unit_24215.cif
_audit_creation_date              2012-12-10T16:53:10-0500
_audit_creation_method            fapswitch 2.2
_symmetry_space_group_name_H-M    P1
_symmetry_Int_Tables_number       1
_space_group_crystal_system       triclinic
_cell_length_a                    10.777218
_cell_length_b                    10.993405
_cell_length_c                    9.736168
_cell_angle_alpha                 90.501591
_cell_angle_beta                  90.240648
_cell_angle_gamma                 90.550451
_cell_volume                      1153.41682855

loop_
_atom_site_label
_atom_site_type_symbol
_atom_type_description
_atom_site_fract_x
_atom_site_fract_y
_atom_site_fract_z
_atom_type_partial_charge
C1    C     C_R   0.502045 0.266056 0.499332 0.970105
C2    C     C_R   0.063341 0.386391 0.558021 -0.116602
C3    C     C_R   0.128697 0.485666 0.498670 -0.008442
C4    C     C_R   0.065323 0.580766 0.436444 -0.145907
C5    C     C_R   0.937361 0.582474 0.436785 -0.158939
C6    C     C_R   0.870827 0.489624 0.500441 0.027517
C7    C     C_2   0.526657 0.935708 0.405241 -0.170101
C8    C     C_2   0.470209 0.863320 0.499064 -0.254451
C9    C     C_2   0.488879 0.062191 0.393782 -0.058821
C10   C     C_2   0.520121 0.136284 0.498967 -0.318130
C11   C     C_2   0.427919 0.430799 0.923225 0.619799
C12   C     C_R   0.262682 0.494666 0.499718 0.905426
C13   C     C_2   0.415130 0.445447 0.076877 0.651396
C14   C     C_R   0.496191 0.733955 0.500381 0.813728
C15   C     C_R   0.737246 0.498156 0.500170 0.736843
C16   C     C_R   0.123507 0.282320 0.611045 0.476602
C17   C     C_R   0.054960 0.187113 0.668151 0.551812
C18   C     C_R   0.926191 0.191710 0.671395 0.521706
C19   C     C_R   0.864874 0.291198 0.616872 -0.377154
C20   C     C_R   0.931940 0.389676 0.559980 -0.055875
Cu1   Cu    Cu3+1 0.500020 0.500020 0.638630 1.077836
Cu2   Cu    Cu3+1 0.499980 0.499980 0.361370 1.054441
H1    H     H_    0.115529 0.655500 0.389584 0.157777
H2    H     H_    0.567866 0.099372 0.587913 0.175910
H3    H     H_    0.583775 0.515265 0.109585 0.126169
H4    H     H_    0.764637 0.288940 0.617929 0.196364
H5    H     H_    0.889829 0.658017 0.389639 0.144434
N1    N     N_2   0.498640 0.498660 0.846910 -0.340707
N2    N     N_2   0.498610 0.498630 0.153040 -0.336153
O1    O     O_R   0.500020 0.321960 0.617040 -0.512628
O2    O     O_R   0.499980 0.321920 0.382900 -0.542617
O3    O     O_R   0.319670 0.500020 0.617100 -0.505993
O4    O     O_R   0.319630 0.499980 0.382950 -0.517899
O5    O     O_R   0.500020 0.678080 0.617100 -0.548857
O6    O     O_R   0.499980 0.678040 0.382960 -0.593597
O7    O     O_R   0.680370 0.500020 0.617050 -0.609531
O8    O     O_R   0.680330 0.499980 0.382900 -0.592214
F1    F     F_    0.360955 0.340052 0.862091 -0.552479
C21   C     C_2   0.536639 0.616476 0.894674 0.451510
H6    H     H_    0.627991 0.650772 0.867926 0.096828
O9    O     O_2   0.464784 0.683258 0.955406 -0.518245
F2    F     F_    0.313129 0.396222 0.136713 -0.561924
F3    F     F_    0.247747 0.268290 0.603280 -0.605312
F4    F     F_    0.114059 0.088504 0.718441 -0.557841
F5    F     F_    0.859974 0.098129 0.725120 -0.592805
C22   C     C_2   0.634316 0.896075 0.320536 0.488374
H7    H     H_    0.681171 0.811145 0.340461 0.061995
O10   O     O_2   0.673927 0.960347 0.228580 -0.508147
C23   C     C_2   0.367058 0.907172 0.589227 0.460165
H8    H     H_    0.333275 0.999486 0.583301 0.163723
O11   O     O_2   0.316461 0.839054 0.670647 -0.453112
C24   C     C_2   0.408867 0.094703 0.275355 0.516292
H9    H     H_    0.417236 0.044535 0.179403 0.117976
O12   O     O_2   0.327615 0.170725 0.286323 -0.450240

loop_
_geom_bond_atom_site_label_1
_geom_bond_atom_site_label_2
_ccdc_geom_bond_type
C14   O5    A    
C11   F1    S    
C7    C22   S    
Cu1   O5    S    
Cu2   N2    S    
C6    C20   A    
Cu1   O1    S    
C19   C20   A    
C23   H8    S    
C17   C18   A    
C12   O4    A    
C17   F4    S    
C7    C8    D    
C21   O9    D    
Cu1   O7    S    
Cu1   Cu2   S    
C12   O3    A    
Cu2   O6    S    
C11   C13   S    
C16   F3    S    
C16   C17   A    
C9    C24   S    
C11   N1    D    
C13   N2    D    
C13   F2    S    
Cu1   N1    S    
C24   O12   D    
C2    C3    A    
H3    N2    S    
C5    C6    A    
Cu1   O3    S    
C22   O10   D    
Cu2   O2    S    
C2    C20   A    
C3    C4    A    
C21   H6    S    
C18   F5    S    
C15   O7    A    
C1    O2    A    
C2    C16   A    
C24   H9    S    
C19   H4    S    
C18   C19   A    
C9    C10   D    
C14   O6    A    
C7    C9    S    
Cu2   O4    S    
C22   H7    S    
C1    O1    A    
C8    C14   S    
C3    C12   S    
N1    C21   S    
C10   H2    S    
C6    C15   S    
C5    H5    S    
Cu2   O8    S    
C8    C23   S    
C4    H1    S    
C15   O8    A    
C1    C10   S    
C4    C5    A    
C23   O11   D    
