data_mof_unit_24394.cif
_audit_creation_date              2012-12-10T21:36:38-0500
_audit_creation_method            fapswitch 2.2
_symmetry_space_group_name_H-M    P1
_symmetry_Int_Tables_number       1
_space_group_crystal_system       triclinic
_cell_length_a                    10.536419
_cell_length_b                    16.073236
_cell_length_c                    16.408921
_cell_angle_alpha                 88.470259
_cell_angle_beta                  89.943153
_cell_angle_gamma                 93.315778
_cell_volume                      2773.27231895

loop_
_atom_site_label
_atom_site_type_symbol
_atom_type_description
_atom_site_fract_x
_atom_site_fract_y
_atom_site_fract_z
_atom_type_partial_charge
C1    C     C_R   0.499507 0.489554 0.655088 0.908578
C2    C     C_R   0.564035 0.238365 0.537139 -0.040416
C3    C     C_R   0.431820 0.848330 0.471644 -0.305270
C4    C     C_R   0.559468 0.151104 0.534686 -0.290718
C5    C     C_R   0.529044 0.891620 0.515495 0.217339
C6    C     C_R   0.471773 0.108571 0.483069 0.224078
C7    C     C_R   0.618692 0.844179 0.556954 0.358504
C8    C     C_R   0.391173 0.156728 0.434691 0.307964
C9    C     C_R   0.609790 0.756711 0.552852 -0.138869
C10   C     C_R   0.399556 0.244167 0.439539 -0.143915
C11   C     C_R   0.742686 0.500572 0.502855 0.876321
C12   C     C_R   0.507884 0.510514 0.345556 0.915450
C13   C     C_R   0.257016 0.499244 0.500603 0.885453
C14   C     C_3   0.953918 0.454745 0.569154 0.162911
C15   C     C_3   0.044427 0.545158 0.440037 0.171048
C16   C     C_3   0.048449 0.531726 0.573882 -0.254355
C17   C     C_3   0.951388 0.467891 0.435267 -0.255817
C18   C     C_3   0.122184 0.497363 0.502268 -0.159617
C19   C     C_3   0.877164 0.502384 0.506150 -0.154844
C20   C     C_3   0.029499 0.420198 0.498518 0.189970
C21   C     C_3   0.969624 0.579452 0.510779 0.175995
C22   C     C_R   0.526218 0.484876 0.743837 -0.196821
C23   C     C_R   0.657853 0.475737 0.892426 0.122849
C24   C     C_R   0.541891 0.516922 0.257895 -0.193683
C25   C     C_R   0.569261 0.558974 0.783351 -0.026345
C26   C     C_R   0.643062 0.470330 0.228238 -0.015916
C27   C     C_R   0.653180 0.552500 0.848999 0.346436
C28   C     C_R   0.693736 0.490206 0.149938 0.253195
C29   C     C_3   0.891391 0.410644 0.644164 -0.399211
C30   C     C_3   0.988810 0.374044 0.701237 -0.771591
C31   C     C_3   0.097457 0.590887 0.363457 -0.432644
C32   C     C_3   0.995125 0.634841 0.315929 -0.721921
C33   C     C_3   0.066821 0.330608 0.486686 -0.389998
C34   C     C_R   0.621144 0.536444 0.094586 0.041741
C35   C     C_3   0.950989 0.269696 0.479675 -0.804203
C36   C     C_3   0.933322 0.668843 0.524730 -0.360156
C37   C     C_3   0.049692 0.729629 0.529653 -0.764300
C38   C     C_3   0.693715 0.397725 0.278114 -0.372802
C39   C     C_3   0.609550 0.317940 0.267706 -0.693548
C40   C     C_3   0.517498 0.644067 0.762767 -0.222445
C41   C     C_3   0.371808 0.641038 0.761336 -0.767619
C42   C     C_3   0.454641 0.329533 0.759527 -0.248487
C43   C     C_3   0.313578 0.346985 0.753417 -0.838735
C44   C     C_3   0.387582 0.633493 0.238223 -0.313421
C45   C     C_R   0.613171 0.402205 0.855363 0.317491
C46   C     C_3   0.452823 0.718095 0.257738 -0.728788
C47   C     C_R   0.513560 0.576916 0.121296 0.392825
C48   C     C_R   0.536672 0.406217 0.784634 -0.038645
C49   C     C_R   0.482804 0.574675 0.205254 -0.028338
C50   C     C_R   0.427003 0.760998 0.469838 -0.045926
H1    H     H_    0.092862 0.557105 0.630044 0.163876
H2    H     H_    0.139009 0.198979 0.344353 0.354626
H3    H     H_    0.040372 0.325660 0.670203 0.250853
H4    H     H_    0.057761 0.423840 0.722027 0.257140
H5    H     H_    0.939467 0.344775 0.755513 0.295764
H6    H     H_    0.838226 0.456597 0.677946 0.207056
H7    H     H_    0.821939 0.360638 0.624835 0.211643
H8    H     H_    0.908936 0.592715 0.308164 0.268647
H9    H     H_    0.968581 0.691246 0.347769 0.242658
H10   H     H_    0.032558 0.654713 0.254747 0.275739
H11   H     H_    0.174097 0.637230 0.380507 0.198526
H12   H     H_    0.911824 0.442387 0.378086 0.163740
H13   H     H_    0.138272 0.544224 0.323820 0.224605
H14   H     H_    0.897159 0.264685 0.537779 0.260713
H15   H     H_    0.887476 0.289895 0.429849 0.258258
H16   H     H_    0.982754 0.206920 0.465888 0.275790
H17   H     H_    0.123291 0.329148 0.429661 0.210218
H18   H     H_    0.127094 0.310671 0.538227 0.220959
H19   H     H_    0.115010 0.709519 0.578486 0.255641
H20   H     H_    0.101440 0.734261 0.470773 0.243291
H21   H     H_    0.018830 0.792532 0.543785 0.292619
H22   H     H_    0.869711 0.689554 0.475306 0.217437
H23   H     H_    0.677763 0.719941 0.584356 0.179043
H24   H     H_    0.880998 0.669329 0.583414 0.241794
H25   H     H_    0.640240 0.268653 0.310858 0.241448
H26   H     H_    0.507992 0.328109 0.279289 0.274250
H27   H     H_    0.618207 0.295603 0.204650 0.261687
H28   H     H_    0.790932 0.382900 0.261260 0.261615
H29   H     H_    0.703179 0.412819 0.343036 0.212097
H30   H     H_    0.332101 0.602424 0.711468 0.239024
H31   H     H_    0.332489 0.615190 0.820079 0.302340
H32   H     H_    0.339512 0.705135 0.751927 0.251816
H33   H     H_    0.545839 0.689919 0.809612 0.275422
H34   H     H_    0.338691 0.281659 0.402615 0.166012
H35   H     H_    0.557930 0.671128 0.705098 0.222173
H36   H     H_    0.760856 0.341629 0.094237 0.367710
H37   H     H_    0.772075 0.745160 0.944273 0.398230
H38   H     H_    0.834414 0.267640 0.956625 0.405827
H39   H     H_    0.337972 0.746567 0.030453 0.400148
H40   H     H_    0.295117 0.391587 0.702746 0.245936
H41   H     H_    0.257153 0.287973 0.741914 0.257377
H42   H     H_    0.280277 0.372497 0.811434 0.286422
H43   H     H_    0.489170 0.304345 0.701916 0.220872
H44   H     H_    0.458026 0.278070 0.805404 0.270401
H45   H     H_    0.631220 0.270528 0.576843 0.145809
H46   H     H_    0.380962 0.760466 0.279186 0.239618
H47   H     H_    0.525376 0.711508 0.306009 0.258304
H48   H     H_    0.501080 0.747057 0.203126 0.303217
H49   H     H_    0.307887 0.643151 0.196045 0.269155
H50   H     H_    0.339513 0.606849 0.293397 0.173063
H51   H     H_    0.352505 0.728298 0.436072 0.147164
H52   H     H_    0.623781 0.117622 0.573129 0.224553
H53   H     H_    0.359950 0.881238 0.439024 0.219110
H54   H     H_    0.899047 0.854602 0.687995 0.403463
N1    N     N_2   0.665453 0.472481 0.979212 -0.050387
N2    N     N_2   0.648351 0.540860 0.010361 -0.007746
N3    N     N_R   0.515540 0.716920 0.509720 -0.109464
N4    N     N_R   0.484460 0.283080 0.490280 -0.103721
N5    N     N_2   0.539708 0.981009 0.519949 -0.098035
N6    N     N_2   0.460983 0.019182 0.478405 -0.099376
O1    O     O_R   0.494440 0.422540 0.612660 -0.614276
O2    O     O_2   0.687525 0.948807 0.674777 -0.254014
O3    O     O_3   0.828132 0.822012 0.662065 -0.549641
O4    O     O_2   0.346890 0.051601 0.313302 -0.222958
O5    O     O_2   0.181448 0.057517 0.417012 -0.285036
O6    O     O_3   0.208391 0.179939 0.309983 -0.510685
O7    O     O_2   0.899782 0.506851 0.047802 -0.147120
O8    O     O_2   0.939608 0.483165 0.192016 -0.306586
O9    O     O_3   0.849219 0.358345 0.109826 -0.477472
O10   O     O_2   0.883415 0.602888 0.906447 -0.216584
O11   O     O_2   0.801126 0.682815 0.791324 -0.298395
O12   O     O_R   0.505560 0.577460 0.387340 -0.612140
O13   O     O_3   0.702960 0.702265 0.934259 -0.493845
O14   O     O_2   0.570807 0.271845 0.959123 -0.271072
O15   O     O_2   0.677477 0.244598 0.829998 -0.310746
O16   O     O_3   0.807800 0.323660 0.939865 -0.498369
O17   O     O_2   0.447766 0.612537 0.962061 -0.281016
O18   O     O_2   0.277636 0.585595 0.060933 -0.262140
O19   O     O_3   0.408594 0.727173 0.064489 -0.536174
O20   O     O_R   0.504420 0.561850 0.618900 -0.612898
O21   O     O_R   0.495580 0.438150 0.381100 -0.607830
O22   O     O_R   0.681060 0.430360 0.496900 -0.629767
O23   O     O_R   0.318940 0.569640 0.503100 -0.621320
O24   O     O_R   0.691040 0.569670 0.503140 -0.630586
O25   O     O_R   0.308960 0.430330 0.496860 -0.627971
O26   O     O_2   0.828116 0.945331 0.556070 -0.281655
S1    S     S_3+6 0.742945 0.893288 0.613389 0.031034
S2    S     S_3+6 0.279839 0.108541 0.367950 0.051348
S3    S     S_3+6 0.850091 0.461670 0.123517 0.089269
S4    S     S_3+6 0.765694 0.636310 0.869514 0.057580
S5    S     S_3+6 0.664760 0.306495 0.896240 0.026068
S6    S     S_3+6 0.409940 0.624300 0.048944 0.057326
Zn1   Zn    Zn3+2 0.493340 0.406980 0.495830 0.925294
Zn2   Zn    Zn3+2 0.506660 0.593020 0.504170 0.927422

loop_
_geom_bond_atom_site_label_1
_geom_bond_atom_site_label_2
_ccdc_geom_bond_type
C44   C49   S    
C15   C18   S    
C22   C48   A    
C16   C21   S    
C23   C45   A    
C12   O21   A    
C37   H19   S    
C42   H43   S    
C13   O25   A    
C31   H11   S    
C10   N4    A    
C16   H1    S    
O12   Zn2   S    
C11   O22   A    
C41   H30   S    
C39   H25   S    
C47   C49   A    
C21   C36   S    
C30   H4    S    
C47   S6    S    
C11   C19   S    
C13   C18   S    
C39   H27   S    
O11   S4    D    
C2    H45   S    
C19   C21   S    
C24   C26   A    
C25   C40   S    
C38   C39   S    
C44   H49   S    
C38   H29   S    
C35   H15   S    
C23   N1    S    
C17   C20   S    
H39   O19   S    
C8    S2    S    
C10   H34   S    
H38   O16   S    
C17   C19   S    
O15   S5    D    
C22   C25   A    
C4    H52   S    
C35   H14   S    
O10   S4    D    
C32   H8    S    
O20   Zn2   S    
O1    Zn1   S    
O22   Zn1   S    
O25   Zn1   S    
C46   H48   S    
C28   C34   A    
C1    C22   S    
C37   H20   S    
C45   S5    S    
C6    N6    S    
C40   H33   S    
O7    S3    D    
C28   S3    S    
C9    H23   S    
C14   C19   S    
C3    C50   A    
C44   C46   S    
O6    S2    S    
H2    O6    S    
C30   H3    S    
C43   H40   S    
C34   N2    S    
C14   C20   S    
C4    C6    A    
C1    O20   A    
C11   O24   A    
C5    C7    A    
C26   C38   S    
C6    C8    A    
O19   S6    S    
C38   H28   S    
C35   H16   S    
O13   S4    S    
C43   H41   S    
O17   S6    D    
C40   H35   S    
C2    C4    A    
C29   C30   S    
C31   H13   S    
C17   H12   S    
C31   C32   S    
O5    S2    D    
C41   H31   S    
C46   H46   S    
C42   C48   S    
C39   H26   S    
H36   O9    S    
C36   H24   S    
C20   C33   S    
C16   C18   S    
C40   C41   S    
C46   H47   S    
C29   H7    S    
C23   C27   A    
C37   H21   S    
C50   N3    A    
C14   C16   S    
O14   S5    D    
C9    N3    A    
C42   C43   S    
C32   H10   S    
C14   C29   S    
O8    S3    D    
O21   Zn1   S    
C33   H17   S    
C7    S1    S    
C30   H5    S    
C45   C48   A    
C3    H53   S    
C24   C49   A    
C15   C17   S    
C36   C37   S    
O23   Zn2   S    
C42   H44   S    
C13   O23   A    
O2    S1    D    
C43   H42   S    
O26   S1    D    
C3    C5    A    
C15   C31   S    
C29   H6    S    
C25   C27   A    
N1    N2    D    
C12   C24   S    
O16   S5    S    
C26   C28   A    
C27   S4    S    
O3    S1    S    
O9    S3    S    
N5    N6    D    
C1    O1    A    
H37   O13   S    
C44   H50   S    
C5    N5    S    
C41   H32   S    
C2    N4    A    
C33   C35   S    
C18   C20   S    
O4    S2    D    
O24   Zn2   S    
H54   O3    S    
C7    C9    A    
C15   C21   S    
C12   O12   A    
C50   H51   S    
C8    C10   A    
C34   C47   A    
C32   H9    S    
N3    Zn2   S    
O18   S6    D    
N4    Zn1   S    
C36   H22   S    
C33   H18   S    
