data_mof_unit_37999.cif
_audit_creation_date              2012-12-10T18:01:14-0500
_audit_creation_method            fapswitch 2.2
_symmetry_space_group_name_H-M    P1
_symmetry_Int_Tables_number       1
_space_group_crystal_system       triclinic
_cell_length_a                    9.494871
_cell_length_b                    10.879127
_cell_length_c                    17.364657
_cell_angle_alpha                 90.00842
_cell_angle_beta                  86.04735
_cell_angle_gamma                 88.995121
_cell_volume                      1789.15457799

loop_
_atom_site_label
_atom_site_type_symbol
_atom_type_description
_atom_site_fract_x
_atom_site_fract_y
_atom_site_fract_z
_atom_type_partial_charge
C1    C     C_R   0.498496 0.737971 0.500165 0.810271
C2    C     C_R   0.501504 0.262029 0.499835 0.810272
C3    C     C_R   0.620640 0.931760 0.515011 -0.305502
C4    C     C_R   0.379360 0.068240 0.484989 -0.305503
C5    C     C_R   0.626914 0.059044 0.513636 0.260082
C6    C     C_R   0.373086 0.940956 0.486364 0.260082
C7    C     C_R   0.504233 0.128181 0.499185 -0.101672
C8    C     C_R   0.495767 0.871819 0.500815 -0.101672
C9    C     C_R   0.917260 0.560194 0.556380 -0.016966
C10   C     C_R   0.082740 0.439806 0.443620 -0.016966
C11   C     C_R   0.066180 0.559899 0.556450 -0.020856
C12   C     C_R   0.933820 0.440101 0.443550 -0.020856
C13   C     C_R   0.481952 0.496040 0.649917 0.799809
C14   C     C_R   0.518048 0.503960 0.350083 0.799809
C15   C     C_R   0.472466 0.486287 0.734224 -0.060319
C16   C     C_R   0.527534 0.513713 0.265776 -0.060318
C17   C     C_R   0.587652 0.441145 0.774160 0.237970
C18   C     C_R   0.412348 0.558855 0.225840 0.237970
C19   C     C_R   0.576956 0.440248 0.854595 -0.219100
C20   C     C_R   0.423045 0.559752 0.145405 -0.219101
C21   C     C_R   0.453459 0.482763 0.895670 0.154937
C22   C     C_R   0.546541 0.517236 0.104330 0.154938
C23   C     C_R   0.337264 0.520834 0.856021 -0.176299
C24   C     C_R   0.662736 0.479165 0.143979 -0.176299
C25   C     C_R   0.346773 0.523130 0.775812 -0.257262
C26   C     C_R   0.653227 0.476869 0.224188 -0.257262
C27   C     C_2   0.443603 0.488380 0.980114 -0.213685
C28   C     C_2   0.556398 0.511619 0.019886 -0.213685
Cu1   Cu    Cu3+1 0.359340 0.499980 0.500000 0.956306
Cu2   Cu    Cu3+1 0.640660 0.500020 0.500000 0.956306
H1    H     H_    0.743254 0.443440 0.253633 0.154972
H2    H     H_    0.256745 0.556559 0.746367 0.154972
H3    H     H_    0.659752 0.523536 0.990285 0.141376
H4    H     H_    0.340248 0.476463 0.009714 0.141376
H5    H     H_    0.240494 0.552178 0.887210 0.127974
H6    H     H_    0.759505 0.447820 0.112790 0.127975
H7    H     H_    0.115668 0.608002 0.601604 0.112581
H8    H     H_    0.884332 0.391998 0.398396 0.112581
N1    N     N_R   0.147930 0.499970 0.499980 -0.149843
N2    N     N_R   0.852070 0.500030 0.500020 -0.149843
O1    O     O_R   0.381260 0.680340 0.500000 -0.543591
O2    O     O_R   0.618740 0.319660 0.500000 -0.543591
O3    O     O_R   0.618830 0.680370 0.500010 -0.598306
O4    O     O_R   0.381170 0.319630 0.499990 -0.598307
O5    O     O_R   0.367440 0.500000 0.613600 -0.602333
O6    O     O_R   0.632560 0.500000 0.386400 -0.602333
O7    O     O_R   0.605010 0.500030 0.613600 -0.552653
O8    O     O_R   0.394990 0.499970 0.386400 -0.552653
N3    N     N_2   0.714351 0.396342 0.734309 -0.417848
H9    H     H_    0.804005 0.411595 0.763060 0.235606
C29   C     C_3   0.707766 0.270648 0.707864 -0.642278
H10   H     H_    0.807823 0.245704 0.674217 0.226892
H11   H     H_    0.619233 0.259572 0.669968 0.232505
H12   H     H_    0.693581 0.207345 0.757924 0.202943
N4    N     N_2   0.285649 0.603658 0.265691 -0.417848
H13   H     H_    0.195995 0.588407 0.236939 0.235606
C30   C     C_3   0.292236 0.729352 0.292136 -0.642278
H14   H     H_    0.192179 0.754297 0.325783 0.226892
H15   H     H_    0.306424 0.792655 0.242077 0.202943
H16   H     H_    0.380768 0.740426 0.330033 0.232506
H17   H     H_    0.335168 0.595924 0.115336 0.124110
H18   H     H_    0.664833 0.404075 0.884664 0.124110
H19   H     H_    0.715223 0.879871 0.526890 0.166601
H20   H     H_    0.284777 0.120129 0.473110 0.166601
N5    N     N_2   0.756261 0.115715 0.528416 -0.405279
H21   H     H_    0.801876 0.078888 0.575672 0.234196
C31   C     C_3   0.856427 0.120332 0.461859 -0.677634
H22   H     H_    0.890539 0.025882 0.443526 0.211645
H23   H     H_    0.950905 0.171513 0.476896 0.216419
H24   H     H_    0.808712 0.168159 0.413199 0.231054
N6    N     N_2   0.243738 0.884285 0.471585 -0.405279
H25   H     H_    0.198123 0.921112 0.424328 0.234196
C32   C     C_3   0.143573 0.879668 0.538142 -0.677633
H26   H     H_    0.109462 0.974118 0.556475 0.211645
H27   H     H_    0.191288 0.831840 0.586801 0.231054
H28   H     H_    0.049094 0.828487 0.523104 0.216419
H29   H     H_    0.854555 0.608891 0.601345 0.123175
H30   H     H_    0.145444 0.391109 0.398655 0.123175

loop_
_geom_bond_atom_site_label_1
_geom_bond_atom_site_label_2
_ccdc_geom_bond_type
N4    H13   S    
C1    C8    S    
C32   H26   S    
C2    C7    S    
C10   H30   S    
C14   O6    A    
C24   H6    S    
C22   C24   A    
C19   C21   A    
C24   C26   A    
C30   H15   S    
C19   H18   S    
C20   H17   S    
C11   H7    S    
C13   O7    A    
C1    O3    A    
C2    O4    A    
N3    C29   S    
C25   H2    S    
C21   C27   S    
C26   H1    S    
C27   H4    S    
C22   C28   S    
C32   H27   S    
C4    C7    A    
C21   C23   A    
C16   C26   A    
C6    N6    S    
Cu1   O8    S    
C31   H22   S    
Cu2   O7    S    
C5    N5    S    
C3    C8    A    
C17   N3    S    
C5    C7    A    
C30   H16   S    
C14   O8    A    
N5    C31   S    
C9    N2    A    
C29   H10   S    
Cu1   O5    S    
C10   N1    A    
C29   H11   S    
C12   N2    A    
Cu1   Cu2   S    
Cu1   N1    S    
Cu2   N2    S    
C9    H29   S    
C11   N1    A    
C9    C11   A    
C10   C12   A    
C18   N4    S    
C1    O1    A    
C20   C22   A    
C28   H3    S    
N5    H21   S    
C23   H5    S    
C13   C15   S    
Cu1   O4    S    
C32   H28   S    
C14   C16   S    
Cu2   O3    S    
C4    C6    A    
N6    C32   S    
C15   C17   A    
Cu1   O1    S    
Cu2   O6    S    
C3    C5    A    
C6    C8    A    
C3    H19   S    
C4    H20   S    
C29   H12   S    
C31   H24   S    
N4    C30   S    
N6    H25   S    
C13   O5    A    
C30   H14   S    
C2    O2    A    
C17   C19   A    
C18   C20   A    
C23   C25   A    
C12   H8    S    
C15   C25   A    
C16   C18   A    
N3    H9    S    
C27   C28   D    
Cu2   O2    S    
C31   H23   S    
