data_mof_unit_38169.cif
_audit_creation_date              2012-12-10T18:23:55-0500
_audit_creation_method            fapswitch 2.2
_symmetry_space_group_name_H-M    P1
_symmetry_Int_Tables_number       1
_space_group_crystal_system       triclinic
_cell_length_a                    15.714004
_cell_length_b                    14.901378
_cell_length_c                    14.015749
_cell_angle_alpha                 90.005019
_cell_angle_beta                  90.34227
_cell_angle_gamma                 89.345767
_cell_volume                      3281.65967324

loop_
_atom_site_label
_atom_site_type_symbol
_atom_type_description
_atom_site_fract_x
_atom_site_fract_y
_atom_site_fract_z
_atom_type_partial_charge
C1    C     C_R   0.498613 0.327031 0.499937 0.947518
C2    C     C_R   0.500885 0.673037 0.499796 0.957860
C3    C     C_R   0.501673 0.768327 0.499043 -0.161717
C4    C     C_R   0.497433 0.231830 0.499821 -0.170785
C5    C     C_R   0.573325 0.813155 0.465677 0.453275
C6    C     C_R   0.420869 0.187147 0.514417 0.469204
C7    C     C_R   0.575945 0.906492 0.476898 -0.043124
C8    C     C_R   0.423435 0.093769 0.524666 -0.048407
C9    C     C_R   0.501091 0.953275 0.504480 -0.036563
C10   C     C_R   0.500185 0.046878 0.505117 -0.042638
C11   C     C_R   0.426969 0.906454 0.530477 0.031811
C12   C     C_R   0.575902 0.093650 0.485565 0.045726
C13   C     C_R   0.651529 0.953548 0.462273 -0.312929
C14   C     C_R   0.351547 0.046788 0.554355 -0.295888
C15   C     C_R   0.652407 0.046689 0.468836 0.466123
C16   C     C_R   0.352272 0.953439 0.556040 0.491037
C17   C     C_R   0.446603 0.557131 0.797833 -0.043954
C18   C     C_R   0.553798 0.443308 0.202214 -0.059436
C19   C     C_R   0.553724 0.443270 0.798528 -0.045410
C20   C     C_R   0.446341 0.556800 0.201513 -0.073430
C21   C     C_R   0.555185 0.442069 0.899204 0.015606
C22   C     C_R   0.445323 0.558485 0.100874 0.019099
C23   C     C_R   0.337787 0.499852 0.499721 0.905737
C24   C     C_R   0.662253 0.499352 0.500189 0.924714
C25   C     C_R   0.500339 0.500375 0.949436 0.083605
C26   C     C_R   0.500316 0.500340 0.050648 0.079053
C27   C     C_R   0.445443 0.558638 0.898494 0.013533
C28   C     C_R   0.555227 0.442094 0.101585 0.015283
C29   C     C_R   0.609874 0.384219 0.950613 -0.200786
C30   C     C_R   0.390896 0.616605 0.049491 -0.203693
C31   C     C_R   0.609919 0.384261 0.050901 -0.202646
C32   C     C_R   0.390948 0.616680 0.949201 -0.198741
C33   C     C_3   0.973667 0.423342 0.555165 -0.296758
C34   C     C_3   0.026635 0.558023 0.440371 -0.325448
C35   C     C_3   0.029347 0.413152 0.465679 0.581654
C36   C     C_3   0.971369 0.568118 0.530047 0.600190
C37   C     C_1   0.248991 0.496897 0.499030 -0.177588
C38   C     C_1   0.751165 0.495389 0.500136 -0.170315
C39   C     C_3   0.028405 0.503797 0.588513 -0.309664
C40   C     C_3   0.971789 0.477681 0.407089 -0.345979
C41   C     C_3   0.083022 0.492158 0.498366 0.077845
C42   C     C_3   0.917321 0.489337 0.497484 0.071801
C43   C     C_1   0.173787 0.494224 0.498532 -0.004838
C44   C     C_1   0.826441 0.491843 0.498979 0.004738
C45   C     C_R   0.429583 0.813495 0.531357 -0.336889
C46   C     C_R   0.573869 0.186594 0.485128 -0.335116
H1    H     H_    0.652575 0.338912 0.913285 0.141369
H2    H     H_    0.348227 0.661931 0.086838 0.140474
H3    H     H_    0.652653 0.338988 0.088794 0.143456
H4    H     H_    0.348303 0.662057 0.911319 0.146346
H5    H     H_    0.949816 0.367693 0.599943 0.163977
H6    H     H_    0.050285 0.613560 0.395257 0.150755
H7    H     H_    0.946013 0.466826 0.334137 0.149171
H8    H     H_    0.053881 0.514976 0.661488 0.154296
H9    H     H_    0.374979 0.775449 0.554494 0.181725
H10   H     H_    0.631289 0.224530 0.472655 0.187135
H11   H     H_    0.710550 0.918590 0.446399 0.187655
H12   H     H_    0.294454 0.082316 0.576309 0.190346
H13   H     H_    0.404914 0.601415 0.757347 0.134735
H14   H     H_    0.595548 0.399114 0.242721 0.137513
H15   H     H_    0.595372 0.398954 0.758581 0.131269
H16   H     H_    0.404609 0.600996 0.241485 0.131772
N1    N     N_R   0.500040 0.500070 0.750030 -0.104452
N2    N     N_R   0.499960 0.499930 0.249970 -0.108532
O1    O     O_R   0.500020 0.367860 0.580280 -0.605627
O2    O     O_R   0.499980 0.632140 0.419720 -0.638424
O3    O     O_R   0.500020 0.367840 0.419730 -0.643096
O4    O     O_R   0.499980 0.632160 0.580270 -0.618029
O5    O     O_R   0.376770 0.500000 0.580260 -0.606611
O6    O     O_R   0.623230 0.500000 0.419740 -0.631220
O7    O     O_R   0.376780 0.499980 0.419710 -0.636318
O8    O     O_R   0.623220 0.500020 0.580290 -0.614911
Zn1   Zn    Zn3+2 0.499990 0.500020 0.607200 0.972653
Zn2   Zn    Zn3+2 0.500010 0.499980 0.392800 0.925025
O9    O     O_3   0.067757 0.331307 0.437395 -0.659179
C47   C     C_3   0.014586 0.286722 0.371865 0.059590
H17   H     H_    0.017540 0.320960 0.301404 0.150835
H18   H     H_    0.947354 0.285703 0.396755 0.135462
C48   C     C_3   0.045786 0.189795 0.360377 -0.342349
H19   H     H_    0.114130 0.188688 0.341216 0.228809
H20   H     H_    0.039137 0.153672 0.429189 0.225211
C49   C     C_3   0.995791 0.141220 0.282673 -0.967784
H21   H     H_    0.926832 0.141335 0.299486 0.270530
H22   H     H_    0.018640 0.070668 0.277256 0.269394
H23   H     H_    0.005191 0.174452 0.212645 0.268241
O10   O     O_3   0.933534 0.648528 0.563221 -0.634872
C50   C     C_3   0.996244 0.712603 0.585938 0.071336
H24   H     H_    0.976121 0.777320 0.553092 0.170022
H25   H     H_    0.060930 0.696576 0.557670 0.111624
C51   C     C_3   0.001219 0.725081 0.694119 -0.343830
H26   H     H_    0.937067 0.742817 0.721855 0.238667
H27   H     H_    0.022461 0.661355 0.728212 0.212661
C52   C     C_3   0.063221 0.799117 0.721034 -0.938696
H28   H     H_    0.127792 0.783310 0.693377 0.275843
H29   H     H_    0.066988 0.805047 0.799907 0.265569
H30   H     H_    0.040915 0.864393 0.691321 0.261572
O11   O     O_3   0.642745 0.763784 0.432485 -0.647154
C53   C     C_3   0.657383 0.781214 0.334242 0.048611
H31   H     H_    0.727393 0.783492 0.324054 0.175969
H32   H     H_    0.631182 0.846777 0.308388 0.128069
C54   C     C_3   0.621320 0.706101 0.272028 -0.303688
H33   H     H_    0.642361 0.639906 0.300554 0.263515
H34   H     H_    0.550770 0.710184 0.272990 0.225048
C55   C     C_3   0.650415 0.714023 0.168737 -0.972450
H35   H     H_    0.629274 0.779353 0.138063 0.267493
H36   H     H_    0.622235 0.659106 0.125759 0.275836
H37   H     H_    0.720843 0.708401 0.164661 0.267058
O12   O     O_3   0.345530 0.236345 0.521970 -0.650405
C56   C     C_3   0.293935 0.223916 0.439455 0.019718
H38   H     H_    0.229518 0.250674 0.456278 0.220928
H39   H     H_    0.285662 0.151977 0.420802 0.125023
C57   C     C_3   0.327970 0.274814 0.352665 -0.342014
H40   H     H_    0.338140 0.345672 0.372247 0.264379
H41   H     H_    0.389621 0.244760 0.329948 0.218671
C58   C     C_3   0.266105 0.272208 0.268527 -0.946539
H42   H     H_    0.252393 0.201713 0.248415 0.259334
H43   H     H_    0.294725 0.306461 0.206310 0.271445
H44   H     H_    0.205912 0.307781 0.286895 0.282507
O13   O     O_3   0.727298 0.091778 0.452494 -0.653327
C59   C     C_3   0.773919 0.095000 0.538858 0.063566
H45   H     H_    0.791215 0.025967 0.563450 0.148035
H46   H     H_    0.736399 0.129914 0.595390 0.141124
C60   C     C_3   0.855616 0.146953 0.522224 -0.328336
H47   H     H_    0.893122 0.112465 0.466004 0.232820
H48   H     H_    0.839252 0.215916 0.497471 0.217677
C61   C     C_3   0.909647 0.152783 0.612743 -0.980426
H49   H     H_    0.873878 0.188255 0.669821 0.265121
H50   H     H_    0.968497 0.190661 0.597576 0.274311
H51   H     H_    0.927975 0.084492 0.637822 0.267672
O14   O     O_3   0.280667 0.908698 0.586542 -0.648017
C62   C     C_3   0.226803 0.890208 0.507679 0.057374
H52   H     H_    0.201631 0.821480 0.517741 0.156518
H53   H     H_    0.259970 0.889810 0.437315 0.119694
C63   C     C_3   0.151724 0.956695 0.505178 -0.336456
H54   H     H_    0.119930 0.957488 0.575743 0.235234
H55   H     H_    0.174958 0.025299 0.490084 0.202790
C64   C     C_3   0.086950 0.931481 0.428516 -0.984261
H56   H     H_    0.115976 0.936361 0.356664 0.266760
H57   H     H_    0.031413 0.978070 0.431951 0.271319
H58   H     H_    0.064258 0.862033 0.439776 0.255683

loop_
_geom_bond_atom_site_label_1
_geom_bond_atom_site_label_2
_ccdc_geom_bond_type
C50   H24   S    
C20   N2    A    
C61   H49   S    
C23   O5    A    
C36   C42   S    
C47   C48   S    
C62   C63   S    
C63   C64   S    
C57   H41   S    
O11   C53   S    
C24   O6    A    
C60   H47   S    
C39   C41   S    
C4    C46   A    
C64   H57   S    
C35   O9    S    
C33   C39   S    
C29   H1    S    
C34   C40   S    
C33   C42   S    
C30   H2    S    
C19   C21   A    
C47   H18   S    
C2    O4    A    
C56   H39   S    
C8    C10   A    
C60   H48   S    
C39   H8    S    
C13   H11   S    
C58   H42   S    
O2    Zn2   S    
O1    Zn1   S    
O12   C56   S    
N2    Zn2   S    
C55   H35   S    
C52   H28   S    
O14   C62   S    
C1    O1    A    
C19   N1    A    
C58   H43   S    
O6    Zn2   S    
C24   C38   S    
O5    Zn1   S    
C16   O14   S    
C9    C10   A    
C59   C60   S    
C40   C42   S    
C52   H29   S    
C41   C43   S    
C34   C41   S    
C42   C44   S    
C31   H3    S    
C55   H36   S    
C57   H40   S    
C59   H46   S    
C28   C31   A    
C14   H12   S    
C64   H58   S    
C17   C27   A    
C54   H33   S    
C23   O7    A    
C18   C28   A    
C47   H17   S    
C4    C6    A    
C56   C57   S    
C5    C7    A    
O10   C50   S    
C60   C61   S    
C63   H55   S    
N1    Zn1   S    
C61   H51   S    
C36   O10   S    
O4    Zn1   S    
C23   C37   S    
C21   C29   A    
C3    C45   A    
C37   C43   T    
O9    C47   S    
C38   C44   T    
C48   C49   S    
C11   C16   A    
C51   H27   S    
C12   C15   A    
C58   H44   S    
O3    Zn2   S    
C61   H50   S    
C9    C11   A    
C32   H4    S    
C10   C12   A    
C17   H13   S    
C12   C46   A    
C5    O11   S    
C40   H7    S    
C52   H30   S    
C49   H22   S    
C13   C15   A    
C14   C16   A    
C11   C45   A    
C33   H5    S    
C62   H52   S    
C53   C54   S    
C3    C5    A    
C59   H45   S    
C24   O8    A    
C51   C52   S    
C48   H20   S    
C18   H14   S    
C7    C9    A    
C21   C25   A    
C8    C14   A    
C22   C30   A    
C27   C32   A    
C34   H6    S    
C36   C39   S    
C20   C22   A    
O8    Zn1   S    
C62   H53   S    
O7    Zn2   S    
C6    C8    A    
O13   C59   S    
C2    O2    A    
C63   H54   S    
C1    O3    A    
C25   C27   A    
C49   H23   S    
C64   H56   S    
C26   C28   A    
C1    C4    S    
C50   H25   S    
C35   C40   S    
C25   C26   A    
C29   C31   A    
C56   H38   S    
C17   N1    A    
C30   C32   A    
C18   N2    A    
C51   H26   S    
C19   H15   S    
C33   C35   S    
C15   O13   S    
C2    C3    S    
C34   C36   S    
C57   C58   S    
C20   H16   S    
C35   C41   S    
C53   H32   S    
C48   H19   S    
C7    C13   A    
C45   H9    S    
C54   H34   S    
C53   H31   S    
C22   C26   A    
C50   C51   S    
C46   H10   S    
C6    O12   S    
C54   C55   S    
C49   H21   S    
C55   H37   S    
