data_mof_unit_34618.cif
_audit_creation_date              2012-12-11T14:15:40-0500
_audit_creation_method            fapswitch 2.2
_symmetry_space_group_name_H-M    P1
_symmetry_Int_Tables_number       1
_space_group_crystal_system       triclinic
_cell_length_a                    11.164641
_cell_length_b                    12.719119
_cell_length_c                    23.591555
_cell_angle_alpha                 90.718338
_cell_angle_beta                  96.817671
_cell_angle_gamma                 68.510558
_cell_volume                      3093.44309142

loop_
_atom_site_label
_atom_site_type_symbol
_atom_type_description
_atom_site_fract_x
_atom_site_fract_y
_atom_site_fract_z
_atom_type_partial_charge
C1    C     C_R   0.148970 0.616755 0.428774 0.543674
C2    C     C_R   0.587956 0.608109 0.321162 0.096702
C3    C     C_R   0.721762 0.723278 0.320057 -0.145195
C4    C     C_R   0.685586 0.745168 0.262007 0.034358
C5    C     C_R   0.600927 0.697307 0.233512 0.014896
C6    C     C_R   0.573170 0.710134 0.175180 -0.116129
C7    C     C_R   0.710882 0.819544 0.171901 -0.141538
C8    C     C_R   0.738242 0.808410 0.231314 -0.131012
C9    C     C_1   0.236405 0.160902 0.123358 -0.002734
C10   C     C_2   0.181157 0.227387 0.227400 -0.106444
C11   C     C_2   0.158537 0.158430 0.264385 0.109872
C12   C     C_R   0.747462 0.605566 0.405029 0.556862
C13   C     C_1   0.134336 0.195105 0.321588 0.021353
C14   C     C_1   0.211107 0.194094 0.170285 -0.051639
C15   C     C_1   0.116958 0.230348 0.368893 -0.005967
C16   C     C_1   0.167883 0.747604 0.122983 -0.028152
C17   C     C_2   0.152700 0.670230 0.225139 0.096344
C18   C     C_2   0.216903 0.696228 0.271856 -0.072138
C19   C     C_1   0.207645 0.661404 0.328932 -0.013949
C20   C     C_1   0.158805 0.712755 0.169133 -0.058971
C21   C     C_1   0.190411 0.637030 0.375867 -0.000552
C22   C     C_1   0.628299 0.756552 0.865015 -0.002145
C23   C     C_R   0.101228 0.282244 0.423390 0.540730
C24   C     C_2   0.700337 0.713157 0.761459 -0.120111
C25   C     C_2   0.615682 0.700004 0.719246 -0.116744
C26   C     C_1   0.653992 0.668096 0.663250 -0.039768
C27   C     C_1   0.664152 0.737823 0.818325 -0.044047
C28   C     C_1   0.692031 0.639254 0.617616 0.004874
C29   C     C_R   0.194125 0.175174 0.852745 0.065246
C30   C     C_R   0.105617 0.234461 0.640918 -0.009647
C31   C     C_R   0.037041 0.137380 0.709732 -0.078917
C32   C     C_R   0.036275 0.166187 0.652806 -0.017234
C33   C     C_R   0.164734 0.279996 0.684879 -0.123364
C34   C     C_R   0.149863 0.616995 0.591024 0.559201
C35   C     C_R   0.163396 0.253156 0.740961 -0.008112
C36   C     C_R   0.104004 0.177504 0.753842 0.058190
C37   C     C_R   0.119043 0.138188 0.809946 0.048051
C38   C     C_R   0.239798 0.260559 0.840142 0.074602
C39   C     C_R   0.224336 0.298857 0.783999 -0.131923
C40   C     C_R   0.125970 0.746716 0.852546 0.004073
C41   C     C_R   0.190931 0.638924 0.649938 0.045376
C42   C     C_R   0.301024 0.560729 0.743303 -0.161469
C43   C     C_R   0.289092 0.553469 0.684056 -0.171517
C44   C     C_R   0.110031 0.735495 0.675679 0.086214
C45   C     C_R   0.750227 0.602201 0.566162 0.541302
C46   C     C_R   0.108111 0.733366 0.734640 0.046948
C47   C     C_R   0.207937 0.647953 0.768877 0.025073
C48   C     C_R   0.216634 0.655311 0.828074 -0.128907
C49   C     C_R   0.015231 0.818688 0.818740 -0.130766
C50   C     C_R   0.008443 0.814746 0.760047 -0.143734
C51   C     C_R   0.265902 0.109818 0.069507 0.548346
C52   C     C_R   0.593204 0.777388 0.082729 0.541208
C53   C     C_R   0.189880 0.787867 0.069822 0.543871
C54   C     C_R   0.241074 0.112876 0.907035 0.577556
C55   C     C_R   0.573560 0.776464 0.918102 0.545617
C56   C     C_R   0.099920 0.278939 0.584613 0.519810
C57   C     C_R   0.163270 0.785686 0.907660 0.537175
C58   C     C_R   0.631318 0.767142 0.143849 0.020437
C59   C     C_R   0.679462 0.649736 0.349022 0.037799
C60   C     C_R   0.548801 0.633016 0.263064 -0.121944
Cr1   Cr    Cr6+3 0.189770 0.415650 0.511620 1.040850
Cr2   Cr    Cr6+3 0.930400 0.667320 0.496770 1.048377
Cr3   Cr    Cr6+3 0.879870 0.417010 0.491650 1.059166
Cr4   Cr    Cr6+3 0.149500 0.973980 0.985330 1.015349
Cr5   Cr    Cr6+3 0.457000 0.976510 0.994660 1.043711
Cr6   Cr    Cr6+3 0.411170 0.724270 0.995270 1.022065
H1    H     H_    0.505741 0.674339 0.154061 0.137833
H2    H     H_    0.518191 0.709800 0.727015 0.143401
H3    H     H_    0.798245 0.702280 0.753891 0.140694
H4    H     H_    0.987588 0.081816 0.719221 0.179276
H5    H     H_    0.265227 0.360417 0.773839 0.112550
H6    H     H_    0.210512 0.338719 0.675404 0.137062
H7    H     H_    0.299941 0.596402 0.854402 0.122973
H8    H     H_    0.752644 0.866900 0.148066 0.127516
H9    H     H_    0.941229 0.886889 0.837134 0.148751
H10   H     H_    0.378773 0.495361 0.769122 0.112680
H11   H     H_    0.926757 0.878013 0.735253 0.125752
H12   H     H_    0.353472 0.479440 0.665107 0.138264
H13   H     H_    0.482545 0.597875 0.240372 0.105527
H14   H     H_    0.803033 0.846091 0.252986 0.126434
H15   H     H_    0.791726 0.755963 0.341438 0.143064
H16   H     H_    0.178986 0.310225 0.240476 0.117911
H17   H     H_    0.272195 0.749819 0.267676 0.108073
O1    O     O_R   0.196340 0.303200 0.448500 -0.501880
O2    O     O_R   0.811960 0.658090 0.547150 -0.496200
O3    O     O_R   0.757930 0.506140 0.547110 -0.499444
O4    O     O_R   0.988670 0.321620 0.556040 -0.503713
O5    O     O_3   0.000020 0.499990 0.500010 -0.260719
O6    O     O_R   0.113660 0.883270 0.047820 -0.503949
O7    O     O_R   0.186930 0.068530 0.043990 -0.495645
O8    O     O_R   0.377770 0.089040 0.054220 -0.501296
O9    O     O_R   0.562800 0.872960 0.056970 -0.498076
O10   O     O_R   0.555390 0.700940 0.062700 -0.520973
O11   O     O_R   0.295020 0.731920 0.049950 -0.501884
O12   O     O_R   0.199310 0.519670 0.454880 -0.491324
O13   O     O_R   0.094290 0.884230 0.921550 -0.530399
O14   O     O_R   0.168980 0.069410 0.926940 -0.523126
O15   O     O_R   0.358400 0.089990 0.927950 -0.479833
O16   O     O_R   0.544850 0.873850 0.939920 -0.495302
O17   O     O_R   0.536020 0.701900 0.936430 -0.506810
O18   O     O_R   0.277070 0.732810 0.932890 -0.501418
O19   O     O_3   0.339220 0.891590 0.991750 -0.254947
O20   O     O_R   0.045660 0.691380 0.441680 -0.507042
O21   O     O_R   0.811930 0.659460 0.430950 -0.519545
O22   O     O_R   0.757900 0.507620 0.421760 -0.468540
O23   O     O_R   0.988630 0.322990 0.439840 -0.492258
O24   O     O_R   0.196380 0.301720 0.573850 -0.512830
O25   O     O_R   0.199350 0.518300 0.571080 -0.514790
O26   O     O_R   0.045700 0.689900 0.567030 -0.470207
N1    N     N_3   0.078989 0.599847 0.230099 -0.613240
H18   H     H_    0.984076 0.644123 0.211495 0.240619
H19   H     H_    0.117489 0.528547 0.205897 0.228648
N2    N     N_3   0.069397 0.052142 0.820994 -0.655053
H20   H     H_    0.002562 0.080346 0.850517 0.265046
H21   H     H_    0.146764 0.978230 0.835554 0.262556
N3    N     N_3   0.306051 0.305328 0.884040 -0.608548
H22   H     H_    0.398733 0.291349 0.873257 0.233897
H23   H     H_    0.256033 0.392737 0.884293 0.223604
C61   C     C_2   0.964468 0.124192 0.606680 0.230795
H24   H     H_    0.987861 0.121056 0.563208 0.125385
O27   O     O_2   0.876841 0.094000 0.616607 -0.522367
N4    N     N_3   0.031821 0.835325 0.641682 -0.576053
H25   H     H_    0.933739 0.849571 0.642590 0.258042
H26   H     H_    0.052563 0.903556 0.659061 0.246494
N5    N     N_3   0.539752 0.537408 0.351351 -0.585247
H27   H     H_    0.483589 0.587287 0.381171 0.226290
H28   H     H_    0.478394 0.509228 0.323626 0.230017
N6    N     N_3   0.161893 0.047712 0.249297 -0.613639
H29   H     H_    0.094623 0.055702 0.213209 0.241446
H30   H     H_    0.254256 0.000253 0.238565 0.235192

loop_
_geom_bond_atom_site_label_1
_geom_bond_atom_site_label_2
_ccdc_geom_bond_type
Cr5   O9    S    
C60   H13   S    
C1    C21   S    
Cr3   O5    S    
Cr6   O19   S    
C45   O2    A    
C35   C36   A    
C9    C51   S    
C24   C27   S    
Cr4   O7    S    
C4    C8    A    
C17   N1    S    
C7    C8    A    
C43   H12   S    
Cr4   O19   S    
C34   C41   S    
Cr5   O19   S    
C36   C37   A    
C19   C21   T    
Cr5   O15   S    
C12   O21   A    
C51   O7    A    
C5    C6    A    
C2    C60   A    
C37   N2    S    
C29   C54   S    
C40   C49   A    
C17   C20   S    
N3    H22   S    
Cr5   O8    S    
C18   C19   S    
Cr6   O17   S    
Cr1   O25   S    
C6    C58   A    
C16   C53   S    
C33   H6    S    
C51   O8    A    
N1    H18   S    
C12   C59   S    
C31   H4    S    
C31   C32   A    
C57   O13   A    
C29   C38   A    
C3    H15   S    
C49   H9    S    
C54   O14   A    
Cr3   O22   S    
C1    O20   A    
C7    C58   A    
C5    C60   A    
C1    O12   A    
Cr6   O11   S    
C15   C23   S    
N6    H29   S    
C41   C43   A    
Cr6   O18   S    
C25   H2    S    
Cr4   O6    S    
C44   C46   A    
C24   H3    S    
C17   C18   D    
C7    H8    S    
Cr2   O21   S    
C61   O27   D    
C38   C39   A    
Cr2   O2    S    
C28   C45   S    
C23   O1    A    
C24   C25   D    
Cr5   O16   S    
C10   C14   S    
C2    C59   A    
C56   O4    A    
C25   C26   S    
C23   O23   A    
C30   C56   S    
C10   H16   S    
C55   O17   A    
C35   C39   A    
C9    C14   T    
C56   O24   A    
Cr1   O5    S    
C38   N3    S    
C47   C48   A    
C16   C20   T    
C18   H17   S    
C52   O10   A    
Cr3   O23   S    
Cr4   O13   S    
C52   C58   S    
Cr6   O10   S    
Cr4   O14   S    
C22   C27   T    
C13   C15   T    
Cr3   O3    S    
C53   O6    A    
N5    H27   S    
C41   C44   A    
C52   O9    A    
C42   C43   A    
C32   C61   S    
C29   C37   A    
C3    C4    A    
C50   H11   S    
C8    H14   S    
N2    H20   S    
C40   C48   A    
C46   C47   A    
C6    H1    S    
C40   C57   S    
C30   C33   A    
Cr3   O4    S    
C53   O11   A    
C26   C28   T    
C48   H7    S    
C4    C5    A    
Cr1   O1    S    
N6    H30   S    
Cr2   O20   S    
C61   H24   S    
Cr1   O12   S    
C22   C55   S    
C57   O18   A    
C46   C50   A    
C42   H10   S    
C34   O25   A    
C11   N6    S    
C30   C32   A    
C11   C13   S    
C12   O22   A    
Cr2   O26   S    
Cr2   O5    S    
C44   N4    S    
C33   C35   A    
N3    H23   S    
C45   O3    A    
C42   C47   A    
Cr1   O24   S    
N1    H19   S    
C10   C11   D    
C2    N5    S    
C49   C50   A    
C55   O16   A    
N5    H28   S    
C34   O26   A    
C39   H5    S    
C31   C36   A    
C54   O15   A    
N4    H25   S    
N4    H26   S    
N2    H21   S    
C3    C59   A    
