data_mof_unit_47149.cif
_audit_creation_date              2012-12-10T20:02:24-0500
_audit_creation_method            fapswitch 2.2
_symmetry_space_group_name_H-M    P1
_symmetry_Int_Tables_number       1
_space_group_crystal_system       triclinic
_cell_length_a                    10.766508
_cell_length_b                    14.993123
_cell_length_c                    14.165027
_cell_angle_alpha                 90.058401
_cell_angle_beta                  91.453518
_cell_angle_gamma                 90.194288
_cell_volume                      2285.81906801

loop_
_atom_site_label
_atom_site_type_symbol
_atom_type_description
_atom_site_fract_x
_atom_site_fract_y
_atom_site_fract_z
_atom_type_partial_charge
C1    C     C_R   0.499248 0.327794 0.499968 0.864722
C2    C     C_R   0.498844 0.672278 0.499992 0.857107
C3    C     C_R   0.872783 0.503834 0.503545 -0.082793
C4    C     C_R   0.127550 0.504163 0.496732 -0.105449
C5    C     C_R   0.942939 0.478500 0.584274 0.033447
C6    C     C_R   0.058032 0.532850 0.416697 0.019963
C7    C     C_R   0.532189 0.093147 0.579216 -0.180693
C8    C     C_R   0.521230 0.907085 0.419031 -0.183066
C9    C     C_R   0.537855 0.185132 0.579145 -0.206849
C10   C     C_R   0.526655 0.815133 0.419115 -0.207306
C11   C     C_R   0.493892 0.232111 0.499962 -0.020596
C12   C     C_R   0.492830 0.768063 0.499772 -0.021707
C13   C     C_R   0.442494 0.187398 0.421459 -0.195177
C14   C     C_R   0.451180 0.812863 0.579647 -0.204916
C15   C     C_R   0.435417 0.095444 0.422036 -0.184224
C16   C     C_R   0.444400 0.904797 0.579122 -0.184606
C17   C     C_R   0.481175 0.048271 0.500594 0.117832
C18   C     C_R   0.480593 0.951960 0.499168 0.120116
C19   C     C_R   0.410712 0.452843 0.103594 -0.285722
C20   C     C_R   0.515441 0.578265 0.895722 -0.320865
C21   C     C_R   0.413212 0.452224 0.202653 0.018766
C22   C     C_R   0.516030 0.577490 0.796645 -0.025494
C23   C     C_R   0.259935 0.501817 0.498675 0.869973
C24   C     C_R   0.740226 0.500774 0.501326 0.884246
C25   C     C_R   0.586402 0.549177 0.207166 -0.042321
C26   C     C_R   0.481547 0.421948 0.794474 -0.049930
C27   C     C_R   0.591019 0.549459 0.107677 0.124415
C28   C     C_R   0.481791 0.418722 0.894170 0.135338
C29   C     C_R   0.501133 0.500481 0.053747 0.084351
C30   C     C_R   0.500459 0.498578 0.946904 0.124425
C31   C     C_R   0.234174 0.677175 0.246160 -0.126629
C32   C     C_R   0.838782 0.344700 0.793504 -0.154192
C33   C     C_R   0.184630 0.644009 0.329300 -0.145354
C34   C     C_R   0.880706 0.366675 0.703984 -0.215757
C35   C     C_R   0.113449 0.565207 0.327939 0.100064
C36   C     C_R   0.890360 0.456353 0.676817 0.117288
C37   C     C_R   0.090706 0.520256 0.241200 0.233438
C38   C     C_R   0.857079 0.524496 0.740329 0.280225
C39   C     C_R   0.138379 0.555851 0.157799 -0.222896
C40   C     C_R   0.813944 0.501330 0.829514 -0.202143
C41   C     C_R   0.210679 0.633390 0.160526 -0.148813
C42   C     C_R   0.806558 0.412012 0.856356 -0.139376
C43   C     C_R   0.930459 0.531599 0.421229 -0.205076
C44   C     C_R   0.069704 0.476607 0.578762 -0.256081
H1    H     H_    0.248723 0.659464 0.096118 0.136048
H2    H     H_    0.776108 0.395116 0.926091 0.144946
H3    H     H_    0.394476 0.061147 0.361439 0.128183
H4    H     H_    0.411346 0.939103 0.640930 0.127942
H5    H     H_    0.344685 0.414414 0.240117 0.135061
H6    H     H_    0.529110 0.639420 0.759183 0.133444
H7    H     H_    0.876110 0.553797 0.360150 0.156279
H8    H     H_    0.123388 0.454554 0.640264 0.167259
H9    H     H_    0.569708 0.057043 0.639645 0.128856
H10   H     H_    0.551197 0.943179 0.357376 0.129278
H11   H     H_    0.578312 0.219367 0.640002 0.148448
H12   H     H_    0.559207 0.781077 0.356976 0.146779
H13   H     H_    0.406580 0.223479 0.360445 0.148042
H14   H     H_    0.422997 0.776952 0.641940 0.146074
N1    N     N_R   0.500000 0.499980 0.252470 -0.101957
N2    N     N_R   0.500000 0.500020 0.747530 -0.094060
O1    O     O_R   0.500010 0.369070 0.579480 -0.633081
O2    O     O_R   0.499990 0.630930 0.420520 -0.626312
O3    O     O_R   0.500010 0.369060 0.420520 -0.621104
O4    O     O_R   0.499990 0.630940 0.579480 -0.634255
O5    O     O_R   0.316760 0.500010 0.579480 -0.622251
O6    O     O_R   0.683240 0.499990 0.420520 -0.628187
O7    O     O_R   0.316760 0.500000 0.420520 -0.619098
O8    O     O_R   0.683240 0.500000 0.579480 -0.606055
Zn1   Zn    Zn3+2 0.500000 0.500010 0.606140 0.946910
Zn2   Zn    Zn3+2 0.500000 0.499990 0.393860 0.947935
H15   H     H_    0.337302 0.416746 0.066404 0.167076
H16   H     H_    0.525153 0.641550 0.931980 0.152690
H17   H     H_    0.653258 0.587646 0.248621 0.129284
H18   H     H_    0.466927 0.361180 0.754584 0.131661
N3    N     N_2   0.685642 0.598999 0.062945 -0.319553
H19   H     H_    0.680486 0.666338 0.077192 0.214966
C45   C     C_3   0.809944 0.565143 0.079208 -0.838597
H20   H     H_    0.875953 0.602678 0.035118 0.243298
H21   H     H_    0.814177 0.493510 0.059752 0.242737
H22   H     H_    0.839008 0.573669 0.154489 0.238289
N4    N     N_2   0.458686 0.335776 0.939572 -0.322449
H23   H     H_    0.403881 0.292471 0.899947 0.215253
C46   C     C_3   0.567128 0.292176 0.979924 -0.810394
H24   H     H_    0.537692 0.232511 0.020078 0.239639
H25   H     H_    0.618359 0.337309 0.029513 0.253376
H26   H     H_    0.629162 0.270207 0.922983 0.229152
H27   H     H_    0.290135 0.737295 0.248060 0.131044
H28   H     H_    0.832312 0.275484 0.814471 0.130612
H29   H     H_    0.201997 0.679537 0.394986 0.121618
H30   H     H_    0.906908 0.313985 0.656127 0.137973
N5    N     N_2   0.017388 0.440981 0.237219 -0.315513
H31   H     H_    0.970715 0.431336 0.173558 0.220558
C47   C     C_3   0.081051 0.361014 0.268245 -0.793481
H32   H     H_    0.151136 0.341471 0.215957 0.218555
H33   H     H_    0.012696 0.305835 0.274184 0.242883
H34   H     H_    0.127218 0.370862 0.338465 0.253132
N6    N     N_2   0.863897 0.615990 0.714070 -0.308358
H35   H     H_    0.799031 0.656602 0.744738 0.215592
C48   C     C_3   0.987419 0.654769 0.713272 -0.801732
H36   H     H_    0.995361 0.709376 0.766198 0.225905
H37   H     H_    0.004120 0.682812 0.642221 0.255109
H38   H     H_    0.060979 0.604950 0.730186 0.243196
H39   H     H_    0.120974 0.522604 0.090837 0.136536
H40   H     H_    0.787434 0.552843 0.878387 0.167135

loop_
_geom_bond_atom_site_label_1
_geom_bond_atom_site_label_2
_ccdc_geom_bond_type
C47   H32   S    
C27   C29   A    
C19   H15   S    
C1    C11   S    
C15   H3    S    
C2    C12   S    
C16   H4    S    
C21   H5    S    
N4    H23   S    
C39   C41   A    
C20   C30   A    
C45   H20   S    
C3    C43   A    
C35   C37   A    
C21   N1    A    
C22   N2    A    
C33   C35   A    
N5    C47   S    
C32   H28   S    
C5    C36   S    
C6    C35   S    
O2    Zn2   S    
C7    C9    A    
C42   H2    S    
C23   O7    A    
N6    C48   S    
C48   H36   S    
O8    Zn1   S    
C7    C17   A    
C31   C33   A    
C9    H11   S    
C10   H12   S    
C25   H17   S    
C24   O6    A    
C22   H6    S    
C44   H8    S    
C40   C42   A    
C47   H33   S    
C3    C24   S    
C38   N6    S    
C27   N3    S    
C1    O3    A    
N4    C46   S    
C2    O4    A    
N6    H35   S    
C45   H21   S    
C14   H14   S    
C31   H27   S    
C37   N5    S    
C4    C6    A    
C8    H10   S    
N5    H31   S    
C4    C23   S    
C4    C44   A    
C8    C18   A    
C32   C34   A    
N3    H19   S    
C34   H30   S    
C29   C30   S    
C33   H29   S    
C40   H40   S    
N3    C45   S    
C46   H24   S    
O3    Zn2   S    
C46   H26   S    
C17   C18   S    
O4    Zn1   S    
C9    C11   A    
C10   C12   A    
C16   C18   A    
C46   H25   S    
C5    C44   A    
C12   C14   A    
C47   H34   S    
C6    C43   A    
C13   C15   A    
C14   C16   A    
C7    H9    S    
C19   C29   A    
C45   H22   S    
O1    Zn1   S    
C15   C17   A    
C32   C42   A    
C31   C41   A    
C19   C21   A    
C28   N4    S    
C20   C22   A    
C3    C5    A    
C1    O1    A    
C39   H39   S    
C25   C27   A    
C26   C28   A    
O7    Zn2   S    
C23   O5    A    
C28   C30   A    
C37   C39   A    
C38   C40   A    
C11   C13   A    
C43   H7    S    
O6    Zn2   S    
N2    Zn1   S    
O5    Zn1   S    
C36   C38   A    
C26   H18   S    
C34   C36   A    
C24   O8    A    
N1    Zn2   S    
C48   H38   S    
C13   H13   S    
C8    C10   A    
C41   H1    S    
C20   H16   S    
C25   N1    A    
C26   N2    A    
C48   H37   S    
C2    O2    A    
