data_mof_unit_18341.cif
_audit_creation_date              2012-12-10T18:42:34-0500
_audit_creation_method            fapswitch 2.2
_symmetry_space_group_name_H-M    P1
_symmetry_Int_Tables_number       1
_space_group_crystal_system       triclinic
_cell_length_a                    8.591559
_cell_length_b                    10.654929
_cell_length_c                    9.857003
_cell_angle_alpha                 89.868198
_cell_angle_beta                  98.629619
_cell_angle_gamma                 90.174148
_cell_volume                      892.113168824

loop_
_atom_site_label
_atom_site_type_symbol
_atom_type_description
_atom_site_fract_x
_atom_site_fract_y
_atom_site_fract_z
_atom_type_partial_charge
C1    C     C_R   0.503277 0.260208 0.500596 0.941381
C2    C     C_R   0.605177 0.062113 0.601430 0.407743
C3    C     C_R   0.495703 0.872156 0.498957 -0.177965
C4    C     C_R   0.504298 0.127844 0.501043 -0.177963
C5    C     C_R   0.597292 0.578565 0.084382 -0.029609
C6    C     C_R   0.402708 0.421435 0.915618 -0.029608
C7    C     C_R   0.597248 0.578534 0.940593 -0.039822
C8    C     C_R   0.402752 0.421466 0.059407 -0.039822
C9    C     C_R   0.496723 0.739792 0.499404 0.941382
C10   C     C_R   0.201132 0.500000 0.464095 0.977384
C11   C     C_R   0.798868 0.500000 0.535905 0.977384
C12   C     C_2   0.036006 0.500217 0.444788 -0.345274
C13   C     C_2   0.963993 0.499782 0.555212 -0.345274
C14   C     C_R   0.400395 0.066711 0.400041 -0.266468
C15   C     C_R   0.599606 0.933289 0.599959 -0.266466
C16   C     C_R   0.394824 0.937887 0.398570 0.407741
Cl1   Cl    Cl    0.255346 0.863351 0.274788 -0.587106
Cl2   Cl    Cl    0.744650 0.136649 0.725212 -0.587108
H1    H     H_    0.974149 0.500806 0.340037 0.186265
H2    H     H_    0.025851 0.499194 0.659963 0.186265
H3    H     H_    0.321742 0.119327 0.324337 0.192273
H4    H     H_    0.678259 0.880673 0.675663 0.192273
H5    H     H_    0.675152 0.641408 0.148758 0.144633
H6    H     H_    0.324848 0.358592 0.851242 0.144633
H7    H     H_    0.675042 0.641379 0.896191 0.138029
H8    H     H_    0.324958 0.358621 0.103809 0.138029
N1    N     N_R   0.499960 0.499970 0.857200 -0.088277
N2    N     N_R   0.500040 0.500030 0.142800 -0.088277
O1    O     O_R   0.499990 0.316750 0.614620 -0.580264
O2    O     O_R   0.500010 0.683250 0.385380 -0.580264
O3    O     O_R   0.499990 0.316780 0.385290 -0.631491
O4    O     O_R   0.500010 0.683220 0.614710 -0.631491
O5    O     O_R   0.271750 0.499990 0.587840 -0.626315
O6    O     O_R   0.728250 0.500010 0.412160 -0.626315
O7    O     O_R   0.271750 0.500010 0.358510 -0.610107
O8    O     O_R   0.728250 0.499990 0.641490 -0.610108
Zn1   Zn    Zn3+2 0.500000 0.499980 0.653120 0.994989
Zn2   Zn    Zn3+2 0.500000 0.500020 0.346880 0.994988

loop_
_geom_bond_atom_site_label_1
_geom_bond_atom_site_label_2
_ccdc_geom_bond_type
C2    C4    A    
C10   O7    A    
C3    C9    S    
C2    Cl2   S    
C5    N2    A    
C8    H8    S    
C6    N1    A    
C7    H7    S    
O3    Zn2   S    
N2    Zn2   S    
C1    C4    S    
C6    H6    S    
C1    O1    A    
C7    N1    A    
O4    Zn1   S    
C2    C15   A    
C11   C13   S    
O2    Zn2   S    
C10   C12   S    
C9    O2    A    
N1    Zn1   S    
C14   H3    S    
C11   O8    A    
C10   O5    A    
C11   O6    A    
C4    C14   A    
C8    N2    A    
C14   C16   A    
C1    O3    A    
O7    Zn2   S    
C3    C15   A    
C12   C13   D    
C12   H1    S    
O1    Zn1   S    
C5    C7    A    
O8    Zn1   S    
C6    C8    A    
C9    O4    A    
O6    Zn2   S    
C13   H2    S    
C15   H4    S    
O5    Zn1   S    
C3    C16   A    
C16   Cl1   S    
C5    H5    S    
