data_mof_unit_39347.cif
_audit_creation_date              2012-12-10T18:06:44-0500
_audit_creation_method            fapswitch 2.2
_symmetry_space_group_name_H-M    P1
_symmetry_Int_Tables_number       1
_space_group_crystal_system       triclinic
_cell_length_a                    12.621983
_cell_length_b                    13.066525
_cell_length_c                    15.448044
_cell_angle_alpha                 82.976415
_cell_angle_beta                  99.110754
_cell_angle_gamma                 96.857789
_cell_volume                      2483.71108998

loop_
_atom_site_label
_atom_site_type_symbol
_atom_type_description
_atom_site_fract_x
_atom_site_fract_y
_atom_site_fract_z
_atom_type_partial_charge
C1    C     C_R   0.442863 0.307913 0.510044 0.983875
C2    C     C_R   0.446534 0.561883 0.093359 -0.034211
C3    C     C_R   0.335694 0.566187 0.057550 -0.200949
C4    C     C_R   0.525762 0.567366 0.037168 0.126432
C5    C     C_R   0.491414 0.553256 0.948026 0.039421
C6    C     C_R   0.383825 0.566852 0.911880 -0.232324
C7    C     C_R   0.307168 0.575122 0.965286 0.726698
C8    C     C_R   0.637739 0.586454 0.066626 -0.168467
C9    C     C_R   0.712855 0.584925 0.009957 -0.066092
C10   C     C_R   0.678880 0.556680 0.924880 -0.065255
C11   C     C_R   0.567337 0.532797 0.896138 -0.033217
C12   C     C_R   0.435337 0.514458 0.335818 0.981168
C13   C     C_R   0.753902 0.551486 0.867825 0.709309
C14   C     C_R   0.717761 0.525049 0.782614 -0.286759
C15   C     C_R   0.535773 0.486586 0.817519 0.327070
C16   C     C_R   0.610095 0.938016 0.347856 -0.055236
C17   C     C_R   0.580331 0.801537 0.464212 -0.122105
C18   C     C_R   0.342488 0.154284 0.585009 0.406289
C19   C     C_R   0.324530 0.047365 0.602875 -0.173076
C20   C     C_R   0.376842 0.983197 0.562360 -0.097947
C21   C     C_R   0.445255 0.025226 0.499955 0.036873
C22   C     C_R   0.444888 0.130724 0.468536 -0.202910
C23   C     C_R   0.555711 0.691791 0.488274 0.881779
C24   C     C_R   0.510451 0.964940 0.465185 -0.085856
C25   C     C_R   0.552469 0.002554 0.385713 -0.137661
C26   C     C_R   0.533110 0.102246 0.345164 0.341537
C27   C     C_R   0.480992 0.166175 0.387045 0.651667
C28   C     C_R   0.536052 0.868379 0.507947 0.609574
C29   C     C_R   0.620804 0.836697 0.385536 -0.292725
C30   C     C_R   0.405931 0.197085 0.518843 -0.159813
C31   C     C_R   0.139491 0.648200 0.616907 -0.181688
C32   C     C_R   0.756784 0.386072 0.391011 0.696860
C33   C     C_R   0.850819 0.370833 0.360861 0.242803
C34   C     C_R   0.565013 0.487388 0.663975 0.946967
C35   C     C_R   0.948235 0.417923 0.399458 -0.212344
C36   C     C_R   0.952246 0.477559 0.470681 -0.028753
C37   C     C_R   0.853576 0.496052 0.494810 0.013873
C38   C     C_R   0.049057 0.523523 0.515800 -0.162794
C39   C     C_R   0.044630 0.596896 0.576064 -0.041635
C40   C     C_R   0.945674 0.617314 0.595340 0.635531
C41   C     C_R   0.851749 0.565697 0.556362 -0.230650
C42   C     C_R   0.151046 0.498765 0.505557 0.811889
C43   C     C_R   0.237183 0.625455 0.598774 -0.104799
C44   C     C_R   0.398252 0.532855 0.240953 -0.240821
C45   C     C_R   0.608074 0.494238 0.756799 -0.231220
C46   C     C_R   0.257837 0.559347 0.115485 0.364459
C47   C     C_R   0.289651 0.542647 0.206573 0.579441
C48   C     C_R   0.475029 0.543668 0.184362 -0.238801
H1    H     H_    0.655044 0.784385 0.350877 0.180791
H2    H     H_    0.642158 0.963078 0.286947 0.213299
H3    H     H_    0.358985 0.900740 0.577974 0.202247
H4    H     H_    0.273226 0.013666 0.651121 0.195888
H5    H     H_    0.311798 0.665062 0.628521 0.188573
H6    H     H_    0.138367 0.705344 0.661923 0.231453
H7    H     H_    0.017437 0.410644 0.368967 0.284631
H8    H     H_    0.778349 0.583580 0.574093 0.222103
H9    H     H_    0.775191 0.529965 0.736781 0.219912
H10   H     H_    0.797672 0.603267 0.033733 0.224725
H11   H     H_    0.557215 0.532419 0.212194 0.211782
H12   H     H_    0.358663 0.573832 0.841297 0.206682
H13   H     H_    0.668871 0.608326 0.131740 0.145529
N1    N     N_R   0.239390 0.551900 0.544730 -0.144827
N2    N     N_R   0.759950 0.448600 0.455730 -0.198047
O1    O     O_R   0.374950 0.371210 0.521360 -0.515048
O2    O     O_R   0.542050 0.338030 0.492790 -0.557589
O3    O     O_R   0.368720 0.526070 0.390200 -0.543216
O4    O     O_R   0.535820 0.492890 0.361630 -0.563427
O5    O     O_R   0.457950 0.661970 0.507210 -0.606631
O6    O     O_R   0.625050 0.628790 0.478640 -0.653475
O7    O     O_R   0.464180 0.507110 0.638370 -0.565412
O8    O     O_R   0.631280 0.473930 0.609800 -0.649838
Zn1   Zn    Zn3+2 0.388420 0.522150 0.519080 1.100921
Zn2   Zn    Zn3+2 0.611580 0.477850 0.480920 1.012258
F1    F     F_    0.205120 0.587334 0.925296 -0.561770
F2    F     F_    0.860952 0.577197 0.892643 -0.569319
Cl1   Cl    Cl    0.572425 0.150055 0.241802 -0.400170
F3    F     F_    0.518992 0.837028 0.592322 -0.681494
Cl2   Cl    Cl    0.285399 0.229557 0.649335 -0.448908
F4    F     F_    0.456675 0.259375 0.343936 -0.587070
Cl3   Cl    Cl    0.416423 0.399558 0.802778 -0.477423
F5    F     F_    0.939562 0.686010 0.653259 -0.625948
F6    F     F_    0.166273 0.418842 0.462437 -0.619981
F7    F     F_    0.661069 0.343194 0.352181 -0.565281
Cl4   Cl    Cl    0.846809 0.296791 0.272614 -0.403065
Cl5   Cl    Cl    0.118855 0.566930 0.078661 -0.334229
F8    F     F_    0.213545 0.533261 0.261000 -0.594035

loop_
_geom_bond_atom_site_label_1
_geom_bond_atom_site_label_2
_ccdc_geom_bond_type
C17   C29   A    
C23   O6    A    
C35   C36   A    
C42   F6    S    
C4    C8    A    
C29   H1    S    
C26   C27   A    
C17   C23   S    
C31   C43   A    
C36   C37   A    
C16   H2    S    
C5    C11   A    
C20   H3    S    
C27   F4    S    
C5    C6    A    
O2    Zn2   S    
C9    H10   S    
C14   H9    S    
C11   C15   A    
C19   H4    S    
C43   H5    S    
O3    Zn1   S    
C13   F2    S    
C8    C9    A    
C1    O2    A    
O6    Zn2   S    
C18   C30   A    
C7    F1    S    
C9    C10   A    
C42   N1    A    
C44   C47   A    
C18   Cl2   S    
C8    H13   S    
C46   Cl5   S    
C21   C22   A    
C37   N2    A    
C14   C45   A    
C12   O4    A    
C35   H7    S    
C47   F8    S    
C6    H12   S    
C24   C25   A    
C39   C40   A    
O8    Zn2   S    
C18   C19   A    
N2    Zn2   S    
C2    C48   A    
C25   C26   A    
C12   O3    A    
C23   O5    A    
C2    C4    A    
C41   H8    S    
C26   Cl1   S    
C15   Cl3   S    
O5    Zn1   S    
N1    Zn1   S    
C34   C45   S    
C28   F3    S    
O4    Zn2   S    
C40   C41   A    
C22   C27   A    
C15   C45   A    
C1    O1    A    
C48   H11   S    
C16   C25   A    
C32   F7    S    
C34   O7    A    
C46   C47   A    
C22   C30   A    
C17   C28   A    
C40   F5    S    
C24   C28   A    
C32   N2    A    
C4    C5    A    
C10   C13   A    
C38   C42   A    
C6    C7    A    
C3    C46   A    
C3    C7    A    
C32   C33   A    
C19   C20   A    
C36   C38   A    
C2    C3    A    
C16   C29   A    
C12   C44   S    
C38   C39   A    
C1    C30   S    
C33   C35   A    
C31   C39   A    
O1    Zn1   S    
C31   H6    S    
C37   C41   A    
C33   Cl4   S    
C10   C11   A    
C20   C21   A    
C21   C24   A    
O7    Zn1   S    
C13   C14   A    
C34   O8    A    
C44   C48   A    
C43   N1    A    
