data_mof_unit_19874.cif
_audit_creation_date              2012-12-10T16:50:13-0500
_audit_creation_method            fapswitch 2.2
_symmetry_space_group_name_H-M    P1
_symmetry_Int_Tables_number       1
_space_group_crystal_system       triclinic
_cell_length_a                    23.513686
_cell_length_b                    8.727619
_cell_length_c                    7.408288
_cell_angle_alpha                 102.539685
_cell_angle_beta                  93.924604
_cell_angle_gamma                 92.384573
_cell_volume                      1478.08076156

loop_
_atom_site_label
_atom_site_type_symbol
_atom_type_description
_atom_site_fract_x
_atom_site_fract_y
_atom_site_fract_z
_atom_type_partial_charge
C1    C     C_R   0.497432 0.200264 0.454748 0.861128
C2    C     C_R   0.502569 0.799736 0.545252 0.861196
C3    C     C_R   0.241813 0.553320 0.668895 -0.146310
C4    C     C_R   0.758208 0.447108 0.331028 -0.146252
C5    C     C_R   0.301273 0.555662 0.674391 0.356001
C6    C     C_R   0.698747 0.444777 0.325497 0.356076
C7    C     C_R   0.328182 0.501449 0.508692 -0.159578
C8    C     C_R   0.671824 0.498569 0.491315 -0.159691
C9    C     C_R   0.294052 0.446219 0.341511 -0.221246
C10   C     C_R   0.705948 0.553403 0.658624 -0.220990
C11   C     C_R   0.234726 0.444027 0.337585 0.218560
C12   C     C_R   0.765274 0.555602 0.662570 0.218556
C13   C     C_R   0.208576 0.497903 0.501990 0.232758
C14   C     C_R   0.791434 0.502117 0.498065 0.232764
C15   C     C_2   0.488424 0.034949 0.434840 0.094588
C16   C     C_2   0.511577 0.965052 0.565161 0.094589
C17   C     C_R   0.390885 0.501332 0.503415 0.854919
C18   C     C_R   0.609117 0.498679 0.496584 0.854893
C19   C     C_R   0.881992 0.628727 0.463802 0.585805
C20   C     C_R   0.118019 0.371311 0.536301 0.585828
C21   C     C_R   0.879081 0.373920 0.534238 0.579519
C22   C     C_R   0.120929 0.626105 0.465831 0.579420
C23   C     C_R   0.938644 0.370695 0.535920 -0.021306
C24   C     C_R   0.061367 0.629337 0.464166 -0.021299
C25   C     C_R   0.970028 0.500339 0.499757 -0.011723
C26   C     C_R   0.029983 0.499696 0.500336 -0.011724
C27   C     C_R   0.941597 0.630607 0.462984 -0.019366
C28   C     C_R   0.058414 0.369430 0.537116 -0.019381
C29   C     C_R   0.967415 0.241626 0.572860 -0.153508
C30   C     C_R   0.032595 0.758408 0.427231 -0.153513
C31   C     C_R   0.026725 0.241016 0.573502 -0.156618
C32   C     C_R   0.973286 0.759022 0.426600 -0.156619
Cu1   Cu    Cu3+1 0.506340 0.517380 0.684380 1.097251
Cu2   Cu    Cu3+1 0.493660 0.482620 0.315620 1.097208
H1    H     H_    0.944233 0.140908 0.601682 0.194715
H2    H     H_    0.055778 0.859124 0.398406 0.194718
H3    H     H_    0.047623 0.139861 0.602825 0.189013
H4    H     H_    0.952389 0.860179 0.397281 0.189009
H5    H     H_    0.221085 0.595887 0.794863 0.196999
H6    H     H_    0.778945 0.404862 0.204970 0.197086
H7    H     H_    0.313363 0.403500 0.212847 0.218226
H8    H     H_    0.686633 0.595813 0.787380 0.218517
H9    H     H_    0.455139 0.379979 0.948733 0.247800
H10   H     H_    0.544861 0.620020 0.051267 0.247893
N1    N     N_R   0.852255 0.501798 0.499249 -0.460330
N2    N     N_R   0.147755 0.498231 0.500828 -0.460346
N3    N     N_2   0.484110 0.456420 0.038520 -0.156930
N4    N     N_2   0.515890 0.543580 0.961480 -0.156859
O1    O     O_R   0.504120 0.286130 0.619770 -0.569723
O2    O     O_R   0.495880 0.713870 0.380230 -0.569744
O3    O     O_R   0.493410 0.256770 0.308360 -0.535726
O4    O     O_R   0.506590 0.743230 0.691640 -0.535682
O5    O     O_R   0.423230 0.514630 0.655730 -0.555691
O6    O     O_R   0.576770 0.485370 0.344270 -0.555632
O7    O     O_R   0.412530 0.485280 0.344320 -0.566564
O8    O     O_R   0.587470 0.514720 0.655680 -0.566502
O9    O     O_2   0.853897 0.752602 0.430184 -0.481763
O10   O     O_2   0.146115 0.247449 0.569952 -0.481758
O11   O     O_2   0.848126 0.250706 0.567471 -0.482146
O12   O     O_2   0.151883 0.749308 0.432569 -0.482172
Cl1   Cl    Cl    0.338961 0.632627 0.891550 -0.508733
Cl2   Cl    Cl    0.661083 0.368414 0.108080 -0.509241
I1    I     I_    0.186153 0.358288 0.081081 -0.229170
I2    I     I_    0.813833 0.640831 0.919235 -0.229503
Cl3   Cl    Cl    0.439102 0.939557 0.247226 -0.490791
Cl4   Cl    Cl    0.560898 0.060446 0.752780 -0.490903

loop_
_geom_bond_atom_site_label_1
_geom_bond_atom_site_label_2
_ccdc_geom_bond_type
H10   N4    S    
C19   N1    A    
C21   O11   S    
C1    C15   S    
C32   H4    S    
C10   H8    S    
C2    C16   S    
C29   H1    S    
C9    H7    S    
N3    N4    D    
C3    C13   A    
C30   H2    S    
C25   C27   A    
C22   O12   S    
C20   O10   S    
C6    Cl2   S    
Cu1   O8    S    
C21   C23   A    
Cu1   Cu2   S    
C27   C32   A    
C17   O5    A    
C5    Cl1   S    
Cu2   O7    S    
C29   C31   A    
C4    C14   A    
C19   O9    S    
Cu1   O4    S    
C30   C32   A    
C18   O8    A    
C1    O3    A    
Cu2   O3    S    
C2    O4    A    
C10   C12   A    
C8    C10   A    
C22   N2    A    
C24   C26   A    
Cu2   O6    S    
C14   N1    S    
C21   N1    A    
C9    C11   A    
Cu1   O5    S    
C13   N2    S    
C12   I2    S    
C22   C24   A    
Cu2   O2    S    
C24   C30   A    
C16   Cl4   S    
C18   O6    A    
Cu1   O1    S    
C15   C16   D    
C15   Cl3   S    
C20   C28   A    
C23   C29   A    
C12   C14   A    
C11   C13   A    
C23   C25   A    
C19   C27   A    
C4    C6    A    
C7    C9    A    
Cu1   N4    S    
C17   O7    A    
C5    C7    A    
C6    C8    A    
Cu2   N3    S    
C2    O2    A    
C7    C17   S    
C25   C26   A    
C11   I1    S    
C26   C28   A    
C28   C31   A    
C8    C18   S    
C3    H5    S    
C4    H6    S    
C31   H3    S    
H9    N3    S    
C3    C5    A    
C20   N2    A    
C1    O1    A    
