data_mof_unit_65728.cif
_audit_creation_date              2012-12-10T19:13:20-0500
_audit_creation_method            fapswitch 2.2
_symmetry_space_group_name_H-M    P1
_symmetry_Int_Tables_number       1
_space_group_crystal_system       triclinic
_cell_length_a                    15.994699
_cell_length_b                    14.764607
_cell_length_c                    10.886898
_cell_angle_alpha                 91.004703
_cell_angle_beta                  89.845565
_cell_angle_gamma                 89.9494
_cell_volume                      2570.59452146

loop_
_atom_site_label
_atom_site_type_symbol
_atom_type_description
_atom_site_fract_x
_atom_site_fract_y
_atom_site_fract_z
_atom_type_partial_charge
C1    C     C_R   0.340847 0.499995 0.499724 0.812239
C2    C     C_R   0.659171 0.499939 0.499874 0.832954
C3    C     C_R   0.494940 0.953574 0.610847 -0.155481
C4    C     C_R   0.504717 0.950712 0.389606 -0.156032
C5    C     C_R   0.499860 0.902896 0.500210 0.052350
C6    C     C_R   0.504695 0.046503 0.389617 -0.156692
C7    C     C_R   0.494919 0.049386 0.610864 -0.158774
C8    C     C_R   0.499822 0.097168 0.500233 0.055993
C9    C     C_1   0.499939 0.802733 0.500116 0.116869
C10   C     C_1   0.499912 0.197290 0.500150 0.109474
C11   C     C_R   0.497415 0.498967 0.264555 0.869452
C12   C     C_R   0.493955 0.500849 0.735260 0.863204
C13   C     C_2   0.444893 0.438540 0.932427 0.269795
C14   C     C_2   0.439261 0.446712 0.067688 0.261800
C15   C     C_2   0.481266 0.504953 0.867318 -0.457264
C16   C     C_2   0.496590 0.495323 0.131907 -0.423750
C17   C     C_R   0.956274 0.516969 0.608239 -0.174945
C18   C     C_R   0.043515 0.517013 0.608148 -0.174087
C19   C     C_R   0.912847 0.499764 0.498842 0.156930
C20   C     C_R   0.087282 0.499860 0.498659 0.158050
C21   C     C_R   0.956617 0.482589 0.389325 -0.173970
C22   C     C_R   0.043888 0.482636 0.389230 -0.176119
C23   C     C_1   0.823376 0.499778 0.499059 -0.067451
C24   C     C_1   0.176722 0.499926 0.498727 -0.069519
C25   C     C_1   0.251757 0.499993 0.499123 -0.174948
C26   C     C_1   0.748314 0.499841 0.499428 -0.174612
Cu1   Cu    Cu3+1 0.500000 0.589220 0.500000 0.976206
Cu2   Cu    Cu3+1 0.500000 0.410780 0.500000 0.963532
H1    H     H_    0.499110 0.568387 0.911585 0.138828
H2    H     H_    0.547070 0.531055 0.087294 0.120692
H3    H     H_    0.076778 0.530373 0.693133 0.136037
H4    H     H_    0.922751 0.530306 0.693290 0.136248
H5    H     H_    0.923346 0.469223 0.304354 0.136027
H6    H     H_    0.077456 0.469300 0.304202 0.133659
H7    H     H_    0.491087 0.086218 0.697624 0.123818
H8    H     H_    0.508522 0.081068 0.302852 0.127880
H9    H     H_    0.491117 0.919011 0.697608 0.129141
H10   H     H_    0.508559 0.913914 0.302833 0.129894
N1    N     N_1   0.500000 0.276710 0.500000 -0.156518
N2    N     N_1   0.500000 0.723290 0.500000 -0.152493
O1    O     O_R   0.380310 0.575320 0.500020 -0.570797
O2    O     O_R   0.619690 0.575320 0.499980 -0.568927
O3    O     O_R   0.380310 0.424640 0.499970 -0.579434
O4    O     O_R   0.619690 0.424640 0.500030 -0.567273
O5    O     O_R   0.500000 0.575320 0.321940 -0.570300
O6    O     O_R   0.500000 0.575320 0.678060 -0.574226
O7    O     O_R   0.500000 0.424640 0.321880 -0.583005
O8    O     O_R   0.500000 0.424640 0.678120 -0.569845
N3    N     N_2   0.404544 0.362973 0.874145 -0.390485
H11   H     H_    0.378171 0.373999 0.789427 0.260920
C27   C     C_3   0.448462 0.277748 0.883579 -0.627905
H12   H     H_    0.509221 0.280842 0.834143 0.226847
H13   H     H_    0.410145 0.222664 0.841846 0.210984
H14   H     H_    0.459640 0.261552 0.981447 0.226891
N4    N     N_2   0.371957 0.400987 0.126824 -0.401983
H15   H     H_    0.387324 0.364109 0.202861 0.269994
C28   C     C_3   0.297476 0.455344 0.143637 -0.669494
H16   H     H_    0.246884 0.413217 0.182939 0.222509
H17   H     H_    0.275891 0.481441 0.053989 0.235657
H18   H     H_    0.310106 0.513090 0.207759 0.211458

loop_
_geom_bond_atom_site_label_1
_geom_bond_atom_site_label_2
_ccdc_geom_bond_type
C19   C23   S    
N4    H15   S    
Cu2   O7    S    
C5    C9    S    
C19   C21   A    
C15   H1    S    
C1    O3    A    
C11   C16   S    
Cu1   O1    S    
Cu2   O3    S    
C11   O7    A    
C12   C15   S    
Cu1   N2    S    
C12   O8    A    
C27   H14   S    
Cu1   O5    S    
N4    C28   S    
C14   N4    S    
C7    C8    A    
C2    C26   S    
C21   C22   A    
C1    C25   S    
Cu1   O2    S    
C28   H16   S    
C2    O2    A    
C13   N3    S    
Cu1   O6    S    
C4    C6    A    
C17   C19   A    
C6    H8    S    
C17   C18   A    
C3    C7    A    
C13   C15   D    
C22   H6    S    
C14   C16   D    
C11   O5    A    
C28   H17   S    
C20   C22   A    
C27   H13   S    
C16   H2    S    
C27   H12   S    
C4    C5    A    
C21   H5    S    
C24   C25   T    
C3    H9    S    
C18   C20   A    
C8    C10   S    
N3    H11   S    
C23   C26   T    
C1    O1    A    
Cu1   Cu2   S    
C17   H4    S    
Cu2   O8    S    
C28   H18   S    
C6    C8    A    
C18   H3    S    
Cu2   N1    S    
C3    C5    A    
C13   C14   S    
C7    H7    S    
Cu2   O4    S    
C9    N2    T    
C2    O4    A    
C20   C24   S    
C4    H10   S    
C10   N1    T    
N3    C27   S    
C12   O6    A    
