data_mof_unit_51716.cif
_audit_creation_date              2012-12-10T17:30:24-0500
_audit_creation_method            fapswitch 2.2
_symmetry_space_group_name_H-M    P1
_symmetry_Int_Tables_number       1
_space_group_crystal_system       triclinic
_cell_length_a                    12.095642
_cell_length_b                    12.951773
_cell_length_c                    14.948074
_cell_angle_alpha                 91.655917
_cell_angle_beta                  86.434041
_cell_angle_gamma                 92.522903
_cell_volume                      2334.16224005

loop_
_atom_site_label
_atom_site_type_symbol
_atom_type_description
_atom_site_fract_x
_atom_site_fract_y
_atom_site_fract_z
_atom_type_partial_charge
C1    C     C_R   0.520772 0.700296 0.497341 0.890604
C2    C     C_R   0.479529 0.300206 0.505838 0.947970
C3    C     C_R   0.432220 0.675001 0.967725 0.578275
C4    C     C_R   0.532432 0.311129 0.035052 0.565159
C5    C     C_R   0.469043 0.189990 0.518519 -0.242409
C6    C     C_R   0.530757 0.811739 0.506237 -0.213287
C7    C     C_R   0.639096 0.962528 0.553806 0.533331
C8    C     C_R   0.349697 0.036784 0.521931 0.504685
C9    C     C_R   0.630829 0.857611 0.531584 -0.426521
C10   C     C_R   0.363466 0.142501 0.517861 -0.332316
C11   C     C_R   0.436333 0.870770 0.501789 0.432711
C12   C     C_R   0.562918 0.132212 0.532358 0.491035
C13   C     C_R   0.444365 0.976668 0.520829 -0.205767
C14   C     C_R   0.549604 0.024281 0.536804 -0.165448
C15   C     C_R   0.957102 0.442656 0.392455 0.549614
C16   C     C_R   0.043314 0.544827 0.612069 0.547512
C17   C     C_R   0.841889 0.444795 0.404966 0.531627
C18   C     C_R   0.158514 0.549439 0.597028 0.579132
C19   C     C_R   0.855994 0.513640 0.553000 0.525031
C20   C     C_R   0.143547 0.489164 0.446756 0.507989
C21   C     C_R   0.974368 0.514168 0.542410 -0.398561
C22   C     C_R   0.025370 0.482425 0.459502 -0.396469
C23   C     C_R   0.500296 0.503443 0.672880 0.948083
C24   C     C_R   0.499081 0.493629 0.327426 0.985129
C25   C     C_R   0.506881 0.397448 0.182832 0.388356
C26   C     C_R   0.459172 0.590428 0.820056 0.451428
C27   C     C_R   0.498994 0.491263 0.232033 -0.306396
C28   C     C_R   0.499939 0.505490 0.768660 -0.361222
C29   C     C_R   0.486889 0.584548 0.191066 0.579430
C30   C     C_R   0.534042 0.417328 0.808466 0.649026
C31   C     C_R   0.476476 0.585852 0.099416 -0.195712
C32   C     C_R   0.525753 0.410672 0.901226 -0.207943
C33   C     C_R   0.495831 0.494987 0.047372 -0.163986
C34   C     C_R   0.495800 0.498532 0.953853 -0.175395
C35   C     C_R   0.512424 0.400244 0.088832 -0.145853
C36   C     C_R   0.462612 0.588895 0.913393 -0.158965
C37   C     C_R   0.444185 0.675107 0.059205 0.587510
C38   C     C_R   0.543714 0.317429 0.942409 0.616620
H1    H     H_    0.290564 0.187022 0.512056 0.216046
H2    H     H_    0.702593 0.811767 0.536019 0.170416
N1    N     N_R   0.207800 0.519350 0.516680 -0.241066
N2    N     N_R   0.792200 0.480650 0.483320 -0.229862
O1    O     O_R   0.421700 0.658830 0.504450 -0.582769
O2    O     O_R   0.578300 0.341170 0.495550 -0.590168
O3    O     O_R   0.609310 0.646410 0.493750 -0.654931
O4    O     O_R   0.390690 0.353590 0.506250 -0.616712
O5    O     O_R   0.406180 0.506230 0.637500 -0.542810
O6    O     O_R   0.593820 0.493770 0.362500 -0.575559
O7    O     O_R   0.593800 0.493820 0.626800 -0.558783
O8    O     O_R   0.406200 0.506180 0.373200 -0.589724
Zn1   Zn    Zn3+2 0.374730 0.508290 0.507150 1.055031
Zn2   Zn    Zn3+2 0.625270 0.491710 0.492850 1.033691
O9    O     O_3   0.487551 0.304064 0.225454 -0.574680
C39   C     C_3   0.587626 0.267691 0.253520 0.196674
H3    H     H_    0.607664 0.307046 0.317250 0.170936
H4    H     H_    0.658421 0.279786 0.202904 0.199430
C40   C     C_3   0.572352 0.152379 0.270647 -0.731387
H5    H     H_    0.544413 0.109978 0.210003 0.328996
H6    H     H_    0.652082 0.121257 0.287896 0.181926
H7    H     H_    0.509462 0.138874 0.326861 0.219545
O10   O     O_3   0.400227 0.666194 0.782470 -0.488675
C41   C     C_3   0.468594 0.731162 0.726048 0.134950
H8    H     H_    0.429970 0.730747 0.661231 0.192669
H9    H     H_    0.555492 0.707193 0.713833 0.048755
C42   C     C_3   0.469288 0.842175 0.762429 -0.680763
H10   H     H_    0.522393 0.850850 0.820334 0.274068
H11   H     H_    0.502797 0.895317 0.709642 0.170736
H12   H     H_    0.383638 0.864436 0.783107 0.298130
F1    F     F_    0.000175 0.398402 0.315471 -0.609625
F2    F     F_    0.001521 0.567210 0.696165 -0.604002
F3    F     F_    0.482472 0.673215 0.241675 -0.659300
F4    F     F_    0.568275 0.335891 0.755750 -0.576437
F5    F     F_    0.418319 0.761363 0.108666 -0.572441
F6    F     F_    0.568118 0.230554 0.893314 -0.557047
F7    F     F_    0.391852 0.760421 0.933529 -0.592633
F8    F     F_    0.544588 0.217705 0.070884 -0.606633
O11   O     O_3   0.665091 0.181702 0.546126 -0.511734
C43   C     C_3   0.735957 0.175065 0.467036 0.173026
H13   H     H_    0.712466 0.230524 0.417479 0.156176
H14   H     H_    0.734111 0.096671 0.434465 0.124015
C44   C     C_3   0.854802 0.202784 0.489846 -0.684449
H15   H     H_    0.886657 0.142316 0.531242 0.265123
H16   H     H_    0.908792 0.209105 0.427227 0.217833
H17   H     H_    0.858734 0.277627 0.527789 0.242390
O12   O     O_3   0.335133 0.824824 0.480977 -0.577380
C45   C     C_3   0.324993 0.827274 0.387460 0.221451
H18   H     H_    0.371731 0.763748 0.354366 0.205250
H19   H     H_    0.355978 0.902160 0.358076 0.154675
C46   C     C_3   0.203293 0.811034 0.368017 -0.793145
H20   H     H_    0.156822 0.880143 0.390252 0.288509
H21   H     H_    0.195528 0.798113 0.294867 0.229216
H22   H     H_    0.166076 0.743052 0.404219 0.213635
O13   O     O_3   0.735848 0.006892 0.586419 -0.578519
C47   C     C_3   0.770670 0.952399 0.659604 0.064062
H23   H     H_    0.824653 0.889230 0.634571 0.127922
H24   H     H_    0.699775 0.919499 0.702350 0.142044
C48   C     C_3   0.837637 0.026087 0.718438 -0.687661
H25   H     H_    0.785297 0.089678 0.745128 0.303980
H26   H     H_    0.866842 0.983782 0.775466 0.206366
H27   H     H_    0.910720 0.059614 0.679104 0.235271
O14   O     O_3   0.243358 0.993504 0.519902 -0.587047
C49   C     C_3   0.202759 0.973557 0.608605 0.181309
H28   H     H_    0.187421 0.047585 0.646161 0.134961
H29   H     H_    0.261497 0.928313 0.644900 0.159994
C50   C     C_3   0.093792 0.910430 0.606121 -0.790964
H30   H     H_    0.107777 0.834297 0.572095 0.271736
H31   H     H_    0.058769 0.897308 0.675506 0.219346
H32   H     H_    0.033432 0.952249 0.569150 0.245071
O15   O     O_3   0.194193 0.461301 0.364675 -0.517919
C51   C     C_3   0.189195 0.543784 0.304779 0.173810
H33   H     H_    0.255811 0.602961 0.317490 0.158767
H34   H     H_    0.108552 0.582724 0.310665 0.117854
C52   C     C_3   0.206263 0.503091 0.208473 -0.656443
H35   H     H_    0.131795 0.457266 0.188402 0.294440
H36   H     H_    0.221106 0.568820 0.162540 0.194746
H37   H     H_    0.278157 0.452789 0.201516 0.250783
O16   O     O_3   0.805031 0.535574 0.636390 -0.503937
C53   C     C_3   0.797261 0.643621 0.649685 0.169833
H38   H     H_    0.724844 0.669321 0.616724 0.126984
H39   H     H_    0.872392 0.688734 0.623382 0.115184
C54   C     C_3   0.778746 0.668776 0.749646 -0.725566
H40   H     H_    0.707553 0.621387 0.778775 0.233627
H41   H     H_    0.853221 0.652807 0.785713 0.314356
H42   H     H_    0.761081 0.751726 0.760166 0.165189
F9    F     F_    0.220726 0.584365 0.664587 -0.572709
F10   F     F_    0.780096 0.408553 0.337771 -0.661460

loop_
_geom_bond_atom_site_label_1
_geom_bond_atom_site_label_2
_ccdc_geom_bond_type
C8    C13   A    
C27   C29   A    
C24   C27   S    
C1    O3    A    
C44   H17   S    
C6    C9    A    
C48   H25   S    
O9    C39   S    
C2    O4    A    
C50   H31   S    
O13   C47   S    
C19   C21   A    
C26   O10   S    
C25   O9    S    
C18   F9    S    
C15   F1    S    
C43   H14   S    
C17   F10   S    
C23   O7    A    
C54   H41   S    
C49   C50   S    
C7    C9    A    
C53   H38   S    
C54   H42   S    
C41   H9    S    
C48   H26   S    
C17   N2    A    
C1    O1    A    
C15   C22   A    
C2    O2    A    
C42   H11   S    
C31   C33   A    
C32   C38   A    
C46   H21   S    
C3    F7    S    
C8    O14   S    
O10   C41   S    
C19   N2    A    
O11   C43   S    
C52   H37   S    
O2    Zn2   S    
C4    C35   A    
C13   C14   A    
C49   H28   S    
C20   N1    A    
C44   H16   S    
O8    Zn1   S    
C51   H34   S    
C7    C14   A    
C24   O8    A    
C7    O13   S    
C50   H32   S    
C39   H4    S    
C23   O5    A    
C45   H19   S    
C1    C6    S    
C24   O6    A    
O14   C49   S    
C16   F2    S    
C5    C12   A    
C18   N1    A    
C6    C11   A    
C43   H13   S    
C40   H7    S    
O5    Zn1   S    
O3    Zn2   S    
O12   C45   S    
O4    Zn1   S    
C9    H2    S    
C44   H15   S    
C51   H33   S    
C10   H1    S    
C53   C54   S    
C32   C34   A    
C47   H24   S    
C41   H8    S    
C42   H12   S    
C12   O11   S    
C33   C34   A    
C23   C28   S    
C46   H22   S    
C49   H29   S    
C51   C52   S    
C19   O16   S    
C54   H40   S    
C25   C35   A    
C26   C36   A    
C12   C14   A    
C2    C5    S    
C48   H27   S    
C52   H35   S    
C38   F6    S    
C15   C17   A    
C37   F5    S    
C39   H3    S    
C41   C42   S    
C45   H18   S    
C8    C10   A    
O7    Zn2   S    
C20   C22   A    
C45   C46   S    
C30   F4    S    
C16   C21   A    
C25   C27   A    
C50   H30   S    
C26   C28   A    
C47   C48   S    
C28   C30   A    
C5    C10   A    
C29   C31   A    
O16   C53   S    
C30   C32   A    
C11   C13   A    
C43   C44   S    
O1    Zn1   S    
C40   H5    S    
C3    C36   A    
C11   O12   S    
C33   C35   A    
C34   C36   A    
C47   H23   S    
C53   H39   S    
C4    F8    S    
C40   H6    S    
C20   O15   S    
C31   C37   A    
O6    Zn2   S    
C3    C37   A    
C16   C18   A    
C42   H10   S    
O15   C51   S    
C4    C38   A    
C29   F3    S    
C46   H20   S    
C21   C22   A    
N1    Zn1   S    
N2    Zn2   S    
C52   H36   S    
C39   C40   S    
