data_mof_unit_11988.cif
_audit_creation_date              2012-12-11T14:19:21-0500
_audit_creation_method            fapswitch 2.2
_symmetry_space_group_name_H-M    P1
_symmetry_Int_Tables_number       1
_space_group_crystal_system       triclinic
_cell_length_a                    19.412583
_cell_length_b                    7.2467
_cell_length_c                    17.7284
_cell_angle_alpha                 90.000804
_cell_angle_beta                  107.653193
_cell_angle_gamma                 89.999822
_cell_volume                      2376.53833801

loop_
_atom_site_label
_atom_site_type_symbol
_atom_type_description
_atom_site_fract_x
_atom_site_fract_y
_atom_site_fract_z
_atom_type_partial_charge
O1    O     O_R   0.414820 0.494320 0.416790 -0.515108
O2    O     O_R   0.585180 0.994320 0.583210 -0.515116
O3    O     O_R   0.560270 0.819500 0.430140 -0.545842
O4    O     O_R   0.439730 0.319500 0.569860 -0.545838
C1    C     C_R   0.581263 0.655488 0.414843 0.708874
C2    C     C_R   0.418737 0.155490 0.585157 0.708903
O5    O     O_R   0.413840 0.823740 0.407440 -0.545080
O6    O     O_R   0.586160 0.323740 0.592560 -0.545076
O7    O     O_R   0.437710 0.998590 0.560350 -0.541017
O8    O     O_R   0.562290 0.498590 0.439650 -0.541017
C3    C     C_R   0.389460 0.654734 0.383174 0.725522
C4    C     C_R   0.610540 0.154736 0.616825 0.725549
O9    O     O_3   0.508000 0.662290 0.550200 -0.369101
O10   O     O_3   0.492000 0.162290 0.449800 -0.369102
V1    V     V_3+5 0.498520 0.935380 0.490690 1.484970
V2    V     V_3+5 0.501480 0.435380 0.509310 1.484987
C5    C     C_2   0.787412 0.266752 0.784022 -0.147323
C6    C     C_2   0.212593 0.766758 0.215973 -0.147362
C7    C     C_2   0.824261 0.111992 0.813304 -0.335030
C8    C     C_2   0.175738 0.612001 0.186697 -0.335035
H1    H     H_    0.807101 0.399516 0.810142 0.161188
H2    H     H_    0.192910 0.899520 0.189846 0.161185
H3    H     H_    0.807197 0.981501 0.783275 0.138119
H4    H     H_    0.192796 0.481515 0.216732 0.138131
C9    C     C_2   0.723963 0.267273 0.711067 -0.216420
C10   C     C_2   0.276043 0.767284 0.288928 -0.216409
C11   C     C_2   0.669561 0.141647 0.693245 -0.139489
C12   C     C_2   0.330437 0.641636 0.306756 -0.139461
C13   C     C_R   0.322929 0.296782 0.634865 -0.212619
C14   C     C_R   0.677095 0.796752 0.365169 -0.212625
C15   C     C_R   0.369323 0.147848 0.634555 -0.074298
C16   C     C_R   0.630681 0.647843 0.365450 -0.074314
C17   C     C_R   0.367917 0.992009 0.681294 -0.189753
C18   C     C_R   0.632077 0.492023 0.318692 -0.189768
C19   C     C_R   0.321460 0.985122 0.728573 0.042093
C20   C     C_R   0.678546 0.485129 0.271428 0.042204
C21   C     C_R   0.274380 0.133377 0.727710 0.070112
C22   C     C_R   0.725649 0.633358 0.272324 0.069978
C23   C     C_R   0.274968 0.289665 0.680227 0.114453
C24   C     C_R   0.725068 0.789630 0.319820 0.114339
C25   C     C_R   0.321864 0.832209 0.776842 -0.154524
C26   C     C_R   0.678146 0.332221 0.223151 -0.154557
C27   C     C_R   0.275741 0.822133 0.824663 -0.033908
C28   C     C_R   0.724303 0.322141 0.175373 -0.033791
C29   C     C_R   0.226803 0.970203 0.822902 0.003789
C30   C     C_R   0.773237 0.470202 0.177140 0.003795
C31   C     C_R   0.226784 0.125939 0.774263 0.076707
C32   C     C_R   0.773259 0.625916 0.225787 0.076553
C33   C     C_R   0.179424 0.275783 0.772257 0.117956
C34   C     C_R   0.820631 0.775739 0.227809 0.117751
C35   C     C_R   0.179737 0.428684 0.723780 -0.193791
C36   C     C_R   0.820327 0.928620 0.276301 -0.194290
C37   C     C_R   0.227385 0.436111 0.678598 -0.179526
C38   C     C_R   0.772669 0.936053 0.321473 -0.179825
C39   C     C_R   0.178499 0.969809 0.868696 -0.209371
C40   C     C_R   0.821499 0.469844 0.131300 -0.209210
C41   C     C_R   0.131372 0.118496 0.866786 -0.060597
C42   C     C_R   0.868646 0.618497 0.133233 -0.060582
C43   C     C_R   0.132593 0.271443 0.818831 -0.222956
C44   C     C_R   0.867460 0.771401 0.181229 -0.222996
H5    H     H_    0.177391 0.856662 0.907700 0.112487
H6    H     H_    0.822527 0.356767 0.092226 0.112498
H7    H     H_    0.143758 0.544220 0.721714 0.119541
H8    H     H_    0.856318 0.044139 0.278385 0.119626
H9    H     H_    0.227103 0.556870 0.642449 0.122712
H10   H     H_    0.772956 0.056800 0.357632 0.122805
O11   O     O_R   0.937810 0.773680 0.060480 -0.536829
O12   O     O_R   0.062190 0.273680 0.939520 -0.536837
O13   O     O_R   0.086190 0.439740 0.092580 -0.541243
O14   O     O_R   0.913810 0.939740 0.907420 -0.541240
C45   C     C_R   0.111542 0.608259 0.115629 0.743651
C46   C     C_R   0.888458 0.108257 0.884371 0.743697
O15   O     O_R   0.939760 0.444210 0.069890 -0.544286
O16   O     O_R   0.060240 0.944210 0.930110 -0.544295
O17   O     O_R   0.914790 0.269640 0.916760 -0.536103
O18   O     O_R   0.085210 0.769640 0.083240 -0.536107
C47   C     C_R   0.918876 0.612297 0.084620 0.695881
C48   C     C_R   0.081127 0.112295 0.915382 0.695857
O19   O     O_3   0.992050 0.601530 0.949880 -0.380090
O20   O     O_3   0.007950 0.101530 0.050120 -0.380087
V3    V     V_3+5 0.001480 0.328340 0.009300 1.401758
V4    V     V_3+5 0.998520 0.828340 0.990700 1.401752
H11   H     H_    0.096412 0.386493 0.817036 0.123623
H12   H     H_    0.903653 0.886430 0.183039 0.123625
H13   H     H_    0.722039 0.379873 0.670014 0.146207
H14   H     H_    0.277973 0.879907 0.329973 0.146223
C49   C     C_2   0.662550 0.001222 0.752112 0.375892
H15   H     H_    0.694894 0.010491 0.813665 0.080120
O21   O     O_2   0.618615 0.875951 0.733050 -0.518649
C50   C     C_2   0.337437 0.501173 0.247895 0.375785
H16   H     H_    0.305100 0.510444 0.186340 0.080051
O22   O     O_2   0.381357 0.375867 0.266964 -0.518665
H17   H     H_    0.323190 0.417141 0.598608 0.119205
H18   H     H_    0.676842 0.917093 0.401438 0.119218
H19   H     H_    0.403893 0.877185 0.681867 0.143747
H20   H     H_    0.596087 0.377220 0.318099 0.143741
H21   H     H_    0.358458 0.719132 0.776839 0.175538
H22   H     H_    0.641556 0.219116 0.223138 0.175370
C51   C     C_2   0.280379 0.654677 0.874930 0.419197
H23   H     H_    0.239204 0.621503 0.902287 0.029887
O23   O     O_2   0.330919 0.547188 0.885627 -0.509795
C52   C     C_2   0.719748 0.154639 0.125171 0.419297
H24   H     H_    0.761276 0.120735 0.098410 0.029826
O24   O     O_2   0.668913 0.047917 0.113914 -0.509624

loop_
_geom_bond_atom_site_label_1
_geom_bond_atom_site_label_2
_ccdc_geom_bond_type
C14   C16   A    
C49   H15   S    
C20   C26   A    
O11   C47   A    
O2    C4    A    
C2    O7    A    
C31   C33   A    
O5    C3    A    
O12   V3    S    
C19   C21   A    
C18   H20   S    
C26   H22   S    
C45   O18   A    
C52   O24   D    
C41   C43   A    
C42   C44   A    
O13   C45   A    
C25   H21   S    
C42   C47   S    
C17   C19   A    
C8    H4    S    
C28   C30   A    
C33   C35   A    
C6    C10   S    
C34   C36   A    
C15   C17   A    
C8    C45   S    
C21   C31   A    
C37   H9    S    
C22   C32   A    
C10   H14   S    
C1    C16   S    
O5    V1    S    
C2    C15   S    
O6    V2    S    
C22   C24   A    
C13   C15   A    
C25   C27   A    
C7    C46   S    
C26   C28   A    
O16   V4    S    
C46   O17   A    
O14   V4    S    
C17   H19   S    
O15   V3    S    
C36   C38   A    
C29   C31   A    
O12   C48   A    
C30   C32   A    
C4    C11   S    
C35   H7    S    
O4    C2    A    
C36   H8    S    
O18   V4    S    
C28   C52   S    
O17   V3    S    
C5    H1    S    
C35   C37   A    
C16   C18   A    
O4    V2    S    
C7    H3    S    
C50   O22   D    
C51   H23   S    
O6    C4    A    
C13   C23   A    
C9    H13   S    
C14   C24   A    
O1    V2    S    
C11   C49   S    
O2    V1    S    
C27   C29   A    
C51   O23   D    
C24   C38   A    
C39   C41   A    
C40   H6    S    
O3    V1    S    
C6    H2    S    
C41   C48   S    
C43   H11   S    
O20   V3    S    
O3    C1    A    
O19   V4    S    
C12   C50   S    
C38   H10   S    
C9    C11   D    
C10   C12   D    
C33   C43   A    
C5    C9    S    
C20   C22   A    
O7    V1    S    
C34   C44   A    
C1    O8    A    
C21   C23   A    
O8    V2    S    
C27   C51   S    
C13   H17   S    
C44   H12   S    
C50   H16   S    
C23   C37   A    
C3    C12   S    
C39   H5    S    
C32   C34   A    
C5    C7    D    
C18   C20   A    
C40   C42   A    
C6    C8    D    
C52   H24   S    
C19   C25   A    
O13   V3    S    
C29   C39   A    
O11   V4    S    
C14   H18   S    
O16   C48   A    
O9    V2    S    
C30   C40   A    
C49   O21   D    
O15   C47   A    
O10   V1    S    
O14   C46   A    
O1    C3    A    
