data_mof_unit_31832.cif
_audit_creation_date              2012-10-26T21:24:48-0400
_audit_creation_method            fapswitch 2.2
_symmetry_space_group_name_H-M    P1
_symmetry_Int_Tables_number       1
_space_group_crystal_system       triclinic
_cell_length_a                    9.55667
_cell_length_b                    10.841088
_cell_length_c                    15.495595
_cell_angle_alpha                 89.877031
_cell_angle_beta                  74.445305
_cell_angle_gamma                 90.491471
_cell_volume                      1546.54457711

loop_
_atom_site_label
_atom_site_type_symbol
_atom_type_description
_atom_site_fract_x
_atom_site_fract_y
_atom_site_fract_z
_atom_type_partial_charge
C1    C     C_R   0.998695 0.262491 0.501702 0.563736
C2    C     C_R   0.224614 0.519382 0.042629 0.052876
C3    C     C_R   0.325533 0.489605 0.091737 0.035721
C4    C     C_R   0.918319 0.498194 0.672008 0.541389
C5    C     C_R   0.077454 0.536283 0.086709 -0.137127
C6    C     C_R   0.028853 0.525633 0.179429 -0.130185
C7    C     C_R   0.274089 0.483248 0.185577 -0.127765
C8    C     C_R   0.117924 0.065005 0.513794 -0.003703
C9    C     C_R   0.993939 0.129567 0.510185 0.027427
C10   C     C_R   0.863857 0.063350 0.518453 -0.143917
C11   C     C_R   0.864700 0.934603 0.518085 -0.147886
C12   C     C_R   0.671791 0.478802 0.906097 0.034999
C13   C     C_R   0.995528 0.870950 0.509790 0.022236
C14   C     C_R   0.118477 0.938100 0.514480 -0.002367
C15   C     C_3   0.272351 0.932923 0.458560 -0.268480
C16   C     C_R   0.999719 0.737735 0.501340 0.550242
C17   C     C_3   0.272485 0.073448 0.458222 -0.053304
C18   C     C_R   0.607319 0.526362 0.423540 0.171110
C19   C     C_R   0.541957 0.461276 0.572844 -0.014918
C20   C     C_R   0.393349 0.461698 0.572941 -0.013489
C21   C     C_R   0.460129 0.525245 0.423294 0.193904
C22   C     C_3   0.478364 0.641074 0.369565 -0.280607
C23   C     C_R   0.770339 0.436890 0.953512 0.048702
C24   C     C_3   0.636413 0.643402 0.370912 -0.278196
C25   C     C_R   0.081828 0.499908 0.327882 0.558901
C26   C     C_R   0.872817 0.485743 0.769824 0.001160
C27   C     C_R   0.127509 0.501612 0.229500 0.009049
C28   C     C_R   0.917147 0.418825 0.908827 -0.142391
C29   C     C_R   0.968092 0.442639 0.817384 -0.139516
C30   C     C_R   0.727513 0.507063 0.814675 -0.132942
C31   C     C_2   0.292619 0.130301 0.366587 0.597801
C32   C     C_R   0.521545 0.490672 0.951386 0.036293
C33   C     C_R   0.474393 0.470507 0.045704 0.033993
C34   C     C_R   0.577081 0.429842 0.090416 -0.136703
C35   C     C_R   0.721529 0.412344 0.044822 -0.134696
C36   C     C_R   0.416436 0.518868 0.905133 -0.136431
C37   C     C_R   0.271179 0.532534 0.950072 -0.136554
Cu1   Cu    Cu3+1 0.140670 0.499980 0.500000 0.965715
Cu2   Cu    Cu3+1 0.859330 0.500020 0.500000 0.948603
H1    H     H_    0.795823 0.379556 0.081609 0.117922
H2    H     H_    0.463637 0.626052 0.301625 0.128920
H3    H     H_    0.346615 0.467312 0.226605 0.115985
H4    H     H_    0.414848 0.717406 0.407465 0.141351
H5    H     H_    0.711968 0.630742 0.303517 0.123964
H6    H     H_    0.664049 0.721648 0.409818 0.147847
H7    H     H_    0.915062 0.539174 0.211842 0.120705
H8    H     H_    0.194779 0.554597 0.911867 0.109814
H9    H     H_    0.992043 0.383950 0.944369 0.113871
H10   H     H_    0.080766 0.424598 0.783659 0.116780
H11   H     H_    0.660408 0.546423 0.776235 0.114825
H12   H     H_    0.000071 0.559373 0.049515 0.113375
H13   H     H_    0.549324 0.406899 0.160569 0.104399
H14   H     H_    0.441519 0.528006 0.833423 0.095064
H15   H     H_    0.401207 0.254563 0.275772 0.326958
H16   H     H_    0.763335 0.110298 0.520777 0.138513
H17   H     H_    0.764558 0.885694 0.520128 0.130088
H18   H     H_    0.345284 0.894279 0.496700 0.111011
H19   H     H_    0.281565 0.890095 0.392112 0.158694
H20   H     H_    0.345135 0.114152 0.496180 0.115533
H21   H     H_    0.570171 0.430842 0.632390 0.116711
H22   H     H_    0.311900 0.432238 0.632466 0.108106
N1    N     N_R   0.648210 0.500930 0.499430 -0.233410
N2    N     N_R   0.352300 0.500890 0.499430 -0.225957
O1    O     O_R   0.118810 0.319640 0.500000 -0.485210
O2    O     O_R   0.396944 0.223357 0.338120 -0.696063
O3    O     O_R   0.881230 0.319680 0.499990 -0.501987
O4    O     O_R   0.055580 0.499970 0.629840 -0.514980
O5    O     O_R   0.818000 0.500010 0.629830 -0.519129
O6    O     O_R   0.118770 0.680320 0.500010 -0.502789
O7    O     O_R   0.881190 0.680360 0.500000 -0.511033
O8    O     O_R   0.182000 0.499990 0.370170 -0.496874
O9    O     O_R   0.944420 0.500030 0.370160 -0.498147
O10   O     O_2   0.218350 0.095981 0.317806 -0.517540

loop_
_geom_bond_atom_site_label_1
_geom_bond_atom_site_label_2
_ccdc_geom_bond_type
C18   C21   A    
Cu2   O5    S    
C19   C20   A    
H15   O2    S    
C29   H10   S    
C12   C23   A    
C18   C24   S    
C24   H6    S    
C32   C36   A    
C36   C37   A    
C3    C7    A    
Cu1   Cu2   S    
C31   O10   D    
C22   H2    S    
C3    C33   A    
C19   N1    A    
C7    C27   A    
C31   O2    S    
C34   C35   A    
C7    H3    S    
C20   H22   S    
C36   H14   S    
C28   H9    S    
C6    C27   A    
C8    C9    A    
Cu2   O9    S    
C25   O8    A    
C37   H8    S    
C9    C10   A    
C30   H11   S    
Cu1   O6    S    
C13   C14   A    
C12   C32   A    
C15   H18   S    
C1    O3    A    
Cu1   O1    S    
C16   O7    A    
C4    O5    A    
C18   N1    A    
C22   H4    S    
C33   C34   A    
C1    C9    S    
C25   O9    A    
C23   C28   A    
C10   H16   S    
C17   H20   S    
C26   C30   A    
C23   C35   A    
C17   C31   S    
Cu2   O3    S    
C22   C24   S    
C2    C5    A    
C1    O1    A    
Cu1   N2    S    
C15   C17   S    
Cu2   N1    S    
Cu1   O8    S    
C28   C29   A    
C8    C14   A    
C6    H7    S    
C12   C30   A    
C16   O6    A    
C4    O4    A    
C4    C26   S    
C19   H21   S    
C25   C27   S    
C34   H13   S    
C8    C17   S    
C32   C33   A    
C20   N2    A    
C2    C3    A    
C11   C13   A    
C2    C37   A    
C5    C6    A    
C24   H5    S    
C15   H19   S    
Cu2   O7    S    
C35   H1    S    
C21   N2    A    
C10   C11   A    
Cu1   O4    S    
C26   C29   A    
C13   C16   S    
C14   C15   S    
C5    H12   S    
C21   C22   S    
C11   H17   S    
