data_mof_unit_24888.cif
_audit_creation_date              2012-12-11T14:59:15-0500
_audit_creation_method            fapswitch 2.2
_symmetry_space_group_name_H-M    P1
_symmetry_Int_Tables_number       1
_space_group_crystal_system       triclinic
_cell_length_a                    8.292048
_cell_length_b                    14.962282
_cell_length_c                    18.829879
_cell_angle_alpha                 99.872928
_cell_angle_beta                  91.816407
_cell_angle_gamma                 99.259959
_cell_volume                      2267.36692499

loop_
_atom_site_label
_atom_site_type_symbol
_atom_type_description
_atom_site_fract_x
_atom_site_fract_y
_atom_site_fract_z
_atom_type_partial_charge
Ba1   Ba    Ba6+2 0.854120 0.540280 0.465540 1.749072
Ba2   Ba    Ba6+2 0.335710 0.459790 0.534460 1.775827
C1    C     C_3   0.670575 0.870502 0.267681 0.685665
C2    C     C_3   0.598197 0.769598 0.269386 0.286772
C3    C     C_3   0.437270 0.309916 0.311715 0.305890
C4    C     C_3   0.370338 0.268511 0.234905 -0.215905
C5    C     C_3   0.076087 0.268539 0.727136 0.428798
C6    C     C_3   0.103197 0.241266 0.800294 -0.247846
C7    C     C_3   0.566836 0.207572 0.693987 0.741351
C8    C     C_3   0.644146 0.158540 0.747404 -0.241290
C9    C     C_R   0.998184 0.443030 0.044421 -0.067182
C10   C     C_R   0.894878 0.405441 0.095922 0.407759
C11   C     C_R   0.821010 0.367714 0.934387 -0.000154
C12   C     C_3   0.133688 0.717811 0.271897 0.399674
C13   C     C_R   0.952866 0.433160 0.968818 0.046703
C14   C     C_R   0.754397 0.372544 0.867003 -0.094996
C15   C     C_R   0.838860 0.428519 0.823483 -0.025444
C16   C     C_R   0.992263 0.481898 0.850348 0.034421
C17   C     C_R   0.047340 0.486426 0.924189 0.035853
C18   C     C_R   0.779671 0.427374 0.752237 0.024193
C19   C     C_R   0.885057 0.467125 0.704978 -0.201282
C20   C     C_R   0.034884 0.523367 0.729957 0.046872
C21   C     C_R   0.087994 0.532170 0.804212 -0.006291
C22   C     C_R   0.155987 0.493760 0.070582 -0.019260
C23   C     C_3   0.109419 0.733918 0.194938 -0.218720
C24   C     C_R   0.213496 0.498625 0.144175 0.008925
C25   C     C_R   0.112557 0.455578 0.192447 -0.109979
C26   C     C_R   0.959288 0.405929 0.165606 -0.053167
C27   C     C_R   0.231845 0.590760 0.834412 0.043833
C28   C     C_R   0.285120 0.595750 0.906214 -0.043641
C29   C     C_R   0.197985 0.541707 0.951936 0.017282
C30   C     C_R   0.256854 0.541076 0.023968 0.016160
C31   C     C_R   0.415918 0.585231 0.050638 -0.023951
C32   C     C_R   0.373262 0.545738 0.169171 -0.000097
C33   C     C_R   0.473124 0.586108 0.120811 0.005616
C34   C     C_3   0.213552 0.764400 0.642203 0.589614
C35   C     C_R   0.429154 0.551456 0.241905 -0.004790
C36   C     C_R   0.322481 0.514279 0.289894 -0.284422
C37   C     C_R   0.165342 0.465751 0.266888 0.031695
C38   C     C_R   0.758344 0.234903 0.523269 -0.276921
C39   C     C_R   0.850754 0.176556 0.549268 -0.014382
C40   C     C_R   0.790123 0.081967 0.539977 -0.079737
C41   C     C_R   0.638562 0.043839 0.500342 0.051366
C42   C     C_R   0.556004 0.104495 0.468992 -0.045718
C43   C     C_R   0.613127 0.198740 0.482243 0.041990
C44   C     C_R   0.404533 0.909444 0.460585 -0.041114
C45   C     C_3   0.114462 0.844489 0.651449 0.353374
C46   C     C_R   0.339589 0.815878 0.449347 -0.008349
C47   C     C_R   0.584559 0.786212 0.507800 0.123485
C48   C     C_R   0.654044 0.879053 0.514869 -0.065391
C49   C     C_R   0.566419 0.942985 0.490859 0.024635
C50   C     C_R   0.430425 0.754229 0.472465 -0.263114
C51   C     C_3   0.944354 0.255180 0.374378 0.317570
C52   C     C_3   0.921627 0.150476 0.354969 0.224768
C53   C     C_3   0.767889 0.700431 0.694498 0.586828
C54   C     C_3   0.775307 0.751065 0.772747 0.263814
H1    H     H_    0.535653 0.767608 0.320626 -0.090943
H2    H     H_    0.145323 0.886394 0.608836 0.026555
H3    H     H_    0.983456 0.819630 0.643295 -0.033717
H4    H     H_    0.824713 0.275712 0.386271 -0.075833
H5    H     H_    0.030591 0.279004 0.422746 0.059080
H6    H     H_    0.854427 0.126999 0.301541 0.160712
H7    H     H_    0.850773 0.118461 0.395497 -0.020452
H8    H     H_    0.889422 0.689726 0.677380 -0.049272
H9    H     H_    0.730310 0.903456 0.321545 -0.009246
H10   H     H_    0.840157 0.822487 0.776922 0.146346
H11   H     H_    0.649273 0.754971 0.790029 0.101992
H12   H     H_    0.508319 0.743448 0.222616 0.002714
H13   H     H_    0.337556 0.337500 0.341553 0.008339
H14   H     H_    0.540598 0.366878 0.310389 0.043253
H15   H     H_    0.263833 0.213295 0.235567 0.173656
H16   H     H_    0.330054 0.322026 0.207846 0.072085
H17   H     H_    0.466361 0.238702 0.203644 0.194952
H18   H     H_    0.174275 0.688140 0.157684 0.035962
H19   H     H_    0.164321 0.332082 0.724823 0.061109
H20   H     H_    0.949337 0.282385 0.721824 -0.173535
H21   H     H_    0.229950 0.227844 0.807325 0.168819
H22   H     H_    0.083956 0.297549 0.844119 0.021934
H23   H     H_    0.016501 0.177932 0.804562 0.154422
H24   H     H_    0.664062 0.237418 0.661545 -0.164736
H25   H     H_    0.700306 0.101501 0.717931 0.135542
H26   H     H_    0.550636 0.130302 0.782251 0.178457
H27   H     H_    0.054549 0.651922 0.276205 0.057830
H28   H     H_    0.741616 0.206504 0.782223 0.004796
H29   H     H_    0.843436 0.460614 0.649006 0.086389
H30   H     H_    0.641219 0.327115 0.848013 0.093568
H31   H     H_    0.882265 0.369701 0.200137 0.153169
H32   H     H_    0.305109 0.634606 0.803425 0.125737
H33   H     H_    0.597569 0.619674 0.136509 0.104112
H34   H     H_    0.364640 0.520308 0.345735 0.059751
H35   H     H_    0.767587 0.310895 0.958326 0.164088
H36   H     H_    0.394848 0.644497 0.924673 0.096090
H37   H     H_    0.263249 0.711562 0.282087 -0.102909
H38   H     H_    0.503177 0.617051 0.017483 0.109420
H39   H     H_    0.323959 0.954196 0.446516 0.123737
H40   H     H_    0.864639 0.040526 0.563314 0.090150
H41   H     H_    0.773863 0.899714 0.541975 0.078296
H42   H     H_    0.448878 0.080728 0.432714 0.128874
H43   H     H_    0.376897 0.682366 0.467201 0.065329
H44   H     H_    0.805084 0.307932 0.530789 0.049495
H45   H     H_    0.977356 0.718390 0.177477 0.160078
H46   H     H_    0.157884 0.806309 0.191196 0.214512
H47   H     H_    0.191387 0.724476 0.586324 -0.093409
O1    O     O_2   0.871030 0.438240 0.324420 -0.462512
O2    O     O_3   0.697357 0.753498 0.652131 -0.596504
O3    O     O_3   0.091791 0.791411 0.320961 -0.526581
O4    O     O_2   0.318670 0.561790 0.675630 -0.402907
O5    O     O_3   0.069120 0.554770 0.586270 -0.505879
O6    O     O_3   0.526680 0.394150 0.629950 -0.415193
O7    O     O_3   0.182627 0.709116 0.695642 -0.605386
O8    O     O_3   0.607620 0.388570 0.462320 -0.492812
O9    O     O_3   0.103380 0.345110 0.593380 -0.519584
O10   O     O_2   0.180738 0.181406 0.539839 -0.388957
O11   O     O_3   0.101033 0.196490 0.672590 -0.523678
O12   O     O_3   0.120590 0.445310 0.413740 -0.499208
O13   O     O_3   0.582100 0.611510 0.537680 -0.438767
O14   O     O_2   0.334040 0.276520 0.462890 -0.424634
O15   O     O_3   0.492620 0.240857 0.342809 -0.592994
O16   O     O_2   0.449475 0.445779 0.762502 -0.458164
O17   O     O_3   0.478076 0.272234 0.730875 -0.621724
O18   O     O_3   0.663040 0.605930 0.370050 -0.477762
O19   O     O_2   0.767837 0.545421 0.245119 -0.445273
O20   O     O_3   0.002478 0.291916 0.314869 -0.633329
O21   O     O_3   0.723076 0.715826 0.265450 -0.595801
O22   O     O_2   0.855660 0.723510 0.537160 -0.512668
O23   O     O_3   0.086340 0.654970 0.406630 -0.503067
O24   O     O_2   0.002200 0.817396 0.453730 -0.481235
P1    P     P_3+3 0.038110 0.412300 0.335300 0.980001
P2    P     P_3+3 0.679950 0.711710 0.558590 1.089796
P3    P     P_3+3 0.130683 0.772747 0.408807 1.020900
P4    P     P_3+3 0.151600 0.587780 0.664700 1.044989
P5    P     P_3+3 0.057920 0.225344 0.588613 1.037314
P6    P     P_3+3 0.642326 0.604151 0.277949 0.989737
P7    P     P_3+3 0.511886 0.274155 0.436769 1.022585
P8    P     P_3+3 0.560778 0.384323 0.720043 1.026444
S1    S     S_3+6 0.148350 0.920251 0.737804 0.000230
O25   O     O_2   0.303797 0.988017 0.739404 -0.222075
O26   O     O_2   0.008687 0.972890 0.749010 -0.276562
O27   O     O_3   0.160508 0.860086 0.805017 -0.450972
H48   H     H_    0.278375 0.871300 0.821425 0.378497
Cl1   Cl    Cl    0.113575 0.111542 0.351107 -0.646050
Cl2   Cl    Cl    0.645591 0.593719 0.689070 -0.654973
Cl3   Cl    Cl    0.875717 0.696960 0.834213 -0.646585
S2    S     S_3+6 0.514147 0.932842 0.246133 -0.057417
O28   O     O_2   0.585114 0.032821 0.251744 -0.258815
O29   O     O_2   0.444536 0.895076 0.170251 -0.254141
O30   O     O_3   0.364943 0.922884 0.303689 -0.582032
H49   H     H_    0.281065 0.955654 0.286402 0.415778
Cl4   Cl    Cl    0.820754 0.879151 0.202229 -0.549927
Cl5   Cl    Cl    0.427077 0.123117 0.634682 -0.595327
S3    S     S_3+6 0.677502 0.370338 0.085085 -0.115367
O31   O     O_2   0.638544 0.267589 0.061562 -0.291783
O32   O     O_2   0.603841 0.394152 0.156140 -0.334156
O33   O     O_3   0.590705 0.422569 0.025346 -0.546089
H50   H     H_    0.477667 0.387998 0.015181 0.358172
Cl6   Cl    Cl    0.417518 0.820651 0.656224 -0.671516

loop_
_geom_bond_atom_site_label_1
_geom_bond_atom_site_label_2
_ccdc_geom_bond_type
C14   H30   S    
C53   C54   S    
Ba2   O6    S    
O10   P5    D    
C20   P4    S    
O6    P8    S    
C32   C35   A    
C39   C40   A    
C9    C22   A    
O30   H49   S    
Ba1   P1    S    
C17   C29   A    
C31   H38   S    
C5    C6    S    
C51   C52   S    
C13   C17   A    
Ba2   O9    S    
C43   P7    S    
C27   C28   A    
O21   P6    S    
C10   C26   A    
C34   H47   S    
C40   H40   S    
C21   C27   A    
C5    O11   S    
C35   C36   A    
Ba1   O22   S    
C23   H18   S    
Ba1   P2    S    
S2    O30   S    
C3    C4    S    
C45   S1    S    
C23   H46   S    
C52   H7    S    
O23   P3    S    
Ba2   O4    S    
C15   C18   A    
C2    O21   S    
C34   C45   S    
C32   C33   A    
S3    O33   S    
Ba2   O5    S    
O5    P4    S    
C3    H13   S    
C54   Cl3   S    
C9    C13   A    
C24   C32   A    
O13   P2    S    
C25   C37   A    
C14   C15   A    
C27   H32   S    
C2    H1    S    
C6    H23   S    
S3    O31   D    
Ba1   O13   S    
C7    C8    S    
C12   H37   S    
O15   P7    S    
C18   P8    S    
C53   Cl2   S    
C19   C20   A    
C11   H35   S    
C6    H22   S    
C10   S3    S    
C46   P3    S    
C1    H9    S    
C51   H5    S    
C12   H27   S    
S1    O27   S    
O14   P7    D    
Ba2   O14   S    
C48   C49   A    
C44   C46   A    
C38   C43   A    
Ba2   O8    S    
C19   H29   S    
C7    Cl5   S    
C1    Cl4   S    
C45   H3    S    
Ba2   P4    S    
C44   H39   S    
C16   C21   A    
C36   C37   A    
Ba1   O23   S    
O4    P4    D    
C51   O20   S    
C2    H12   S    
C16   C17   A    
C5    H19   S    
C52   H6    S    
C47   P2    S    
C44   C49   A    
C8    H26   S    
O16   P8    D    
O12   P1    S    
C7    H24   S    
C4    H16   S    
C41   C42   A    
C22   C30   A    
O19   P6    D    
C3    H14   S    
Ba2   O12   S    
C29   C30   A    
O1    P1    D    
C12   O3    S    
O27   H48   S    
C47   C50   A    
C53   H8    S    
C26   H31   S    
C51   H4    S    
C15   C16   A    
C24   C25   A    
O7    P4    S    
O9    P5    S    
Ba1   O1    S    
O33   H50   S    
C33   H33   S    
S2    O29   D    
C38   C39   A    
C53   O2    S    
C11   C13   A    
C34   O7    S    
C6    H21   S    
C35   P6    S    
C40   C41   A    
C1    C2    S    
C42   C43   A    
C34   Cl6   S    
C4    H17   S    
O3    P3    S    
C48   H41   S    
C37   P1    S    
C50   H43   S    
O11   P5    S    
C1    S2    S    
C22   C24   A    
S2    O28   D    
C38   H44   S    
C39   P5    S    
O2    P2    S    
C9    C10   A    
O8    P7    S    
C5    H20   S    
C54   H11   S    
C36   H34   S    
C8    H25   S    
C3    O15   S    
O17   P8    S    
C30   C31   A    
O24   P3    D    
Ba1   O8    S    
C45   H2    S    
C23   H45   S    
O20   P1    S    
C28   C29   A    
C41   C49   S    
C54   H10   S    
Ba1   Ba2   S    
C8    H28   S    
C31   C33   A    
Ba2   O13   S    
S3    O32   D    
C12   C23   S    
Ba1   O18   S    
Ba1   O5    S    
C42   H42   S    
O22   P2    D    
C46   C50   A    
C52   Cl1   S    
C18   C19   A    
C47   C48   A    
C11   C14   A    
S1    O26   D    
C25   C26   A    
C7    O17   S    
C20   C21   A    
S1    O25   D    
Ba1   O12   S    
O18   P6    S    
C4    H15   S    
C28   H36   S    
