data_mof_unit_47157.cif
_audit_creation_date              2012-12-10T16:44:13-0500
_audit_creation_method            fapswitch 2.2
_symmetry_space_group_name_H-M    P1
_symmetry_Int_Tables_number       1
_space_group_crystal_system       triclinic
_cell_length_a                    7.424924
_cell_length_b                    8.694266
_cell_length_c                    13.40011
_cell_angle_alpha                 94.029418
_cell_angle_beta                  77.21571
_cell_angle_gamma                 103.155782
_cell_volume                      821.269461307

loop_
_atom_site_label
_atom_site_type_symbol
_atom_type_description
_atom_site_fract_x
_atom_site_fract_y
_atom_site_fract_z
_atom_type_partial_charge
C1    C     C_R   0.545350 0.800222 0.503010 0.885749
C2    C     C_R   0.417792 0.509651 0.975772 0.098004
C3    C     C_R   0.464832 0.555952 0.872050 0.082868
C4    C     C_R   0.559875 0.549319 0.035297 0.081191
C5    C     C_R   0.738604 0.645853 0.993403 0.106333
C6    C     C_R   0.773720 0.704733 0.895391 -0.220089
C7    C     C_R   0.638134 0.662716 0.836243 -0.199157
C8    C     C_R   0.530407 0.495475 0.135097 -0.259086
C9    C     C_R   0.844997 0.637612 0.151540 0.242446
C10   C     C_R   0.336396 0.495374 0.807003 -0.109845
C11   C     C_2   0.570937 0.968074 0.504465 -0.361509
C12   C     C_R   0.399190 0.497920 0.694563 0.768551
C13   C     C_2   0.429145 0.031903 0.495389 -0.356399
C14   C     C_R   0.454678 0.199777 0.496947 0.884088
C15   C     C_R   0.602931 0.514515 0.305755 0.838577
C16   C     C_R   0.879733 0.686146 0.050782 -0.205938
C17   C     C_R   0.666266 0.544459 0.195304 -0.120321
C18   C     C_R   0.152154 0.414476 0.849519 -0.194214
C19   C     C_R   0.098814 0.383998 0.953460 -0.145669
C20   C     C_R   0.230179 0.427223 0.015727 -0.152623
Cu1   Cu    Cu3+1 0.321300 0.483160 0.488710 0.974854
Cu2   Cu    Cu3+1 0.678700 0.516840 0.511290 0.975489
H1    H     H_    0.292502 0.960486 0.486777 0.190530
H2    H     H_    0.010770 0.617457 0.579432 0.219787
H3    H     H_    0.989217 0.382606 0.420551 0.235273
H4    H     H_    0.906935 0.783987 0.864138 0.143818
H5    H     H_    0.016398 0.759353 0.017994 0.169798
H6    H     H_    0.400257 0.416578 0.169027 0.166448
H7    H     H_    0.050541 0.370145 0.801785 0.163133
H8    H     H_    0.178625 0.397703 0.095220 0.153822
H9    H     H_    0.955817 0.322021 0.985604 0.153155
H10   H     H_    0.669947 0.718254 0.762876 0.160628
H11   H     H_    0.707594 0.039479 0.513050 0.180065
N1    N     N_2   0.947230 0.542220 0.528320 -0.204123
N2    N     N_2   0.052770 0.457780 0.471680 -0.197569
O1    O     O_R   0.383920 0.714220 0.492660 -0.576758
O2    O     O_R   0.685730 0.742660 0.511730 -0.579693
O3    O     O_R   0.275440 0.478800 0.636790 -0.592898
O4    O     O_R   0.577250 0.507240 0.655860 -0.585299
O5    O     O_R   0.314270 0.257340 0.488270 -0.584347
O6    O     O_R   0.616080 0.285780 0.507340 -0.586412
O7    O     O_R   0.422750 0.492760 0.344140 -0.568914
O8    O     O_R   0.724560 0.521200 0.363210 -0.547005
Br1   Br    Br    0.044470 0.712036 0.224878 -0.526740

loop_
_geom_bond_atom_site_label_1
_geom_bond_atom_site_label_2
_ccdc_geom_bond_type
C2    C4    A    
C6    C7    A    
Cu1   N2    S    
C15   O7    A    
C8    C17   A    
C1    C11   S    
C1    O2    A    
C4    C8    A    
C19   H9    S    
C12   O4    A    
C2    C3    A    
C15   O8    A    
Cu1   O1    S    
C20   H8    S    
C13   C14   S    
C11   C13   D    
C6    H4    S    
Cu1   O5    S    
C10   C12   S    
H3    N2    S    
C14   O6    A    
Cu2   N1    S    
Cu2   O4    S    
C9    C17   A    
C9    C16   A    
C10   C18   A    
C18   C19   A    
C3    C7    A    
C12   O3    A    
C5    C6    A    
C8    H6    S    
Cu2   O6    S    
C18   H7    S    
Cu1   O7    S    
C11   H11   S    
C13   H1    S    
C15   C17   S    
N1    N2    D    
C16   H5    S    
C3    C10   A    
C2    C20   A    
C9    Br1   S    
C7    H10   S    
Cu1   Cu2   S    
Cu2   O2    S    
C14   O5    A    
Cu2   O8    S    
H2    N1    S    
Cu1   O3    S    
C19   C20   A    
C1    O1    A    
C4    C5    A    
C5    C16   A    
