data_mof_unit_34348.cif
_audit_creation_date              2012-12-10T17:33:59-0500
_audit_creation_method            fapswitch 2.2
_symmetry_space_group_name_H-M    P1
_symmetry_Int_Tables_number       1
_space_group_crystal_system       triclinic
_cell_length_a                    10.665754
_cell_length_b                    12.018406
_cell_length_c                    12.874206
_cell_angle_alpha                 92.778152
_cell_angle_beta                  90.467327
_cell_angle_gamma                 86.140804
_cell_volume                      1644.5876475

loop_
_atom_site_label
_atom_site_type_symbol
_atom_type_description
_atom_site_fract_x
_atom_site_fract_y
_atom_site_fract_z
_atom_type_partial_charge
C1    C     C_R   0.497819 0.521604 0.700312 0.881729
C2    C     C_R   0.483858 0.448987 0.974747 0.187580
C3    C     C_R   0.513474 0.550954 0.025331 0.187327
C4    C     C_R   0.742006 0.500697 0.505455 0.850779
C5    C     C_R   0.522806 0.557962 0.131938 -0.271506
C6    C     C_R   0.471944 0.363914 0.138902 -0.215477
C7    C     C_R   0.463829 0.355653 0.031540 -0.211140
C8    C     C_R   0.428959 0.953481 0.378026 -0.422749
C9    C     C_R   0.423654 0.839302 0.393364 0.156035
C10   C     C_R   0.529691 0.859484 0.555551 -0.087391
C11   C     C_R   0.530140 0.976564 0.544728 0.091922
C12   C     C_3   0.121451 0.499271 0.500842 0.132692
C13   C     C_R   0.479473 0.023224 0.454208 0.112907
C14   C     C_R   0.477881 0.139490 0.442624 -0.064662
C15   C     C_R   0.574592 0.163991 0.607312 0.030058
C16   C     C_R   0.501801 0.478359 0.299707 0.889263
C17   C     C_R   0.579568 0.048363 0.621421 -0.326199
C18   C     C_R   0.257716 0.499841 0.499532 0.865698
C19   C     C_3   0.937306 0.435857 0.600865 -0.160671
C20   C     C_3   0.081349 0.427814 0.590737 -0.450347
C21   C     C_3   0.926842 0.445861 0.401383 -0.421901
C22   C     C_3   0.919759 0.621672 0.517317 -0.431884
C23   C     C_3   0.069445 0.456605 0.392726 -0.057082
C24   C     C_3   0.878470 0.499848 0.506683 0.065534
C25   C     C_2   0.891659 0.320976 0.614612 0.429920
C26   C     C_2   0.358109 0.775370 0.311639 0.445246
C27   C     C_3   0.137921 0.354331 0.333383 -0.401281
C28   C     C_3   0.140009 0.241503 0.385564 -0.306643
C29   C     C_3   0.162414 0.144383 0.305617 -0.918962
C30   C     C_3   0.062712 0.620501 0.523633 -0.435384
C31   C     C_R   0.500386 0.465442 0.188589 -0.048416
C32   C     C_R   0.497957 0.534455 0.811475 -0.044694
C33   C     C_R   0.532890 0.644474 0.968673 -0.221909
C34   C     C_R   0.524950 0.636273 0.861343 -0.205808
C35   C     C_R   0.475646 0.441755 0.868022 -0.265460
H1    H     H_    0.094786 0.679069 0.466616 0.231692
H2    H     H_    0.438220 0.175954 0.373471 0.131573
H3    H     H_    0.912559 0.487172 0.673241 0.163283
H4    H     H_    0.610597 0.218915 0.667721 0.179694
H5    H     H_    0.390071 0.988256 0.307638 0.141504
H6    H     H_    0.619939 0.015871 0.692180 0.150607
H7    H     H_    0.571971 0.822207 0.623415 0.126441
H8    H     H_    0.123194 0.458531 0.665456 0.158368
H9    H     H_    0.118935 0.339930 0.578507 0.174727
H10   H     H_    0.901723 0.357860 0.393267 0.177080
H11   H     H_    0.886334 0.669158 0.449030 0.201645
H12   H     H_    0.878653 0.488703 0.335758 0.149589
H13   H     H_    0.878542 0.666055 0.588305 0.178679
H14   H     H_    0.091590 0.652252 0.602359 0.183126
H15   H     H_    0.899699 0.257384 0.552065 0.060677
H16   H     H_    0.374652 0.790147 0.230515 0.014918
H17   H     H_    0.082573 0.142165 0.249778 0.267728
H18   H     H_    0.250412 0.152941 0.262065 0.251316
H19   H     H_    0.169956 0.064496 0.345774 0.260162
H20   H     H_    0.216433 0.235997 0.444209 0.238016
H21   H     H_    0.050682 0.230220 0.425187 0.208240
H22   H     H_    0.090603 0.345621 0.256300 0.210328
H23   H     H_    0.080671 0.525837 0.339534 0.160232
H24   H     H_    0.236027 0.373113 0.316231 0.197686
H25   H     H_    0.546740 0.635930 0.170706 0.143068
H26   H     H_    0.453833 0.292110 0.182874 0.152243
H27   H     H_    0.555072 0.723019 0.007143 0.135400
H28   H     H_    0.441143 0.277210 0.993162 0.139267
H29   H     H_    0.542468 0.708316 0.817522 0.153780
H30   H     H_    0.453089 0.363435 0.829085 0.155561
N1    N     N_R   0.523380 0.207800 0.519350 -0.111556
N2    N     N_R   0.476620 0.792180 0.480650 -0.108105
O1    O     O_R   0.506240 0.421700 0.658830 -0.624474
O2    O     O_2   0.277908 0.712876 0.332961 -0.582661
O3    O     O_R   0.491240 0.609310 0.646410 -0.638181
O4    O     O_R   0.692710 0.406190 0.506230 -0.618055
O5    O     O_R   0.677700 0.593810 0.493810 -0.631676
O6    O     O_R   0.508760 0.390690 0.353590 -0.638581
O7    O     O_R   0.493760 0.578300 0.341170 -0.605005
O8    O     O_R   0.322300 0.406190 0.506190 -0.640945
O9    O     O_R   0.307290 0.593810 0.493770 -0.571329
O10   O     O_2   0.844850 0.298804 0.696679 -0.592977
Zn1   Zn    Zn3+2 0.510020 0.374730 0.508290 0.941779
Zn2   Zn    Zn3+2 0.489980 0.625270 0.491710 0.968013

loop_
_geom_bond_atom_site_label_1
_geom_bond_atom_site_label_2
_ccdc_geom_bond_type
C2    C35   A    
C23   H23   S    
C22   H13   S    
C8    C13   A    
C10   H7    S    
C2    C7    A    
O9    Zn2   S    
C28   H21   S    
C10   N2    A    
C16   C31   S    
C12   C23   S    
C18   O8    A    
C16   O7    A    
C6    H26   S    
C28   C29   S    
O5    Zn2   S    
C4    C24   S    
C29   H19   S    
C35   H30   S    
C1    O1    A    
C25   H15   S    
C19   C20   S    
C8    C9    A    
O6    Zn1   S    
C23   C27   S    
C6    C31   A    
C13   C14   A    
C20   H9    S    
C28   H20   S    
C9    C26   S    
C21   H10   S    
O1    Zn1   S    
N1    Zn1   S    
C16   O6    A    
C32   C35   A    
N2    Zn2   S    
C27   H22   S    
C33   H27   S    
C15   N1    A    
C1    C32   S    
C32   C34   A    
C9    N2    A    
C19   H3    S    
C7    H28   S    
C12   C20   S    
C34   H29   S    
C33   C34   A    
C14   N1    A    
C15   H4    S    
C22   H11   S    
C30   H14   S    
O7    Zn2   S    
C21   C23   S    
C25   O10   D    
C4    O5    A    
C20   H8    S    
C15   C17   A    
C11   C17   A    
C18   O9    A    
C22   C30   S    
C5    H25   S    
C12   C30   S    
O3    Zn2   S    
C3    C5    A    
C6    C7    A    
C1    O3    A    
C30   H1    S    
C2    C3    A    
C27   H24   S    
C26   H16   S    
C14   H2    S    
C11   C13   A    
C29   H18   S    
C19   C24   S    
C22   C24   S    
O4    Zn1   S    
C19   C25   S    
O8    Zn1   S    
C17   H6    S    
C10   C11   A    
C21   C24   S    
C12   C18   S    
C27   C28   S    
C26   O2    D    
C3    C33   A    
C8    H5    S    
C5    C31   A    
C4    O4    A    
C21   H12   S    
C29   H17   S    
