data_mof_unit_21464.cif
_audit_creation_date              2013-03-05T15:42:47-0500
_audit_creation_method            fapswitch 2.2
_symmetry_space_group_name_H-M    P1
_symmetry_Int_Tables_number       1
_space_group_crystal_system       triclinic
_cell_length_a                    6.943191
_cell_length_b                    14.960865
_cell_length_c                    16.099911
_cell_angle_alpha                 90.523531
_cell_angle_beta                  89.248931
_cell_angle_gamma                 90.04796
_cell_volume                      1672.18273506

loop_
_atom_site_label
_atom_site_type_symbol
_atom_site_description
_atom_site_fract_x
_atom_site_fract_y
_atom_site_fract_z
_atom_type_partial_charge
O1    O     O_R   0.494400 0.416610 0.413880 -0.549442
O2    O     O_R   0.823920 0.406790 0.585520 -0.539568
O3    O     O_R   0.994250 0.583390 0.586120 -0.553137
C1    C     C_R   0.653474 0.385620 0.614079 0.840888
O4    O     O_R   0.824110 0.405730 0.414490 -0.532103
O5    O     O_R   0.994440 0.582310 0.413870 -0.583003
C2    C     C_R   0.655588 0.382683 0.387192 0.895757
O6    O     O_R   0.494210 0.417690 0.586130 -0.518479
O7    O     O_3   0.660810 0.557940 0.500000 -0.284054
V1    V     V_3+5 0.935650 0.489250 0.500000 1.267286
O8    O     O_R   0.324160 0.593210 0.414480 -0.535425
C3    C     C_R   0.155859 0.616637 0.388179 0.817172
O9    O     O_R   0.323970 0.594270 0.585510 -0.554539
C4    C     C_R   0.153490 0.614681 0.615256 0.861538
V2    V     V_3+5 0.435660 0.510750 0.500000 1.265243
O10   O     O_3   0.160630 0.442060 0.500000 -0.226640
C5    C     C_R   0.183793 0.568206 0.795708 0.192092
C6    C     C_R   0.241228 0.548781 0.876248 -0.042702
C7    C     C_R   0.272601 0.616510 0.934335 0.305636
C8    C     C_R   0.233888 0.704691 0.912156 -0.136230
C9    C     C_R   0.177806 0.727120 0.830569 -0.051448
C10   C     C_R   0.168078 0.658341 0.768751 -0.015082
C11   C     C_R   0.128602 0.816568 0.811191 -0.073857
C12   C     C_R   0.089622 0.839601 0.727140 -0.050279
C13   C     C_R   0.083166 0.770855 0.665100 -0.055761
C14   C     C_R   0.134679 0.681692 0.684352 -0.074784
C15   C     C_R   0.059348 0.929685 0.701689 0.273636
C16   C     C_R   0.991978 0.947633 0.621993 -0.068991
C17   C     C_R   0.971414 0.879481 0.563948 0.280624
C18   C     C_R   0.023500 0.792788 0.583960 -0.084496
H1    H     H_    0.253996 0.479657 0.894635 0.207514
H2    H     H_    0.248287 0.755456 0.959765 0.105001
H3    H     H_    0.966015 0.015945 0.603444 0.164603
H4    H     H_    0.013019 0.742969 0.535204 0.100025
C19   C     C_2   0.004489 0.700796 0.275839 -0.100476
C20   C     C_2   0.148254 0.693437 0.331246 0.116510
H5    H     H_    0.895099 0.648854 0.274077 0.115840
C21   C     C_2   0.974779 0.778356 0.219964 0.361927
C22   C     C_2   0.122836 0.812138 0.174564 -0.191119
H6    H     H_    0.264891 0.783595 0.181909 0.172569
C23   C     C_2   0.768746 0.231775 0.800002 0.374043
C24   C     C_2   0.622917 0.172827 0.812469 -0.137241
H7    H     H_    0.512907 0.164566 0.765867 0.142562
C25   C     C_2   0.783908 0.283936 0.721340 -0.139835
C26   C     C_2   0.632924 0.326258 0.687123 0.140533
H8    H     H_    0.925981 0.291955 0.693878 0.196485
C27   C     C_2   0.780233 0.195928 0.225728 0.285357
C28   C     C_2   0.615889 0.174174 0.184636 -0.250004
H9    H     H_    0.478165 0.198896 0.207441 0.127449
C29   C     C_2   0.781441 0.253851 0.302425 0.276221
C30   C     C_2   0.645083 0.316833 0.318014 -0.256615
H10   H     H_    0.524292 0.324127 0.276641 0.093204
O11   O     O_R   0.770210 0.079270 0.910680 -0.534396
O12   O     O_R   0.440150 0.091160 0.082270 -0.530578
O13   O     O_R   0.269970 0.914530 0.082860 -0.547123
C31   C     C_R   0.608667 0.111540 0.112192 0.926828
O14   O     O_R   0.440480 0.090100 0.911240 -0.508518
O15   O     O_R   0.270310 0.913460 0.910610 -0.550990
C32   C     C_R   0.610713 0.111752 0.883626 0.904814
O16   O     O_R   0.769870 0.080340 0.082930 -0.517488
O17   O     O_3   0.603660 0.938980 0.996790 -0.291364
V3    V     V_3+5 0.328750 0.007610 0.996740 1.342828
O18   O     O_R   0.940600 0.902510 0.911180 -0.579567
C33   C     C_R   0.110795 0.883782 0.880237 0.848991
O19   O     O_R   0.940270 0.903570 0.082200 -0.533984
C34   C     C_R   0.108335 0.882422 0.110721 0.884718
V4    V     V_3+5 0.828770 0.986010 0.996670 1.311136
O20   O     O_3   0.103730 0.054750 0.996710 -0.219779
Br1   Br    Br    0.883880 0.905894 0.454761 -0.365974
Br2   Br    Br    0.331000 0.787994 0.351745 -0.396373
N1    N     N_R   0.781715 0.810428 0.210388 0.117287
O21   O     O_R   0.642324 0.753746 0.198922 -0.309779
O22   O     O_R   0.740704 0.893476 0.227573 -0.271185
N2    N     N_R   0.911917 0.246196 0.862515 0.126247
O23   O     O_R   0.091053 0.257983 0.841081 -0.218515
O24   O     O_R   0.860544 0.258547 0.939818 -0.327710
N3    N     N_R   0.447180 0.322045 0.726396 0.095531
O25   O     O_R   0.424718 0.349234 0.802903 -0.309995
O26   O     O_R   0.301912 0.289255 0.686002 -0.288709
N4    N     N_R   0.961318 0.158644 0.199261 0.125051
O27   O     O_R   0.078939 0.205774 0.153847 -0.306044
O28   O     O_R   0.017028 0.082018 0.227982 -0.283306
N5    N     N_R   0.934795 0.241206 0.360498 0.129584
O29   O     O_R   0.113788 0.249436 0.336872 -0.295206
O30   O     O_R   0.895169 0.220296 0.437133 -0.319744
Br3   Br    Br    0.085134 0.467237 0.736691 -0.468965
N6    N     N_R   0.334665 0.595403 0.016923 0.102987
O31   O     O_R   0.356995 0.512682 0.039225 -0.304802
O32   O     O_R   0.375731 0.658693 0.069749 -0.349184
N7    N     N_R   0.125897 0.004035 0.749733 0.076862
O33   O     O_R   0.309236 0.010261 0.764142 -0.374520
O34   O     O_R   0.020372 0.075489 0.756204 -0.363470

loop_
_geom_bond_atom_site_label_1
_geom_bond_atom_site_label_2
_geom_bond_distance
_ccdc_geom_bond_type
O15   V3    2.012385 S    
N6    O31   1.301731 A    
C23   C24   1.356350 D    
C7    C8    1.397109 A    
C12   C15   1.428741 A    
C1    O6    1.293586 A    
O11   C32   1.292158 A    
O14   V3    2.005286 S    
N3    O25   1.301127 A    
N2    O24   1.301771 A    
C16   C17   1.385344 A    
C19   H5    1.086609 S    
C7    N6    1.440946 S    
O5    C3    1.296807 A    
C21   C22   1.353750 D    
O14   C32   1.299165 A    
V2    O10   2.167793 S    
O13   V3    2.011898 S    
C15   N7    1.428955 S    
C6    C7    1.391562 A    
C23   N2    1.438593 S    
O8    V2    2.019312 S    
N5    O29   1.300983 A    
O16   V4    2.009443 S    
C20   Br2   1.928620 S    
O19   V4    2.019240 S    
C11   C12   1.428793 A    
O1    V2    2.005710 S    
C3    C20   1.477752 S    
O7    V1    2.168144 S    
O9    C4    1.306431 A    
C27   N4    1.433992 S    
C25   H8    1.082725 S    
C29   N5    1.439917 S    
C5    C6    1.394824 A    
C27   C29   1.502160 S    
C17   Br1   1.912289 S    
C1    C26   1.485438 S    
N3    O26   1.300557 A    
O15   C33   1.293188 A    
O18   V4    2.000018 S    
N2    O23   1.298715 A    
C18   H4    1.080606 S    
V4    O20   2.167724 S    
C19   C21   1.490843 S    
C12   C13   1.428231 A    
N4    O28   1.301063 A    
C22   H6    1.083439 S    
O4    C2    1.300444 A    
O12   V3    2.012898 S    
C13   C14   1.419392 A    
C5    Br3   1.908660 S    
C19   C20   1.352620 D    
O2    C1    1.303850 A    
C17   C18   1.388627 A    
O17   V4    1.713501 S    
N7    O34   1.299125 A    
C27   C28   1.364144 D    
C29   C30   1.355789 D    
C4    C14   1.495223 S    
O3    C4    1.292418 A    
C28   H9    1.083928 S    
N5    O30   1.301483 A    
C16   H3    1.083270 S    
O6    V2    2.019294 S    
C9    C11   1.419886 A    
C22   C34   1.481537 S    
C24   H7    1.083885 S    
O2    V1    2.005229 S    
O13   C34   1.296639 A    
C25   C26   1.351285 D    
N1    O22   1.301379 A    
C8    H2    1.079617 S    
C13   C18   1.417069 A    
C28   C31   1.490788 S    
C21   N1    1.434825 S    
C11   C33   1.496125 S    
O1    C2    1.295814 A    
N4    O27   1.300588 A    
C24   C32   1.473428 S    
O5    V1    2.011812 S    
O8    C3    1.297699 A    
O12   C31   1.305962 A    
C5    C10   1.425093 A    
V3    O20   1.714705 S    
O9    V2    2.000051 S    
O7    V2    1.714752 S    
C2    C30   1.482675 S    
C30   H10   1.084022 S    
O3    V1    2.012405 S    
V1    O10   1.714753 S    
N7    O33   1.300024 A    
C23   C25   1.496120 S    
O17   V3    2.168161 S    
O11   V4    2.019825 S    
O18   C33   1.306010 A    
C31   O16   1.294455 A    
O4    V1    2.012786 S    
N1    O21   1.300129 A    
C8    C9    1.418208 A    
O19   C34   1.299984 A    
C10   C14   1.428042 A    
C15   C16   1.399804 A    
N6    O32   1.300926 A    
C26   N3    1.430455 S    
C6    H1    1.082316 S    
C9    C10   1.427187 A    
