data_mof_unit_27198.cif
_audit_creation_date              2012-12-10T17:05:17-0500
_audit_creation_method            fapswitch 2.2
_symmetry_space_group_name_H-M    P1
_symmetry_Int_Tables_number       1
_space_group_crystal_system       triclinic
_cell_length_a                    10.111151
_cell_length_b                    10.655356
_cell_length_c                    15.380661
_cell_angle_alpha                 91.807518
_cell_angle_beta                  67.83372
_cell_angle_gamma                 94.579954
_cell_volume                      1529.70814971

loop_
_atom_site_label
_atom_site_type_symbol
_atom_type_description
_atom_site_fract_x
_atom_site_fract_y
_atom_site_fract_z
_atom_type_partial_charge
C1    C     C_R   0.504782 0.737284 0.501386 0.934796
C2    C     C_R   0.737310 0.512086 0.026903 0.154137
C3    C     C_R   0.606032 0.562715 0.082641 0.110502
C4    C     C_R   0.410459 0.508293 0.676015 0.883423
C5    C     C_R   0.826173 0.468224 0.069083 -0.148655
C6    C     C_R   0.780562 0.465065 0.166640 -0.128034
C7    C     C_R   0.569012 0.567309 0.179931 -0.148313
C8    C     C_2   0.608493 0.071541 0.438321 -0.247922
C9    C     C_2   0.487460 0.129355 0.478807 0.009054
C10   C     C_2   0.603125 0.936414 0.429655 0.215721
C11   C     C_2   0.519643 0.869891 0.504980 -0.306760
C12   C     C_R   0.435151 0.577699 0.907294 0.045992
C13   C     C_2   0.090878 0.422627 0.452707 0.410504
C14   C     C_2   0.932629 0.405562 0.479742 -0.148115
C15   C     C_R   0.496165 0.261936 0.496333 0.890434
C16   C     C_R   0.590310 0.501361 0.323983 0.893899
C17   C     C_R   0.358808 0.544669 0.775840 -0.143392
C18   C     C_R   0.649374 0.511561 0.221926 -0.058513
C19   C     C_R   0.223435 0.675422 0.908485 0.151882
C20   C     C_R   0.245936 0.624710 0.818105 0.097310
C21   C     C_R   0.447848 0.520208 0.822311 -0.249576
C22   C     C_R   0.310574 0.641799 0.957077 -0.017305
C23   C     C_R   0.541818 0.566775 0.945099 0.088546
C24   C     C_R   0.510748 0.596647 0.040453 0.035198
C25   C     C_R   0.380425 0.649900 0.091945 -0.183915
C26   C     C_R   0.280212 0.669010 0.052895 0.192475
C27   C     C_R   0.679417 0.527943 0.889749 -0.179091
C28   C     C_R   0.775650 0.501570 0.930261 -0.178806
H1    H     H_    0.927221 0.430580 0.026855 0.158014
H2    H     H_    0.349946 0.675685 0.164577 0.184248
H3    H     H_    0.715680 0.518371 0.814366 0.161575
H4    H     H_    0.065510 0.170854 0.357936 0.360978
H5    H     H_    0.712987 0.123243 0.414506 0.179796
H6    H     H_    0.462969 0.914376 0.571997 0.150491
H7    H     H_    0.076985 0.532309 0.561158 0.170492
H8    H     H_    0.885246 0.312420 0.473777 0.156258
H9    H     H_    0.474217 0.608500 0.226252 0.175643
H10   H     H_    0.845792 0.424128 0.198694 0.191942
H11   H     H_    0.877889 0.467499 0.886266 0.166891
H12   H     H_    0.529359 0.455083 0.790075 0.168153
I1    I     I_    0.073761 0.693203 0.157336 -0.209171
I2    I     I_    0.276597 0.042153 0.501128 -0.226633
I3    I     I_    0.722174 0.857298 0.297685 -0.225403
I4    I     I_    0.942177 0.684837 0.473828 -0.153947
I5    I     I_    0.095928 0.835010 0.952131 -0.212431
I6    I     I_    0.114285 0.678277 0.745252 -0.308264
N1    N     N_2   0.148330 0.498670 0.499030 -0.217166
N2    N     N_2   0.852680 0.498640 0.499000 -0.046319
O1    O     O_R   0.386950 0.680940 0.500010 -0.576214
O2    O     O_2   0.311376 0.279356 0.355418 -0.263127
O3    O     O_3   0.085497 0.243030 0.314641 -0.525108
O4    O     O_R   0.613110 0.680900 0.499990 -0.579542
O5    O     O_R   0.322330 0.500030 0.632270 -0.598030
O6    O     O_R   0.548480 0.499990 0.632240 -0.608412
O7    O     O_R   0.386890 0.319100 0.500010 -0.556306
O8    O     O_R   0.613050 0.319060 0.499990 -0.640090
O9    O     O_R   0.451520 0.500010 0.367760 -0.546907
O10   O     O_R   0.677670 0.499970 0.367730 -0.593382
O11   O     O_2   0.255087 0.444852 0.271414 -0.274640
S1    S     S_3+6 0.192525 0.347212 0.347026 0.080823
Zn1   Zn    Zn3+2 0.349000 0.500030 0.500020 1.057267
Zn2   Zn    Zn3+2 0.651000 0.499970 0.499980 1.023045

loop_
_geom_bond_atom_site_label_1
_geom_bond_atom_site_label_2
_ccdc_geom_bond_type
N1    Zn1   S    
C14   N2    D    
C23   C24   A    
C6    H10   S    
H4    O3    S    
O10   Zn2   S    
C23   C27   A    
C4    O5    A    
C10   I3    S    
N2    Zn2   S    
C19   C20   A    
C1    C11   S    
C16   O9    A    
C7    C18   A    
H7    N1    S    
C15   O8    A    
C17   C20   A    
C19   I5    S    
C2    C3    A    
C7    H9    S    
O2    S1    D    
O11   S1    D    
C13   S1    S    
C16   O10   A    
C13   C14   S    
O9    Zn1   S    
C12   C23   A    
C9    I2    S    
C21   H12   S    
O5    Zn1   S    
C4    C17   S    
O7    Zn1   S    
C8    C10   S    
C3    C7    A    
C8    H5    S    
C14   H8    S    
C5    C6    A    
C6    C18   A    
C1    O4    A    
O8    Zn2   S    
C2    C5    A    
O1    Zn1   S    
C10   C11   D    
C27   H3    S    
C5    H1    S    
C12   C22   A    
C25   H2    S    
C19   C22   A    
C24   C25   A    
C16   C18   S    
C22   C26   A    
C27   C28   A    
C13   N1    D    
C2    C28   A    
O3    S1    S    
O6    Zn2   S    
C28   H11   S    
C4    O6    A    
C25   C26   A    
C9    C15   S    
C1    O1    A    
C12   C21   A    
O4    Zn2   S    
C11   H6    S    
C17   C21   A    
I4    N2    S    
C26   I1    S    
C3    C24   A    
C8    C9    D    
C20   I6    S    
C15   O7    A    
