data_mof_unit_23009.cif
_audit_creation_date              2013-03-05T15:46:41-0500
_audit_creation_method            fapswitch 2.2
_symmetry_space_group_name_H-M    P1
_symmetry_Int_Tables_number       1
_space_group_crystal_system       triclinic
_cell_length_a                    15.877053
_cell_length_b                    11.015126
_cell_length_c                    9.920873
_cell_angle_alpha                 110.052141
_cell_angle_beta                  98.45943
_cell_angle_gamma                 92.237009
_cell_volume                      1604.63844271

loop_
_atom_site_label
_atom_site_type_symbol
_atom_site_description
_atom_site_fract_x
_atom_site_fract_y
_atom_site_fract_z
_atom_type_partial_charge
O1    O     O_R   0.507840 0.332340 0.577400 -0.548846
O2    O     O_R   0.492160 0.667660 0.422600 -0.530421
O3    O     O_R   0.483020 0.295500 0.332650 -0.561698
O4    O     O_R   0.516980 0.704500 0.667350 -0.554571
C1    C     C_R   0.489885 0.255633 0.442727 0.901415
C2    C     C_R   0.504133 0.745479 0.557260 0.877278
O5    O     O_R   0.391490 0.518400 0.622350 -0.552760
O6    O     O_R   0.608510 0.481600 0.377650 -0.552906
O7    O     O_R   0.366660 0.481570 0.377600 -0.534580
O8    O     O_R   0.633340 0.518430 0.622400 -0.553669
C3    C     C_R   0.340284 0.499865 0.500464 0.802788
C4    C     C_R   0.659717 0.500116 0.499504 0.836591
Cu1   Cu    Cu3+1 0.514700 0.521810 0.644910 1.135251
Cu2   Cu    Cu3+1 0.485300 0.478190 0.355090 1.156615
C5    C     C_3   0.970402 0.387584 0.505778 0.331927
C6    C     C_3   0.029540 0.611161 0.493488 0.337865
C7    C     C_3   0.015607 0.401120 0.383800 0.013241
C8    C     C_3   0.984351 0.597632 0.615474 0.011335
C9    C     C_1   0.251022 0.500134 0.501503 -0.037659
C10   C     C_1   0.748961 0.499338 0.498229 -0.029940
C11   C     C_3   0.038932 0.485612 0.622651 -0.001025
C12   C     C_3   0.961012 0.513133 0.376622 0.002877
C13   C     C_3   0.084179 0.500424 0.500613 -0.041324
C14   C     C_3   0.915763 0.498334 0.498669 -0.042569
C15   C     C_1   0.175703 0.500370 0.501457 0.086832
C16   C     C_1   0.824252 0.498678 0.498016 0.089588
C17   C     C_2   0.457312 0.124808 0.420996 -0.077684
C18   C     C_2   0.510873 0.884371 0.579328 -0.114605
C19   C     C_2   0.510847 0.040487 0.449598 0.242941
C20   C     C_2   0.475524 0.921552 0.467379 0.289867
N1    N     N_2   0.463210 0.445420 0.137360 -0.115396
N2    N     N_2   0.536790 0.554580 0.862640 -0.121701
C21   C     C_2   0.515158 0.499073 0.077537 0.392784
C22   C     C_2   0.498608 0.479224 0.917812 0.387223
C23   C     C_3   0.033255 0.289348 0.253196 -0.684085
H1    H     H_    0.972016 0.233092 0.189686 0.252199
H2    H     H_    0.065852 0.328170 0.182855 0.238815
H3    H     H_    0.074910 0.224728 0.290960 0.256170
C24   C     C_3   0.966813 0.709436 0.746143 -0.682672
H4    H     H_    0.028096 0.765588 0.809590 0.251779
H5    H     H_    0.925206 0.774146 0.708458 0.260216
H6    H     H_    0.934221 0.670659 0.816521 0.235789
N3    N     N_R   0.939539 0.263733 0.512545 0.144806
O9    O     O_R   0.992871 0.178273 0.518178 -0.288463
O10   O     O_R   0.859003 0.237786 0.512982 -0.278083
N4    N     N_R   0.060387 0.734993 0.486647 0.143713
O11   O     O_R   0.007055 0.820467 0.481082 -0.285274
O12   O     O_R   0.140881 0.760814 0.485798 -0.294882
C25   C     C_3   0.917071 0.529552 0.237803 -0.648948
H7    H     H_    0.965646 0.539827 0.171642 0.233770
H8    H     H_    0.871287 0.443249 0.173868 0.247831
H9    H     H_    0.881869 0.617488 0.265775 0.272957
C26   C     C_3   0.082856 0.469157 0.761468 -0.653421
H10   H     H_    0.034272 0.458900 0.827620 0.235315
H11   H     H_    0.118031 0.381192 0.733487 0.266890
H12   H     H_    0.128658 0.555433 0.825432 0.249354
N5    N     N_R   0.406652 0.840582 0.357269 0.124070
O13   O     O_R   0.405314 0.824481 0.220834 -0.268739
O14   O     O_R   0.342682 0.789246 0.394406 -0.319655
N6    N     N_R   0.602649 0.060195 0.458774 0.119091
O15   O     O_R   0.643911 0.175449 0.513905 -0.336066
O16   O     O_R   0.646467 0.960057 0.421780 -0.247596
C27   C     C_3   0.569195 0.974383 0.714103 -0.660671
H13   H     H_    0.545506 0.970104 0.812380 0.270742
H14   H     H_    0.634888 0.943193 0.715639 0.250921
H15   H     H_    0.572263 0.076808 0.720528 0.272052
C28   C     C_3   0.360792 0.104311 0.405583 -0.683731
H16   H     H_    0.330626 0.195162 0.412366 0.203922
H17   H     H_    0.333204 0.031068 0.297941 0.282405
H18   H     H_    0.342904 0.074218 0.494386 0.269122
N7    N     N_R   0.451672 0.359043 0.822504 0.120661
O17   O     O_R   0.476387 0.250800 0.832335 -0.373552
O18   O     O_R   0.374295 0.358703 0.757605 -0.314767
N8    N     N_R   0.598441 0.556610 0.156605 0.117663
O19   O     O_R   0.665848 0.505900 0.109191 -0.351847
O20   O     O_R   0.607447 0.672365 0.254962 -0.265682
N9    N     N_R   0.570029 0.679352 0.953760 0.250802
O21   O     O_R   0.640443 0.728792 0.932643 -0.273669
O22   O     O_R   0.521386 0.756965 0.031074 -0.270778
N10   N     N_R   0.377412 0.419037 0.072213 0.254702
O23   O     O_R   0.334098 0.316683 0.072853 -0.277874
O24   O     O_R   0.336130 0.509313 0.042863 -0.290361

loop_
_geom_bond_atom_site_label_1
_geom_bond_atom_site_label_2
_geom_bond_distance
_ccdc_geom_bond_type
C27   H14   1.110417 S    
C17   C19   1.355382 D    
C8    C11   1.550528 S    
Cu1   N2    2.037582 S    
C23   H1    1.109651 S    
Cu2   N1    2.037582 S    
C8    C24   1.520829 S    
N1    N10   1.392508 S    
C24   H5    1.109530 S    
C26   H10   1.109727 S    
O5    C3    1.301291 A    
C3    C9    1.418876 S    
C7    C13   1.546399 S    
N8    O20   1.299963 A    
O1    C1    1.294322 A    
C23   H2    1.109645 S    
C14   C16   1.452148 S    
N5    O14   1.302002 A    
C20   N5    1.445258 S    
N6    O16   1.301082 A    
O4    Cu1   1.945550 S    
N2    N9    1.391275 S    
C1    C17   1.444492 S    
C2    C18   1.466515 S    
C25   H8    1.109663 S    
C6    C12   1.540328 S    
N1    C21   1.314633 D    
C8    C14   1.546485 S    
C26   H11   1.109599 S    
C27   H15   1.106707 S    
Cu1   Cu2   2.712224 S    
O2    C2    1.297272 A    
C9    C15   1.195876 T    
C24   H6    1.109628 S    
N9    O22   1.300696 A    
N4    O12   1.300259 A    
N8    O19   1.301251 A    
C28   H16   1.111802 S    
C23   H3    1.109570 S    
O4    C2    1.310711 A    
C6    N4    1.458131 S    
C24   H4    1.109660 S    
N7    O18   1.299652 A    
N9    O21   1.299982 A    
N6    O15   1.301362 A    
C28   H17   1.107766 S    
N2    C22   1.313769 D    
O7    Cu2   1.929494 S    
C19   C20   1.480598 S    
O7    C3    1.300028 A    
C19   N6    1.450021 S    
O5    Cu1   1.933378 S    
O6    C4    1.301096 A    
C25   H9    1.109594 S    
C4    C10   1.419178 S    
C21   C22   1.504423 S    
N3    O10   1.300262 A    
O3    Cu2   1.945550 S    
O8    C4    1.300296 A    
C12   C25   1.521213 S    
N10   O24   1.302500 A    
C5    C14   1.539271 S    
C6    C13   1.539195 S    
C11   C13   1.546201 S    
N3    O9    1.300245 A    
C12   C14   1.546251 S    
O1    Cu1   1.954072 S    
C26   H12   1.109671 S    
C5    C7    1.540358 S    
N4    O11   1.300245 A    
O6    Cu2   1.933378 S    
N10   O23   1.299899 A    
O3    C1    1.301886 A    
O8    Cu1   1.929494 S    
C7    C12   1.550601 S    
C28   H18   1.110517 S    
C18   C20   1.364807 D    
C5    N3    1.458092 S    
N7    O17   1.300035 A    
C11   C26   1.521284 S    
N5    O13   1.300242 A    
C10   C16   1.196013 T    
C13   C15   1.451959 S    
O2    Cu2   1.954074 S    
C17   C28   1.517598 S    
C27   H13   1.110102 S    
C18   C27   1.511040 S    
C21   N8    1.433146 S    
C5    C11   1.540384 S    
C6    C8    1.540246 S    
C25   H7    1.109729 S    
C7    C23   1.520845 S    
C22   N7    1.434972 S    
