data_mof_unit_58635.cif
_audit_creation_date              2012-12-10T17:26:24-0500
_audit_creation_method            fapswitch 2.2
_symmetry_space_group_name_H-M    P1
_symmetry_Int_Tables_number       1
_space_group_crystal_system       triclinic
_cell_length_a                    10.157931
_cell_length_b                    10.830426
_cell_length_c                    27.741678
_cell_angle_alpha                 90.524021
_cell_angle_beta                  80.810084
_cell_angle_gamma                 95.577265
_cell_volume                      2998.49304635

loop_
_atom_site_label
_atom_site_type_symbol
_atom_type_description
_atom_site_fract_x
_atom_site_fract_y
_atom_site_fract_z
_atom_type_partial_charge
C1    C     C_R   0.556523 0.732123 0.495637 0.942727
C2    C     C_R   0.542929 0.612802 0.125253 -0.107805
C3    C     C_R   0.499671 0.500217 0.646576 -0.041905
C4    C     C_R   0.499515 0.501445 0.353441 -0.031136
C5    C     C_R   0.535098 0.614917 0.023680 0.024273
C6    C     C_R   0.459155 0.392573 0.976642 0.024925
C7    C     C_R   0.447019 0.395400 0.028213 0.048562
C8    C     C_R   0.525049 0.616855 0.973326 0.048900
C9    C     C_R   0.490716 0.505309 0.051372 0.069178
C10   C     C_R   0.492597 0.504480 0.949546 0.068899
C11   C     C_R   0.590967 0.718770 0.046977 -0.333584
C12   C     C_R   0.443594 0.267736 0.504258 0.940361
C13   C     C_R   0.441166 0.280533 0.951264 -0.337121
C14   C     C_R   0.592261 0.720019 0.097092 0.510192
C15   C     C_R   0.442516 0.278518 0.901027 0.513698
C16   C     C_R   0.499911 0.499997 0.593919 0.846310
C17   C     C_R   0.500036 0.500275 0.406072 0.848809
C18   C     C_R   0.544791 0.728367 0.946210 -0.343071
C19   C     C_R   0.390056 0.291936 0.057362 -0.343901
C20   C     C_2   0.590193 0.863718 0.495521 -0.480079
C21   C     C_2   0.410897 0.135826 0.503970 -0.489182
C22   C     C_2   0.497101 0.938391 0.488812 0.380678
C23   C     C_R   0.494372 0.503829 0.898365 -0.196639
C24   C     C_2   0.505875 0.061809 0.509372 0.395863
C25   C     C_2   0.927943 0.514034 0.502139 0.059043
C26   C     C_2   0.074497 0.494932 0.494342 0.071375
C27   C     C_R   0.522075 0.612574 0.820758 0.540223
C28   C     C_R   0.444421 0.399984 0.181010 0.534473
C29   C     C_R   0.473679 0.392353 0.823226 0.527861
C30   C     C_R   0.544125 0.609318 0.175779 0.529494
C31   C     C_R   0.385528 0.530222 0.728644 -0.112884
C32   C     C_R   0.379037 0.516461 0.285530 -0.110558
C33   C     C_R   0.385487 0.529570 0.678587 -0.211741
C34   C     C_R   0.491153 0.505286 0.102419 -0.195557
C35   C     C_R   0.379967 0.515303 0.335502 -0.223453
C36   C     C_R   0.613640 0.471390 0.665310 -0.216980
C37   C     C_R   0.617999 0.489117 0.320681 -0.228185
C38   C     C_R   0.613128 0.471726 0.715415 -0.097720
C39   C     C_R   0.616714 0.490457 0.270675 -0.099920
C40   C     C_R   0.499214 0.501295 0.746958 0.306451
C41   C     C_R   0.497258 0.503957 0.253202 0.308021
C42   C     C_3   0.173110 0.716544 0.567870 0.225779
C43   C     C_3   0.090767 0.792262 0.605724 -0.908022
C44   C     C_3   0.837314 0.327854 0.414805 0.250950
C45   C     C_R   0.520933 0.616587 0.871491 -0.052325
C46   C     C_3   0.915627 0.234295 0.384035 -0.902479
C47   C     C_3   0.567265 0.919215 0.121369 0.122888
C48   C     C_3   0.628407 0.028044 0.148114 -0.706719
C49   C     C_3   0.288271 0.121915 0.886289 0.107258
C50   C     C_3   0.267337 0.002773 0.857856 -0.691833
C51   C     C_3   0.590308 0.110425 0.579359 0.113279
C52   C     C_3   0.714757 0.162510 0.599559 -0.743360
C53   C     C_3   0.418206 0.888242 0.417878 0.126983
C54   C     C_3   0.296476 0.833212 0.396679 -0.803361
C55   C     C_R   0.440300 0.397637 0.130606 -0.050296
C56   C     C_R   0.543996 0.729595 0.895865 0.482019
C57   C     C_R   0.386123 0.291666 0.107957 0.481795
C58   C     C_R   0.469838 0.390300 0.874039 -0.111313
H1    H     H_    0.702872 0.448480 0.641377 0.169551
H2    H     H_    0.296549 0.552486 0.665027 0.170746
H3    H     H_    0.286709 0.526998 0.271819 0.136179
H4    H     H_    0.297483 0.553053 0.753275 0.135066
H5    H     H_    0.639905 0.799674 0.026838 0.161174
H6    H     H_    0.429990 0.191428 0.969276 0.155462
H7    H     H_    0.556972 0.817062 0.963721 0.135524
H8    H     H_    0.343061 0.210987 0.041748 0.134700
H9    H     H_    0.195806 0.771474 0.533291 0.188644
H10   H     H_    0.266793 0.701212 0.581603 0.179445
H11   H     H_    0.067319 0.741325 0.641103 0.269062
H12   H     H_    0.711399 0.478621 0.333569 0.146552
H13   H     H_    0.148265 0.882551 0.611096 0.221326
H14   H     H_    0.995689 0.809938 0.593210 0.263383
H15   H     H_    0.850189 0.416297 0.393607 0.117679
H16   H     H_    0.730611 0.290280 0.421454 0.188132
H17   H     H_    0.904039 0.144012 0.403692 0.272672
H18   H     H_    0.877428 0.220270 0.348846 0.219217
H19   H     H_    0.023570 0.268792 0.376417 0.260606
H20   H     H_    0.580198 0.910482 0.892685 0.339030
H21   H     H_    0.298471 0.122136 0.113989 0.317913
H22   H     H_    0.466973 0.887668 0.142502 0.156916
H23   H     H_    0.316867 0.100667 0.492570 0.181167
H24   H     H_    0.554845 0.952323 0.084636 0.112546
H25   H     H_    0.728100 0.062560 0.127681 0.238070
H26   H     H_    0.562450 0.104559 0.151332 0.242742
H27   H     H_    0.640174 0.998642 0.185315 0.274730
H28   H     H_    0.227176 0.191320 0.873432 0.146979
H29   H     H_    0.252046 0.101355 0.925690 0.114026
H30   H     H_    0.322648 0.929870 0.871119 0.268869
H31   H     H_    0.159061 0.969668 0.863009 0.185971
H32   H     H_    0.303815 0.019630 0.818329 0.284154
H33   H     H_    0.558371 0.015838 0.594997 0.128394
H34   H     H_    0.683368 0.898247 0.507703 0.177457
H35   H     H_    0.509814 0.172228 0.591242 0.134362
H36   H     H_    0.749314 0.256541 0.584121 0.269503
H37   H     H_    0.691516 0.169087 0.639945 0.208075
H38   H     H_    0.796119 0.100930 0.589787 0.249453
H39   H     H_    0.500188 0.827266 0.407207 0.138248
H40   H     H_    0.449828 0.982445 0.401839 0.137421
H41   H     H_    0.213560 0.893558 0.405307 0.251713
H42   H     H_    0.322639 0.825471 0.356411 0.218143
H43   H     H_    0.262607 0.739331 0.412387 0.254738
H44   H     H_    0.114709 0.437486 0.464355 0.135063
H45   H     H_    0.892668 0.589806 0.524947 0.139775
H46   H     H_    0.701010 0.449395 0.729812 0.140486
H47   H     H_    0.708105 0.480683 0.245458 0.138462
H48   H     H_    0.287199 0.524978 0.359965 0.154929
N1    N     N_R   0.498805 0.502040 0.798294 -0.376746
N2    N     N_R   0.495638 0.504331 0.201971 -0.374779
N3    N     N_2   0.842700 0.448890 0.480020 0.030377
N4    N     N_2   0.157300 0.551110 0.519980 0.032542
O1    O     O_R   0.431060 0.692470 0.504020 -0.592174
O2    O     O_2   0.399023 0.298993 0.209173 -0.492445
O3    O     O_2   0.592324 0.709685 0.199014 -0.512055
O4    O     O_2   0.451913 0.286298 0.798553 -0.505910
O5    O     O_3   0.098983 0.602843 0.561467 -0.564655
O6    O     O_3   0.886834 0.344293 0.459127 -0.542315
O7    O     O_3   0.565793 0.840579 0.870179 -0.697697
O8    O     O_3   0.328604 0.188869 0.135602 -0.722725
O9    O     O_3   0.653118 0.823231 0.117484 -0.565614
O10   O     O_3   0.425821 0.165111 0.878233 -0.556921
O11   O     O_3   0.621065 0.105330 0.527953 -0.587180
O12   O     O_R   0.568940 0.307530 0.495980 -0.549423
O13   O     O_3   0.383602 0.895484 0.469114 -0.630426
O14   O     O_R   0.651120 0.659650 0.491200 -0.635955
O15   O     O_R   0.348880 0.340350 0.508800 -0.615509
O16   O     O_R   0.389980 0.516390 0.577660 -0.621435
O17   O     O_R   0.610020 0.483610 0.422340 -0.663814
O18   O     O_R   0.610040 0.483570 0.564830 -0.625290
O19   O     O_R   0.389960 0.516430 0.435170 -0.639158
O20   O     O_2   0.546688 0.717588 0.793654 -0.476329
Zn1   Zn    Zn3+2 0.353060 0.521910 0.508560 0.972317
Zn2   Zn    Zn3+2 0.646940 0.478090 0.491440 0.968730

loop_
_geom_bond_atom_site_label_1
_geom_bond_atom_site_label_2
_ccdc_geom_bond_type
C23   C58   A    
C29   O4    S    
C43   H14   S    
C23   C45   A    
C41   N2    S    
C56   O7    S    
C49   H29   S    
C54   H43   S    
C36   H1    S    
C46   H18   S    
C22   O13   S    
C39   C41   A    
C53   C54   S    
C31   C40   A    
C18   H7    S    
C20   H34   S    
C52   H37   S    
C3    C36   A    
C32   H3    S    
C5    C11   A    
C11   H5    S    
C11   C14   A    
C49   O10   S    
C3    C33   A    
H21   O8    S    
C15   O10   S    
O14   Zn2   S    
C19   H8    S    
C39   H47   S    
C47   H24   S    
O17   Zn2   S    
C10   C23   A    
C38   H46   S    
N3    O6    S    
C51   H33   S    
C50   H32   S    
C45   C56   A    
C32   C41   A    
C31   C33   A    
C52   H36   S    
C26   N4    D    
C50   H30   S    
C2    C34   A    
C47   O9    S    
C4    C35   A    
C34   C55   A    
C43   H11   S    
C37   H12   S    
C42   H10   S    
C31   H4    S    
C54   H42   S    
C47   H22   S    
C19   C57   A    
O18   Zn2   S    
O12   Zn2   S    
C46   H17   S    
C28   C55   A    
C44   C46   S    
C17   O19   A    
C51   C52   S    
C32   C35   A    
H20   O7    S    
C53   O13   S    
C25   H45   S    
C12   O15   A    
C53   H39   S    
C25   C26   S    
C12   C21   S    
C8    C18   A    
C48   H26   S    
C5    C9    A    
C25   N3    D    
C5    C8    A    
O15   Zn1   S    
C50   H31   S    
C47   C48   S    
C27   N1    A    
N3    Zn2   S    
N4    Zn1   S    
C29   C58   A    
C44   H16   S    
C16   O18   A    
C51   H35   S    
C40   N1    S    
C4    C17   S    
O1    Zn1   S    
C21   H23   S    
C49   C50   S    
C33   H2    S    
C7    C19   A    
C55   C57   A    
C9    C34   A    
C51   O11   S    
C15   C58   A    
C22   C24   S    
C54   H41   S    
C42   C43   S    
C7    C9    A    
C1    C20   S    
C43   H13   S    
C30   N2    A    
C49   H28   S    
C17   O17   A    
C20   C22   D    
C6    C10   A    
C46   H19   S    
C6    C7    A    
C18   C56   A    
C53   H40   S    
C48   H25   S    
C2    C30   A    
C13   C15   A    
C1    O14   A    
C37   C39   A    
C35   H48   S    
C26   H44   S    
C6    C13   A    
C38   C40   A    
C27   C45   A    
C42   H9    S    
C13   H6    S    
O16   Zn1   S    
C28   N2    A    
C36   C38   A    
C24   O11   S    
C52   H38   S    
C44   H15   S    
C2    C14   A    
C42   O5    S    
C12   O12   A    
C4    C37   A    
C44   O6    S    
C8    C10   A    
C14   O9    S    
C21   C24   D    
C27   O20   S    
C48   H27   S    
C29   N1    A    
C16   O16   A    
N4    O5    S    
C28   O2    S    
C1    O1    A    
C3    C16   S    
C57   O8    S    
O19   Zn1   S    
C30   O3    S    
