data_mof_unit_63817.cif
_audit_creation_date              2012-12-10T19:21:04-0500
_audit_creation_method            fapswitch 2.2
_symmetry_space_group_name_H-M    P1
_symmetry_Int_Tables_number       1
_space_group_crystal_system       triclinic
_cell_length_a                    25.854441
_cell_length_b                    34.545797
_cell_length_c                    21.605724
_cell_angle_alpha                 89.995031
_cell_angle_beta                  126.785574
_cell_angle_gamma                 90.001258
_cell_volume                      15454.9575039

loop_
_atom_site_label
_atom_site_type_symbol
_atom_type_description
_atom_site_fract_x
_atom_site_fract_y
_atom_site_fract_z
_atom_type_partial_charge
C1    C     C_R   0.000045 0.020596 0.999939 -0.298345
C2    C     C_R   0.616284 0.372935 0.946551 -0.410174
C3    C     C_R   0.351838 0.216727 0.664292 0.586581
C4    C     C_R   0.856053 0.247270 0.704912 -0.307845
C5    C     C_R   0.143962 0.752735 0.295087 -0.308200
C6    C     C_R   0.151145 0.252684 0.295099 -0.300798
C7    C     C_R   0.848857 0.747324 0.704901 -0.303034
C8    C     C_R   0.356050 0.747266 0.704912 -0.307954
C9    C     C_R   0.643959 0.252731 0.295087 -0.308100
C10   C     C_R   0.651141 0.752684 0.295100 -0.301828
C11   C     C_R   0.348854 0.247324 0.704903 -0.302005
C12   C     C_R   0.801572 0.223344 0.664556 -0.311433
C13   C     C_R   0.610811 0.628492 0.922880 -0.434139
C14   C     C_R   0.198484 0.776628 0.335433 -0.302069
C15   C     C_R   0.203523 0.227175 0.335461 -0.312578
C16   C     C_R   0.796471 0.772829 0.664552 -0.302157
C17   C     C_R   0.301529 0.723373 0.664556 -0.311698
C18   C     C_R   0.698441 0.276657 0.335433 -0.301790
C19   C     C_R   0.703545 0.727192 0.335461 -0.312553
C20   C     C_R   0.296493 0.272847 0.664552 -0.302179
C21   C     C_R   0.763637 0.221245 0.584395 0.662769
C22   C     C_R   0.236436 0.778728 0.415596 0.665308
C23   C     C_R   0.246410 0.228808 0.415624 0.664382
C24   C     C_R   0.384410 0.372752 0.054648 -0.410174
C25   C     C_R   0.753578 0.771200 0.584389 0.663174
C26   C     C_R   0.263590 0.721272 0.584395 0.662941
C27   C     C_R   0.736388 0.278755 0.415596 0.665133
C28   C     C_R   0.746431 0.728828 0.415624 0.664186
C29   C     C_R   0.253599 0.271219 0.584390 0.663367
C30   C     C_R   0.775592 0.246134 0.542448 -0.160375
C31   C     C_R   0.224444 0.753874 0.457551 -0.162979
C32   C     C_R   0.233907 0.253286 0.457562 -0.153110
C33   C     C_R   0.766086 0.746733 0.542441 -0.153676
C34   C     C_R   0.275586 0.746129 0.542449 -0.160219
C35   C     C_R   0.863964 0.165373 0.068524 0.521202
C36   C     C_R   0.724438 0.253870 0.457551 -0.163137
C37   C     C_R   0.733904 0.753288 0.457562 -0.153553
C38   C     C_R   0.266084 0.246735 0.542441 -0.153235
C39   C     C_R   0.057839 0.041019 0.050406 0.701020
C40   C     C_R   0.972761 0.957543 0.930583 0.688653
C41   C     C_R   0.942244 0.041015 0.949465 0.701090
C42   C     C_R   0.027329 0.957553 0.069348 0.689625
C43   C     C_R   0.557843 0.541019 0.050383 0.700966
C44   C     C_R   0.472744 0.457543 0.930580 0.688693
C45   C     C_R   0.442238 0.541015 0.949491 0.701047
C46   C     C_R   0.139930 0.837147 0.943435 0.529856
C47   C     C_R   0.527344 0.457553 0.069352 0.689626
C48   C     C_R   0.057761 0.081318 0.051409 0.497324
C49   C     C_R   0.971656 0.917245 0.930451 0.505121
C50   C     C_R   0.942299 0.081314 0.948486 0.498116
C51   C     C_R   0.028393 0.917254 0.069506 0.507439
C52   C     C_R   0.557766 0.581318 0.051385 0.497385
C53   C     C_R   0.471642 0.417245 0.930448 0.505176
C54   C     C_R   0.442293 0.581314 0.948512 0.498224
C55   C     C_R   0.528406 0.417254 0.069509 0.507457
C56   C     C_R   0.000020 0.101995 0.999965 -0.539210
C57   C     C_R   0.135394 0.165655 0.930447 0.522989
C58   C     C_R   0.000008 0.897051 0.999984 -0.485998
C59   C     C_R   0.500020 0.601995 0.999966 -0.539287
C60   C     C_R   0.500008 0.397051 0.999984 -0.486063
C61   C     C_R   0.105769 0.250466 0.210375 0.926975
C62   C     C_R   0.894232 0.749536 0.789625 0.937259
C63   C     C_R   0.895449 0.249553 0.789628 0.923420
C64   C     C_R   0.104553 0.750448 0.210371 0.933241
C65   C     C_R   0.605768 0.750465 0.210375 0.927733
C66   C     C_R   0.394231 0.249536 0.789626 0.936492
C67   C     C_R   0.395449 0.749552 0.789628 0.924447
C68   C     C_R   0.860581 0.836957 0.057415 0.531462
C69   C     C_R   0.604553 0.250447 0.210371 0.932210
C70   C     C_R   0.000004 0.144699 0.999992 0.967763
C71   C     C_R   1.000000 0.854964 0.000000 1.007774
C72   C     C_R   0.500004 0.644699 0.999992 0.967810
C73   C     C_R   0.500000 0.354965 0.000000 1.007713
C74   C     C_R   0.000011 0.355136 0.000008 0.780198
C75   C     C_R   0.999994 0.644868 0.999996 0.778649
C76   C     C_R   0.500006 0.855132 0.000004 0.779570
C77   C     C_R   0.499989 0.144864 0.999992 0.779259
C78   C     C_R   0.989281 0.458170 0.937157 -0.137264
C79   C     C_R   0.363983 0.665378 0.068526 0.520923
C80   C     C_R   0.972737 0.541848 0.030133 -0.137566
C81   C     C_R   0.010816 0.458161 0.062925 -0.139294
C82   C     C_R   0.027302 0.541858 0.969903 -0.137549
C83   C     C_R   0.527237 0.958152 0.969835 -0.137698
C84   C     C_R   0.510738 0.041831 0.062853 -0.137167
C85   C     C_R   0.472726 0.958143 0.030130 -0.137723
C86   C     C_R   0.489167 0.041840 0.937066 -0.138918
C87   C     C_R   0.989751 0.417895 0.937419 -0.145267
C88   C     C_R   0.973158 0.582123 0.030638 -0.144252
C89   C     C_R   0.010341 0.417885 0.062654 -0.138610
C90   C     C_R   0.639950 0.337154 0.943445 0.530209
C91   C     C_R   0.026844 0.582132 0.969364 -0.138192
C92   C     C_R   0.526814 0.917877 0.969329 -0.144200
C93   C     C_R   0.510266 0.082105 0.062590 -0.145057
C94   C     C_R   0.473184 0.917868 0.030669 -0.138386
C95   C     C_R   0.489644 0.082116 0.937338 -0.138094
C96   C     C_R   0.000036 0.397507 0.000028 -0.024917
C97   C     C_R   0.999996 0.602505 0.999998 -0.018932
C98   C     C_R   0.500004 0.897495 0.000002 -0.018029
C99   C     C_R   0.499965 0.102493 0.999972 -0.025378
C100  C     C_R   0.000046 0.478677 0.000040 0.090311
C101  C     C_R   0.635381 0.665656 0.930452 0.522725
C102  C     C_R   0.000031 0.521341 0.000029 0.089806
C103  C     C_R   0.499970 0.978659 0.999971 0.090403
C104  C     C_R   0.499956 0.021324 0.999961 0.089899
C105  C     C_R   0.000050 0.977999 0.999957 -0.199958
C106  C     C_R   0.360560 0.336965 0.057400 0.531803
C107  C     C_R   0.802306 0.175638 0.002198 -0.272508
C108  C     C_R   0.201318 0.824348 0.006587 -0.275897
C109  C     C_R   0.197162 0.175665 0.996867 -0.275907
C110  C     C_R   0.799093 0.824348 0.994171 -0.278910
C111  C     C_R   0.302310 0.675634 0.002218 -0.272105
C112  C     C_R   0.701323 0.324345 0.006611 -0.275898
C113  C     C_R   0.697163 0.675661 0.996855 -0.275468
C114  C     C_R   0.299086 0.324344 0.994144 -0.278945
C115  C     C_R   0.765711 0.148070 0.943248 0.427636
C116  C     C_R   0.500045 0.520596 0.999940 -0.298428
C117  C     C_R   0.238720 0.848118 0.072266 0.432727
C118  C     C_R   0.233528 0.147904 0.055479 0.429924
C119  C     C_R   0.761786 0.848308 0.928766 0.434845
C120  C     C_R   0.265694 0.648054 0.943301 0.425699
C121  C     C_R   0.738704 0.348097 0.072320 0.434606
C122  C     C_R   0.733550 0.647889 0.055439 0.427943
C123  C     C_R   0.261798 0.348286 0.928707 0.436753
C124  C     C_R   0.790230 0.110814 0.951021 0.611567
C125  C     C_R   0.214682 0.883889 0.074925 0.571677
C126  C     C_R   0.208658 0.110715 0.047300 0.610895
C127  C     C_R   0.500050 0.477999 0.999958 -0.199904
C128  C     C_R   0.786010 0.884084 0.926468 0.570514
C129  C     C_R   0.290210 0.610796 0.951087 0.610001
C130  C     C_R   0.714660 0.383864 0.074992 0.572762
C131  C     C_R   0.708688 0.610698 0.047252 0.609317
C132  C     C_R   0.286026 0.384057 0.926391 0.571647
C133  C     C_R   0.851148 0.100783 0.017493 0.489039
C134  C     C_R   0.153508 0.896260 0.012152 0.463481
C135  C     C_R   0.147618 0.100944 0.980756 0.487399
C136  C     C_R   0.847276 0.896269 0.989330 0.462849
C137  C     C_R   0.351145 0.600774 0.017537 0.489182
C138  C     C_R   0.888192 0.128145 0.075685 -0.434462
C139  C     C_R   0.653503 0.396246 0.012203 0.463513
C140  C     C_R   0.647632 0.600933 0.980728 0.487626
C141  C     C_R   0.347275 0.396256 0.989267 0.462850
C142  C     C_R   0.219056 0.715616 0.993776 -0.168956
C143  C     C_R   0.781055 0.284657 0.006507 -0.161897
C144  C     C_R   0.780726 0.715588 0.005814 -0.163630
C145  C     C_R   0.219140 0.284675 0.993868 -0.156724
C146  C     C_R   0.719052 0.215616 0.993763 -0.167555
C147  C     C_R   0.281051 0.784656 0.006495 -0.163336
C148  C     C_R   0.280729 0.215588 0.005825 -0.162276
C149  C     C_R   0.116269 0.872932 0.946528 -0.410448
C150  C     C_R   0.719143 0.784674 0.993879 -0.158113
C151  C     C_R   0.195203 0.751038 0.998052 -0.048672
C152  C     C_R   0.804786 0.249188 0.001953 -0.044130
C153  C     C_R   0.804790 0.751020 0.001938 -0.047504
C154  C     C_R   0.195206 0.249198 0.998035 -0.042918
C155  C     C_R   0.695203 0.251037 0.998052 -0.049715
C156  C     C_R   0.304787 0.749186 0.001954 -0.043115
C157  C     C_R   0.304789 0.251019 0.001937 -0.048502
C158  C     C_R   0.695205 0.749197 0.998033 -0.041957
C159  C     C_R   0.226207 0.786043 0.004425 0.204324
C160  C     C_R   0.110818 0.128493 0.922881 -0.433991
C161  C     C_R   0.774477 0.214153 0.997073 0.203020
C162  C     C_R   0.773989 0.786045 0.995948 0.204195
C163  C     C_R   0.225284 0.214146 0.002484 0.203039
C164  C     C_R   0.726212 0.286042 0.004438 0.203502
C165  C     C_R   0.274481 0.714151 0.997086 0.203747
C166  C     C_R   0.273985 0.286044 0.995935 0.203384
C167  C     C_R   0.725281 0.714144 0.002474 0.203760
C168  C     C_R   0.839379 0.261101 0.583906 0.159602
C169  C     C_R   0.160630 0.738951 0.416102 0.161993
C170  C     C_R   0.192880 0.285398 0.416117 0.163264
C171  C     C_R   0.884427 0.872749 0.054681 -0.410396
C172  C     C_R   0.807127 0.714625 0.583873 0.163118
C173  C     C_R   0.339399 0.761055 0.583907 0.159475
C174  C     C_R   0.660650 0.238905 0.416103 0.162124
C175  C     C_R   0.692845 0.785388 0.416119 0.162518
C176  C     C_R   0.307093 0.214616 0.583874 0.163869
C177  C     C_R   0.139746 0.249693 0.999370 0.860643
C178  C     C_R   0.860288 0.750377 0.000684 0.857672
C179  C     C_R   0.860259 0.249684 0.000640 0.857816
C180  C     C_R   0.139703 0.750388 0.999302 0.854142
C181  C     C_R   0.639745 0.749692 0.999370 0.859847
C182  C     C_R   0.388208 0.628148 0.075698 -0.434654
C183  C     C_R   0.360288 0.250376 0.000683 0.858445
C184  C     C_R   0.360260 0.749683 0.000640 0.856936
C185  C     C_R   0.639703 0.250387 0.999303 0.855006
C186  C     C_R   0.876802 0.264495 0.664326 0.596111
C187  C     C_R   0.123194 0.735550 0.335683 0.596317
C188  C     C_R   0.148138 0.283278 0.335701 0.587621
C189  C     C_R   0.851873 0.716741 0.664288 0.588075
C190  C     C_R   0.376828 0.764451 0.664328 0.597838
C191  C     C_R   0.623221 0.235507 0.335684 0.594581
C192  C     C_R   0.648103 0.783264 0.335704 0.589104
F1    F     F_    0.936056 0.281218 0.702944 -0.567571
F2    F     F_    0.279523 0.808143 0.450518 -0.587095
F3    F     F_    0.303411 0.209892 0.450568 -0.587894
F4    F     F_    0.696566 0.790101 0.549460 -0.588147
F5    F     F_    0.220506 0.691856 0.549465 -0.590899
F6    F     F_    0.779424 0.308195 0.450518 -0.587592
F7    F     F_    0.803451 0.709933 0.450568 -0.587987
F8    F     F_    0.196606 0.290142 0.549460 -0.588050
F9    F     F_    0.114771 0.021926 0.097805 -0.464285
F10   F     F_    0.948421 0.976571 0.863331 -0.523145
F11   F     F_    0.885323 0.021917 0.902043 -0.464165
F12   F     F_    0.063911 0.718866 0.297073 -0.568644
F13   F     F_    0.051688 0.976592 0.136588 -0.523005
F14   F     F_    0.614778 0.521926 0.097759 -0.464258
F15   F     F_    0.448388 0.476572 0.863324 -0.523116
F16   F     F_    0.385315 0.521916 0.902091 -0.464096
F17   F     F_    0.551720 0.476593 0.136596 -0.523050
F18   F     F_    0.114556 0.099866 0.102473 -0.547313
F19   F     F_    0.944863 0.897882 0.862951 -0.570165
F20   F     F_    0.885502 0.099859 0.897398 -0.546745
F21   F     F_    0.055180 0.897901 0.137022 -0.568346
F22   F     F_    0.614567 0.599866 0.102423 -0.547193
F23   F     F_    0.106178 0.313045 0.297116 -0.588090
F24   F     F_    0.444837 0.397883 0.862945 -0.570110
F25   F     F_    0.385490 0.599859 0.897450 -0.546572
F26   F     F_    0.555206 0.397901 0.137027 -0.568358
F27   F     F_    0.874072 0.064353 0.026058 -0.554266
F28   F     F_    0.130356 0.930965 0.014740 -0.567414
F29   F     F_    0.124334 0.064586 0.971810 -0.555301
F30   F     F_    0.870598 0.930984 0.987094 -0.567823
F31   F     F_    0.374070 0.564344 0.026114 -0.554353
F32   F     F_    0.630348 0.430948 0.014803 -0.567370
F33   F     F_    0.624351 0.564574 0.971776 -0.555345
F34   F     F_    0.893850 0.686980 0.702859 -0.584018
F35   F     F_    0.370599 0.430966 0.987015 -0.567779
F36   F     F_    0.899690 0.190923 0.127382 -0.618600
F37   F     F_    0.103231 0.815106 0.878825 -0.611832
F38   F     F_    0.099875 0.191395 0.871896 -0.610143
F39   F     F_    0.897197 0.814730 0.121774 -0.604787
F40   F     F_    0.399727 0.690937 0.127360 -0.618739
F41   F     F_    0.603269 0.315127 0.878813 -0.611690
F42   F     F_    0.599844 0.691403 0.871921 -0.610263
F43   F     F_    0.397160 0.314752 0.121782 -0.604665
F44   F     F_    0.706265 0.157250 0.878569 -0.551957
F45   F     F_    0.436115 0.781132 0.702948 -0.566521
F46   F     F_    0.297865 0.836312 0.134131 -0.553232
F47   F     F_    0.293070 0.156837 0.120242 -0.548400
F48   F     F_    0.702550 0.836686 0.866815 -0.548958
F49   F     F_    0.206230 0.657223 0.878641 -0.552901
F50   F     F_    0.797831 0.336278 0.134201 -0.552550
F51   F     F_    0.793108 0.656815 0.120182 -0.549422
F52   F     F_    0.202579 0.336649 0.866743 -0.548213
F53   F     F_    0.754561 0.084252 0.894349 -0.479945
F54   F     F_    0.250715 0.906560 0.138610 -0.493041
F55   F     F_    0.244095 0.083970 0.103658 -0.479795
F56   F     F_    0.563970 0.218780 0.297078 -0.569693
F57   F     F_    0.750065 0.906941 0.863046 -0.493191
F58   F     F_    0.254520 0.584222 0.894447 -0.480732
F59   F     F_    0.750672 0.406517 0.138707 -0.492617
F60   F     F_    0.744146 0.583943 0.103582 -0.480649
F61   F     F_    0.250099 0.406896 0.862938 -0.492685
F62   F     F_    0.606106 0.813015 0.297124 -0.583777
F63   F     F_    0.393779 0.186951 0.702866 -0.588347
F64   F     F_    0.720605 0.191804 0.549465 -0.591403
H1    H     H_    0.979685 0.473226 0.887299 0.162362
H2    H     H_    0.210941 0.794574 0.305016 0.250852
H3    H     H_    0.212523 0.206616 0.305054 0.251613
H4    H     H_    0.787466 0.793379 0.694967 0.251308
H5    H     H_    0.289065 0.705427 0.694965 0.251298
H6    H     H_    0.710866 0.294629 0.305016 0.250803
H7    H     H_    0.712566 0.706647 0.305054 0.251637
H8    H     H_    0.287508 0.293410 0.694968 0.251287
H9    H     H_    0.981167 0.402725 0.888173 0.187402
H10   H     H_    0.951671 0.597303 0.053975 0.184463
H11   H     H_    0.018926 0.402706 0.111899 0.194678
H12   H     H_    0.950329 0.526792 0.052425 0.162977
H13   H     H_    0.048317 0.597318 0.946013 0.185369
H14   H     H_    0.548280 0.902698 0.945964 0.183509
H15   H     H_    0.518864 0.097276 0.111844 0.187463
H16   H     H_    0.451733 0.902683 0.054049 0.184371
H17   H     H_    0.481045 0.097295 0.888085 0.195001
H18   H     H_    0.935357 0.120291 0.127076 0.247574
H19   H     H_    0.069009 0.882620 0.897897 0.267658
H20   H     H_    0.063561 0.120839 0.871429 0.248406
H21   H     H_    0.931760 0.882293 0.103383 0.268469
H22   H     H_    0.435386 0.620301 0.127074 0.247528
H23   H     H_    0.020413 0.473210 0.112784 0.162762
H24   H     H_    0.569035 0.382631 0.897909 0.267631
H25   H     H_    0.563544 0.620842 0.871443 0.248380
H26   H     H_    0.431732 0.382306 0.103359 0.268431
H27   H     H_    0.196022 0.688835 0.991452 0.173821
H28   H     H_    0.804460 0.311455 0.009775 0.175153
H29   H     H_    0.803603 0.688799 0.007837 0.173368
H30   H     H_    0.195889 0.311483 0.990899 0.174667
H31   H     H_    0.696014 0.188835 0.991428 0.176366
H32   H     H_    0.304453 0.811454 0.009752 0.172548
H33   H     H_    0.303608 0.188798 0.007857 0.175893
H34   H     H_    0.049722 0.526810 0.947621 0.163025
H35   H     H_    0.695895 0.811482 0.990921 0.172085
H36   H     H_    0.549625 0.973208 0.947517 0.162619
H37   H     H_    0.520349 0.026776 0.112719 0.162326
H38   H     H_    0.450326 0.973190 0.052438 0.162619
H39   H     H_    0.479556 0.026791 0.887200 0.162992
H40   H     H_    0.789139 0.205372 0.694966 0.251241
I1    I     I_    0.894287 0.260303 0.539230 0.037106
I2    I     I_    0.105736 0.739831 0.460796 0.041736
I3    I     I_    0.215786 0.343219 0.460832 0.025071
I4    I     I_    0.784250 0.656809 0.539129 0.015644
I5    I     I_    0.394305 0.760184 0.539229 0.037990
I6    I     I_    0.605754 0.239711 0.460795 0.040824
I7    I     I_    0.715701 0.843210 0.460834 0.029892
I8    I     I_    0.284165 0.156800 0.539130 0.010789
O1    O     O_3   1.000000 0.250000 0.000000 -0.545717
O2    O     O_R   0.406930 0.227260 0.045480 -0.599414
O3    O     O_R   0.406930 0.772740 0.045480 -0.608460
O4    O     O_R   0.593070 0.227260 0.954520 -0.607514
O5    O     O_R   0.117100 0.227270 0.173460 -0.641823
O6    O     O_R   0.882900 0.772730 0.826540 -0.639037
O7    O     O_R   0.882900 0.227270 0.826540 -0.640901
O8    O     O_R   0.117100 0.772730 0.173460 -0.638267
O9    O     O_R   0.617100 0.727270 0.173460 -0.642057
O10   O     O_R   0.382900 0.272730 0.826540 -0.638815
O11   O     O_R   0.382900 0.727270 0.826540 -0.641257
O12   O     O_3   1.000000 0.750000 0.000000 -0.541902
O13   O     O_R   0.617100 0.272730 0.173460 -0.637922
O14   O     O_R   0.053120 0.163270 0.045480 -0.589333
O15   O     O_R   0.946880 0.836730 0.954520 -0.613415
O16   O     O_R   0.946880 0.163270 0.954520 -0.589000
O17   O     O_R   0.053120 0.836730 0.045480 -0.613192
O18   O     O_R   0.553120 0.663270 0.045480 -0.589268
O19   O     O_R   0.446880 0.336730 0.954520 -0.613491
O20   O     O_R   0.446880 0.663270 0.954520 -0.588915
O21   O     O_R   0.553120 0.336730 0.045480 -0.613287
O22   O     O_R   0.007620 0.336730 0.954520 -0.640794
O23   O     O_3   0.500000 0.750000 0.000000 -0.545969
O24   O     O_R   0.992380 0.663270 0.045480 -0.640964
O25   O     O_R   0.992380 0.336730 0.045480 -0.632721
O26   O     O_R   0.007620 0.663270 0.954520 -0.631315
O27   O     O_R   0.507620 0.836730 0.954520 -0.640797
O28   O     O_R   0.492380 0.163270 0.045480 -0.640876
O29   O     O_R   0.492380 0.836730 0.045480 -0.631343
O30   O     O_R   0.507620 0.163270 0.954520 -0.632682
O31   O     O_R   0.056370 0.272740 0.173460 -0.559676
O32   O     O_R   0.943630 0.727260 0.826540 -0.559800
O33   O     O_R   0.943630 0.272740 0.826540 -0.564071
O34   O     O_3   0.500000 0.250000 0.000000 -0.541655
O35   O     O_R   0.056370 0.727260 0.173460 -0.564151
O36   O     O_R   0.556370 0.772740 0.173460 -0.557710
O37   O     O_R   0.443630 0.227260 0.826540 -0.561771
O38   O     O_R   0.443630 0.772740 0.826540 -0.561813
O39   O     O_R   0.556370 0.227260 0.173460 -0.566408
O40   O     O_R   0.138550 0.227260 0.045470 -0.642362
O41   O     O_R   0.861450 0.772740 0.954530 -0.653839
O42   O     O_R   0.861450 0.227260 0.954530 -0.641946
O43   O     O_R   0.138550 0.772740 0.045470 -0.653348
O44   O     O_R   0.638550 0.727260 0.045470 -0.642011
O45   O     O_R   0.093070 0.272740 0.954520 -0.598335
O46   O     O_R   0.361450 0.272740 0.954530 -0.654224
O47   O     O_R   0.361450 0.727260 0.954530 -0.641594
O48   O     O_R   0.638550 0.272740 0.045470 -0.653733
O49   O     O_R   0.906930 0.727260 0.045480 -0.601446
O50   O     O_R   0.906930 0.272740 0.045480 -0.606396
O51   O     O_R   0.093070 0.727260 0.954520 -0.609607
O52   O     O_R   0.593070 0.772740 0.954520 -0.600344
Zn1   Zn    Zn3+2 0.989110 0.282490 0.064980 1.066132
Zn2   Zn    Zn3+2 0.924120 0.782490 0.935020 1.047032
Zn3   Zn    Zn3+2 0.924120 0.217510 0.935020 1.048571
Zn4   Zn    Zn3+2 0.075880 0.782490 0.064980 1.045054
Zn5   Zn    Zn3+2 0.575880 0.717510 0.064980 1.050557
Zn6   Zn    Zn3+2 0.424120 0.282490 0.935020 1.046876
Zn7   Zn    Zn3+2 0.424120 0.717510 0.935020 1.048669
Zn8   Zn    Zn3+2 0.575880 0.282490 0.064980 1.044937
Zn9   Zn    Zn3+2 0.010890 0.717510 0.935020 1.068739
Zn10  Zn    Zn3+2 0.010890 0.282490 0.935020 1.065184
Zn11  Zn    Zn3+2 0.989110 0.717510 0.064980 1.067251
Zn12  Zn    Zn3+2 0.489110 0.782490 0.064980 1.066830
Zn13  Zn    Zn3+2 0.510890 0.217510 0.935020 1.068059
Zn14  Zn    Zn3+2 0.510890 0.782490 0.935020 1.065550
Zn15  Zn    Zn3+2 0.489110 0.217510 0.064980 1.066935
Zn16  Zn    Zn3+2 0.075880 0.217510 0.064980 1.050431

loop_
_geom_bond_atom_site_label_1
_geom_bond_atom_site_label_2
_ccdc_geom_bond_type
C118  F47   S    
C141  F35   S    
O9    Zn5   S    
C72   O20   A    
O3    Zn12  S    
O41   Zn2   S    
C101  C113  A    
C41   C50   A    
C186  F1    S    
O43   Zn4   S    
O26   Zn9   S    
C133  F27   S    
C124  C133  A    
C138  H18   S    
C61   O31   A    
C18   H6    S    
C95   C99   A    
C119  F48   S    
C76   C98   S    
O7    Zn3   S    
O28   Zn15  S    
O2    Zn15  S    
C4    C186  A    
C2    C90   A    
C26   F5    S    
C180  O43   A    
C131  C140  A    
C44   C53   A    
C53   C60   A    
C57   C109  A    
C113  C122  A    
C8    C190  A    
C185  O4    A    
C174  I6    S    
C115  C124  A    
O20   Zn7   S    
C4    C12   A    
C88   C97   A    
C85   C103  A    
C68   F39   S    
C174  C191  A    
C119  C128  A    
C76   O27   A    
C125  F54   S    
C190  F45   S    
C115  F44   S    
C188  F23   S    
C158  C167  A    
C55   F26   S    
C145  C166  A    
C73   O19   A    
C112  C164  S    
C146  C161  A    
C11   C20   A    
C169  C187  A    
C106  F43   S    
C84   H37   S    
C187  F12   S    
C82   C91   A    
C5    C64   S    
C142  C151  A    
O40   Zn16  S    
C7    C62   S    
O14   Zn16  S    
C37   C175  A    
C38   C176  A    
C136  C171  A    
C24   C141  A    
C68   C110  A    
C145  H30   S    
O47   Zn7   S    
C1    C41   A    
C40   F10   S    
C53   F24   S    
C27   C36   A    
C183  O2    A    
C16   C25   A    
C81   H23   S    
C128  F57   S    
O19   Zn6   S    
C122  F51   S    
C8    C17   A    
C79   C182  A    
C30   C36   S    
C89   C96   A    
C70   O16   A    
C80   C88   A    
C20   H8    S    
C21   F64   S    
C57   F38   S    
C178  O49   A    
C181  O44   A    
C78   H1    S    
C120  F49   S    
C50   C56   A    
C35   C107  A    
C86   C95   A    
C1    C39   A    
C3    C176  A    
C129  C137  A    
C76   O29   A    
C154  C177  S    
C101  F42   S    
O17   Zn4   S    
C176  I8    S    
C9    C191  A    
C33   C172  A    
C1    C105  S    
C73   O21   A    
C78   C87   A    
O16   Zn3   S    
C64   O35   A    
C6    C188  A    
C123  C132  A    
C173  C190  A    
C121  C130  A    
C86   C104  A    
C110  C162  S    
C182  H22   S    
C130  F59   S    
C4    C63   S    
C83   C103  A    
C6    C61   S    
C2    H24   S    
C16   H4    S    
C68   C171  A    
C65   O9    A    
C43   C52   A    
C69   O13   A    
C40   C49   A    
C42   F13   S    
O13   Zn8   S    
C146  H31   S    
C177  O45   A    
C67   O38   A    
C46   C108  A    
C29   C38   A    
C184  O47   A    
C111  C165  S    
O39   Zn15  S    
C152  C161  A    
O5    Zn16  S    
C84   C93   A    
O25   Zn1   S    
O48   Zn8   S    
C50   F20   S    
C43   F14   S    
O21   Zn8   S    
C54   C59   A    
C179  O42   A    
C135  F29   S    
C71   O17   A    
C28   F7    S    
C168  C186  A    
C144  C167  A    
C120  C129  A    
C77   O28   A    
C74   C96   S    
C3    C11   A    
C70   O14   A    
C155  C185  S    
C175  C192  A    
C134  C149  A    
C44   F15   S    
C175  I7    S    
C90   F41   S    
C80   C102  A    
O10   Zn6   S    
C151  C159  A    
C43   C116  A    
C92   H14   S    
O44   Zn5   S    
C93   H15   S    
C94   H16   S    
C52   F22   S    
C82   C102  A    
C31   C34   S    
C136  F30   S    
O27   Zn14  S    
C19   C28   A    
C25   F4    S    
C57   C160  A    
C63   O33   A    
C183  O46   A    
C114  C123  A    
C45   F16   S    
C47   F17   S    
C181  O52   A    
C84   C104  A    
C24   C106  A    
C145  C154  A    
C122  C131  A    
C132  C141  A    
O46   Zn6   S    
C126  F55   S    
C80   H12   S    
C108  C117  A    
C7    C189  A    
C171  H21   S    
C110  C119  A    
C47   C127  A    
C62   O6    A    
O45   Zn10  S    
C192  F62   S    
O38   Zn14  S    
C14   C22   A    
C112  C121  A    
C45   C116  A    
C13   H25   S    
C28   C37   A    
C134  F28   S    
C77   C99   S    
C148  C157  A    
C158  C181  S    
C9    C18   A    
C46   C149  A    
O33   Zn10  S    
C8    C67   S    
C23   F3    S    
O1    Zn10  S    
C75   O24   A    
C117  C125  A    
C25   C33   A    
C125  C134  A    
C44   C127  A    
C36   C174  A    
C189  F34   S    
C156  C184  S    
C108  C159  S    
O4    Zn13  S    
C27   F6    S    
O36   Zn12  S    
C2    C139  A    
C9    C69   S    
O34   Zn15  S    
O23   Zn7   S    
C128  C136  A    
C58   C71   S    
C94   C98   A    
C60   C73   S    
C75   C97   S    
C146  C155  A    
C107  C161  S    
C116  C127  S    
C109  C118  A    
C160  H20   S    
O34   Zn8   S    
C169  I2    S    
C93   C99   A    
C11   C66   S    
C59   C72   S    
C81   C89   A    
C133  C138  A    
C55   C60   A    
C191  F56   S    
O15   Zn2   S    
C130  C139  A    
C66   O10   A    
C150  C162  A    
C35   F36   S    
C13   C140  A    
C14   H2    S    
C31   C169  A    
C33   C37   S    
C89   H11   S    
C185  O48   A    
O29   Zn12  S    
O1    Zn3   S    
C74   O25   A    
C142  H27   S    
C10   C19   A    
C29   F8    S    
O23   Zn12  S    
C179  O50   A    
C140  F33   S    
C51   C58   A    
C91   C97   A    
C147  C156  A    
C177  O40   A    
C5    C14   A    
C132  F61   S    
C87   H9    S    
C7    C16   A    
C75   O26   A    
C24   H26   S    
C117  F46   S    
C39   F9    S    
C78   C100  A    
O30   Zn13  S    
C5    C187  A    
O18   Zn5   S    
C143  C164  A    
C13   C101  A    
C54   F25   S    
C129  F58   S    
C135  C160  A    
C150  C158  A    
O34   Zn13  S    
C113  C167  S    
C83   H36   S    
C81   C100  A    
C172  C189  A    
C21   C30   A    
C137  F31   S    
C178  O41   A    
C95   H17   S    
C153  C162  A    
C23   C32   A    
C152  C179  S    
C30   C168  A    
C34   C173  A    
C151  C180  S    
C156  C165  A    
O34   Zn6   S    
C17   H5    S    
C42   C105  A    
C10   C192  A    
C79   F40   S    
C170  I3    S    
C86   H39   S    
C19   H7    S    
C103  C104  S    
O31   Zn1   S    
C157  C183  S    
C74   O22   A    
C39   C48   A    
C139  F32   S    
C12   H40   S    
C172  I4    S    
C173  I5    S    
C180  O51   A    
C90   C112  A    
C147  C159  A    
C92   C98   A    
C83   C92   A    
C143  H28   S    
C106  C114  A    
C17   C26   A    
C149  H19   S    
C35   C138  A    
O1    Zn1   S    
O49   Zn11  S    
C148  H33   S    
O51   Zn9   S    
C124  F53   S    
C144  C153  A    
O12   Zn9   S    
O22   Zn10  S    
C6    C15   A    
C26   C34   A    
O32   Zn9   S    
C32   C38   S    
C41   F11   S    
C82   H34   S    
C42   C51   A    
C71   O15   A    
C51   F21   S    
C15   C23   A    
O24   Zn11  S    
C150  H35   S    
C66   O37   A    
O12   Zn2   S    
C123  F52   S    
C114  C166  S    
C20   C29   A    
C72   O18   A    
C121  F50   S    
C22   C31   A    
C154  C163  A    
O52   Zn14  S    
O8    Zn4   S    
C137  C182  A    
C12   C21   A    
O11   Zn7   S    
C49   C58   A    
O23   Zn14  S    
C111  C120  A    
C184  O3    A    
C52   C59   A    
C85   C94   A    
C61   O5    A    
C87   C96   A    
C49   F19   S    
C100  C102  S    
C77   O30   A    
C107  C115  A    
C147  H32   S    
C62   O32   A    
C48   F18   S    
C45   C54   A    
C56   C70   S    
O23   Zn5   S    
O35   Zn11  S    
C63   O7    A    
C170  C188  A    
C64   O8    A    
C15   H3    S    
C131  F60   S    
C47   C55   A    
C10   C65   S    
C48   C56   A    
C32   C170  A    
C153  C178  S    
C143  C152  A    
C144  H29   S    
C148  C163  A    
O6    Zn2   S    
C18   C27   A    
C67   O11   A    
C91   H13   S    
C157  C166  A    
C126  C135  A    
C155  C164  A    
O50   Zn1   S    
C69   O39   A    
C79   C111  A    
O37   Zn13  S    
O12   Zn11  S    
C142  C165  A    
C109  C163  S    
C88   H10   S    
C85   H38   S    
C168  I1    S    
C46   F37   S    
C3    F63   S    
O42   Zn3   S    
O1    Zn16  S    
C22   F2    S    
C65   O36   A    
C118  C126  A    
O12   Zn4   S    
C40   C105  A    
