data_mof_unit_59097.cif
_audit_creation_date              2012-12-11T20:41:11-0500
_audit_creation_method            fapswitch 2.2
_symmetry_space_group_name_H-M    P1
_symmetry_Int_Tables_number       1
_space_group_crystal_system       triclinic
_cell_length_a                    8.352842
_cell_length_b                    19.003401
_cell_length_c                    26.919187
_cell_angle_alpha                 97.780737
_cell_angle_beta                  92.686605
_cell_angle_gamma                 85.204888
_cell_volume                      4216.05386456

loop_
_atom_site_label
_atom_site_type_symbol
_atom_type_description
_atom_site_fract_x
_atom_site_fract_y
_atom_site_fract_z
_atom_type_partial_charge
Ba1   Ba    Ba6+2 0.852670 0.466460 0.522850 1.671726
Ba2   Ba    Ba6+2 0.337150 0.533490 0.477140 1.687616
C1    C     C_3   0.727282 0.209866 0.647973 -0.277401
C2    C     C_3   0.707400 0.283846 0.631262 0.276650
C3    C     C_3   0.542535 0.647074 0.635941 0.300067
C4    C     C_3   0.560438 0.670842 0.693353 0.718975
C5    C     C_3   0.022659 0.725604 0.346540 0.361597
C6    C     C_3   0.963469 0.791388 0.321902 -0.318083
C7    C     C_3   0.563562 0.728236 0.351611 0.351849
C8    C     C_3   0.487016 0.803739 0.349295 -0.222473
C9    C     C_R   0.008779 0.447300 0.176453 0.613702
C10   C     C_R   0.932472 0.572292 0.180543 0.627993
C11   C     C_2   0.768528 0.549190 0.272840 -0.082895
C12   C     C_3   0.146639 0.310756 0.655273 0.232292
C13   C     C_3   0.755010 0.580090 0.327282 -0.084702
C14   C     C_1   0.992772 0.497853 0.344392 0.054526
C15   C     C_2   0.024621 0.486371 0.295472 -0.102468
C16   C     C_2   0.907356 0.513387 0.256437 0.178196
C17   C     C_R   0.041080 0.508275 0.103206 -0.125949
C18   C     C_R   0.051508 0.445054 0.125777 -0.026611
C19   C     C_R   0.100156 0.380452 0.096591 -0.032329
C20   C     C_R   0.985881 0.573466 0.131280 -0.112306
C21   C     C_2   0.882179 0.548511 0.362139 -0.250168
C22   C     C_2   0.357873 0.486743 0.640354 -0.306042
C23   C     C_3   0.087386 0.298447 0.706557 0.346908
C24   C     C_R   0.207622 0.441930 0.975507 -0.054048
C25   C     C_R   0.077758 0.562709 0.975328 0.051983
C26   C     C_R   0.157361 0.500909 0.949359 0.021183
C27   C     C_R   0.315575 0.387277 0.950996 0.375561
C28   C     C_R   0.339558 0.384452 0.899518 -0.035833
C29   C     C_R   0.277866 0.439211 0.872248 -0.096362
C30   C     C_R   0.190347 0.498997 0.897443 -0.091198
C31   C     C_R   0.137547 0.556978 0.870974 -0.018482
C32   C     C_R   0.180692 0.553967 0.819976 0.615314
C33   C     C_R   0.310734 0.436912 0.820875 0.613507
C34   C     C_3   0.170870 0.302739 0.396114 0.315509
C35   C     C_2   0.459912 0.483510 0.729428 -0.058868
C36   C     C_3   0.503660 0.488854 0.676017 -0.029596
C37   C     C_1   0.215613 0.512716 0.656704 0.062059
C38   C     C_2   0.176672 0.507614 0.703431 -0.112175
C39   C     C_2   0.304441 0.493299 0.742996 0.194792
C40   C     C_R   0.149736 0.441663 0.024927 0.073430
C41   C     C_R   0.084102 0.505940 0.052090 0.059252
C42   C     C_R   0.057736 0.567554 0.028015 -0.040875
C43   C     C_R   0.144700 0.378769 0.046993 0.015217
C44   C     C_R   0.984880 0.637230 0.108541 0.463193
C45   C     C_3   0.161330 0.224124 0.369279 0.361028
C46   C     C_R   0.017049 0.617650 0.947786 -0.060171
C47   C     C_R   0.044349 0.615837 0.896664 0.018100
C48   C     C_R   0.015396 0.632754 0.057529 -0.130091
C49   C     C_2   0.410662 0.295139 0.516249 -0.274423
C50   C     C_3   0.278614 0.245944 0.517381 -0.016131
C51   C     C_2   0.345758 0.171889 0.524355 -0.131853
C52   C     C_2   0.489319 0.147610 0.504765 -0.073849
C53   C     C_2   0.591268 0.200655 0.485690 -0.020608
C54   C     C_1   0.538793 0.270631 0.490083 0.096526
C55   C     C_R   0.622812 0.926509 0.487565 0.492653
C56   C     C_3   0.040664 0.691692 0.588772 0.262008
C57   C     C_R   0.536230 0.069124 0.498868 0.461363
C58   C     C_R   0.594207 0.803046 0.506382 -0.044172
C59   C     C_R   0.655144 0.732358 0.506656 0.073230
C60   C     C_R   0.885158 0.753341 0.461365 0.022700
C61   C     C_R   0.823933 0.824187 0.459780 -0.068795
C62   C     C_R   0.678372 0.849910 0.483099 -0.037052
C63   C     C_R   0.797296 0.707426 0.483145 -0.269935
C64   C     C_3   0.113805 0.763251 0.606618 0.238153
C65   C     C_3   0.711373 0.354379 0.367756 0.305678
C66   C     C_3   0.695291 0.327747 0.310820 -0.214573
H1    H     H_    0.822996 0.295217 0.617200 0.109752
H2    H     H_    0.909832 0.700164 0.581019 0.039545
H3    H     H_    0.098461 0.665841 0.554022 0.014979
H4    H     H_    0.122890 0.771089 0.647985 0.173652
H5    H     H_    0.237075 0.762360 0.592880 0.056055
H6    H     H_    0.836847 0.342834 0.380333 0.032382
H7    H     H_    0.785729 0.171579 0.618091 0.123462
H8    H     H_    0.701652 0.268731 0.305111 0.180435
H9    H     H_    0.797920 0.344304 0.291436 0.094201
H10   H     H_    0.615812 0.282712 0.600055 0.009822
H11   H     H_    0.609458 0.190834 0.654641 0.131054
H12   H     H_    0.419118 0.630357 0.626769 -0.085237
H13   H     H_    0.629905 0.600569 0.625981 -0.011458
H14   H     H_    0.549006 0.623810 0.712742 -0.133906
H15   H     H_    0.802378 0.209816 0.682960 0.186099
H16   H     H_    0.915905 0.704243 0.360522 -0.094273
H17   H     H_    0.066146 0.815705 0.307940 0.143164
H18   H     H_    0.878231 0.776929 0.289931 0.139720
H19   H     H_    0.900291 0.831464 0.349633 0.079005
H20   H     H_    0.662325 0.718179 0.324773 -0.005191
H21   H     H_    0.613320 0.725940 0.390455 -0.048089
H22   H     H_    0.574219 0.842420 0.365615 0.070138
H23   H     H_    0.378707 0.813445 0.372297 0.166687
H24   H     H_    0.085090 0.362353 0.647730 0.033598
H25   H     H_    0.141194 0.461771 0.283788 0.129815
H26   H     H_    0.102114 0.330465 0.111841 0.145662
H27   H     H_    0.555553 0.476374 0.757447 0.107994
H28   H     H_    0.417179 0.340948 0.881308 0.189785
H29   H     H_    0.170048 0.327242 0.025643 0.152935
H30   H     H_    0.677440 0.567187 0.246307 0.126708
H31   H     H_    0.941602 0.662057 0.965415 0.085177
H32   H     H_    0.052126 0.512816 0.713510 0.151556
H33   H     H_    0.013410 0.681948 0.041683 0.150332
H34   H     H_    0.877401 0.566863 0.401949 0.078767
H35   H     H_    0.372645 0.467305 0.600898 0.082416
H36   H     H_    0.267130 0.135553 0.536835 0.127498
H37   H     H_    0.485404 0.821970 0.526012 0.117356
H38   H     H_    0.894547 0.859974 0.443587 0.099137
H39   H     H_    0.399835 0.348963 0.535955 0.063344
H40   H     H_    0.122217 0.342125 0.735763 0.013954
H41   H     H_    0.845714 0.653190 0.485075 0.039228
H42   H     H_    0.954794 0.301780 0.705409 0.028988
H43   H     H_    0.296855 0.311704 0.408504 0.020750
H44   H     H_    0.095071 0.311404 0.429584 -0.044753
N1    N     N_R   0.950194 0.510582 0.203643 -0.433465
N2    N     N_R   0.262969 0.494089 0.795335 -0.431094
N3    N     N_R   0.532854 0.957768 0.526608 -0.181258
N4    N     N_R   0.490294 0.027580 0.532145 -0.202498
N5    N     N_R   0.621603 0.037098 0.459119 -0.254607
N6    N     N_R   0.665552 0.967611 0.453770 -0.255478
O1    O     O_2   0.914730 0.537460 0.618690 -0.431633
O2    O     O_3   0.609992 0.317708 0.393265 -0.590427
O3    O     O_3   0.109694 0.254336 0.617805 -0.569149
O4    O     O_2   0.274960 0.462520 0.381280 -0.476685
O5    O     O_3   0.042980 0.462530 0.441480 -0.501165
O6    O     O_3   0.523340 0.590550 0.413420 -0.461363
O7    O     O_3   0.116116 0.350636 0.362492 -0.629395
O8    O     O_3   0.635780 0.584660 0.526290 -0.488055
O9    O     O_3   0.116060 0.626590 0.438450 -0.482056
O10   O     O_2   0.214184 0.752862 0.478988 -0.443433
O11   O     O_3   0.139606 0.744687 0.384208 -0.576354
O12   O     O_3   0.146720 0.537410 0.558510 -0.504979
O13   O     O_3   0.553920 0.415280 0.473710 -0.486099
O14   O     O_2   0.383540 0.672140 0.526840 -0.473969
O15   O     O_3   0.570986 0.702711 0.608814 -0.576111
O16   O     O_2   0.429307 0.539930 0.321506 -0.503223
O17   O     O_3   0.449514 0.677651 0.339042 -0.567037
O18   O     O_2   0.020769 0.392553 0.195937 -0.565084
O19   O     O_2   0.382622 0.383958 0.798922 -0.546180
O20   O     O_2   0.866067 0.626216 0.202541 -0.535233
O21   O     O_2   0.149550 0.605485 0.797760 -0.566886
O22   O     O_3   0.666360 0.409390 0.586570 -0.491760
O23   O     O_2   0.834083 0.443464 0.670435 -0.502369
O24   O     O_3   0.064124 0.651005 0.628744 -0.576244
O25   O     O_3   0.660872 0.336129 0.671341 -0.600184
O26   O     O_2   0.806150 0.327840 0.473120 -0.487632
O27   O     O_3   0.073640 0.373350 0.561550 -0.487371
O28   O     O_2   0.951057 0.251241 0.533140 -0.497564
P1    P     P_3+3 0.084800 0.558370 0.611580 1.061864
P2    P     P_3+3 0.628800 0.338360 0.458800 0.983289
P3    P     P_3+3 0.106400 0.281162 0.557556 0.952774
P4    P     P_3+3 0.104900 0.441570 0.388420 0.980029
P5    P     P_3+3 0.087954 0.719765 0.441161 1.008823
P6    P     P_3+3 0.665948 0.420689 0.651960 0.958532
P7    P     P_3+3 0.565331 0.673711 0.543745 1.001999
P8    P     P_3+3 0.541197 0.594478 0.349605 0.951048
S1    S     S_3+6 0.297957 0.203089 0.318581 -0.056112
O29   O     O_2   0.266742 0.255809 0.281774 -0.244970
O30   O     O_2   0.271958 0.130113 0.291476 -0.270887
O31   O     O_3   0.489055 0.203557 0.340692 -0.521823
H45   H     H_    0.521594 0.153681 0.345822 0.341275
C67   C     C_3   0.202946 0.170877 0.406597 -0.451109
H46   H     H_    0.327849 0.175956 0.421033 0.118727
H47   H     H_    0.118768 0.180232 0.437921 0.077686
H48   H     H_    0.195045 0.115165 0.388300 0.167024
C68   C     C_3   0.992833 0.211568 0.346548 -0.274802
H49   H     H_    0.983175 0.154678 0.331284 0.146821
H50   H     H_    0.900520 0.225988 0.374843 0.040607
H51   H     H_    0.968237 0.243010 0.314959 0.152624
S2    S     S_3+6 0.999557 0.841968 0.592050 -0.034672
O32   O     O_2   0.045382 0.860418 0.542455 -0.314770
O33   O     O_2   0.822741 0.832953 0.591490 -0.245279
O34   O     O_3   0.040470 0.909509 0.636711 -0.413567
H52   H     H_    0.156465 0.915142 0.634011 0.350766
C69   C     C_3   0.671616 0.433809 0.377899 -0.243740
H53   H     H_    0.743411 0.457707 0.410532 0.072910
H54   H     H_    0.692590 0.456609 0.343908 -0.001407
H55   H     H_    0.545088 0.445922 0.385988 0.187051
C70   C     C_3   0.538345 0.354862 0.285369 -0.234058
H56   H     H_    0.436293 0.357009 0.310580 0.201193
H57   H     H_    0.548168 0.408909 0.275099 0.096874
H58   H     H_    0.513625 0.319087 0.250189 0.173182
S3    S     S_3+6 0.405029 0.735889 0.716401 0.002448
O35   O     O_2   0.247949 0.702412 0.710112 -0.330801
O36   O     O_2   0.434632 0.759960 0.771343 -0.194882
O37   O     O_3   0.399619 0.806559 0.684750 -0.492136
H59   H     H_    0.325189 0.843155 0.703247 0.376880
S4    S     S_3+6 0.753817 0.701747 0.712174 0.028141
O38   O     O_2   0.801683 0.752188 0.678147 -0.200292
O39   O     O_2   0.753608 0.738788 0.765168 -0.221793
O40   O     O_3   0.886469 0.630580 0.709919 -0.557787
H60   H     H_    0.986310 0.649570 0.725339 0.412438
S5    S     S_3+6 0.162417 0.215163 0.726420 -0.010825
O41   O     O_2   0.068651 0.202675 0.770289 -0.225403
O42   O     O_2   0.143538 0.155128 0.684597 -0.240966
O43   O     O_3   0.357585 0.218328 0.744312 -0.480383
H61   H     H_    0.391428 0.170266 0.753197 0.387350
C71   C     C_3   0.098612 0.668093 0.308020 -0.223440
H62   H     H_    0.153980 0.623290 0.326952 0.131544
H63   H     H_    0.005005 0.647935 0.281196 0.114706
H64   H     H_    0.190816 0.689045 0.286962 0.154418
C72   C     C_3   0.443021 0.817274 0.295531 -0.327444
H65   H     H_    0.357425 0.779176 0.277586 0.166135
H66   H     H_    0.385844 0.872194 0.295739 0.143131
H67   H     H_    0.552670 0.811794 0.273070 0.154651
S6    S     S_3+6 0.456549 0.332829 0.983527 -0.059818
O44   O     O_2   0.396861 0.260088 0.982061 -0.251854
O45   O     O_2   0.614543 0.325094 0.957976 -0.252611
O46   O     O_3   0.487088 0.369358 0.043380 -0.530641
H68   H     H_    0.561631 0.334241 0.058578 0.374908
S7    S     S_3+6 0.957537 0.724813 0.141854 -0.025186
O47   O     O_2   0.783221 0.741444 0.153672 -0.233703
O48   O     O_2   0.058163 0.729575 0.189821 -0.290378
O49   O     O_3   0.012787 0.785566 0.107295 -0.500663
H69   H     H_    0.992383 0.832045 0.128460 0.381080
C73   C     C_3   0.326091 0.317294 0.658223 -0.255304
H70   H     H_    0.388835 0.263916 0.658485 0.177685
H71   H     H_    0.361939 0.339948 0.625053 0.010002
H72   H     H_    0.361184 0.352148 0.692636 0.129065
C74   C     C_3   0.968053 0.677161 0.871049 -0.218637
H73   H     H_    0.890013 0.714958 0.896295 0.114181
H74   H     H_    0.062434 0.708117 0.858739 0.192334
H75   H     H_    0.890883 0.656556 0.838498 0.175187
C75   C     C_3   0.737047 0.170648 0.456012 -0.296479
H76   H     H_    0.818189 0.209568 0.448455 0.136747
H77   H     H_    0.812435 0.133280 0.477312 0.138464
H78   H     H_    0.697831 0.142945 0.419105 0.111808

loop_
_geom_bond_atom_site_label_1
_geom_bond_atom_site_label_2
_ccdc_geom_bond_type
C25   C46   A    
Ba2   P4    S    
O34   H52   S    
C54   P2    S    
C4    H14   S    
O6    P8    S    
S1    O30   D    
C66   C70   S    
Ba1   O27   S    
C17   C18   A    
C39   N2    S    
O26   P2    D    
C1    H11   S    
C22   C37   D    
C2    O25   S    
S5    O42   D    
C5    C6    S    
C55   N3    A    
C69   H53   S    
C3    O15   S    
C12   C73   S    
C27   C28   A    
O17   P8    S    
C11   C16   D    
C34   C45   S    
O15   P7    S    
C3    C4    S    
O4    P4    D    
C68   H49   S    
C35   C36   S    
O11   P5    S    
C7    H20   S    
C28   C29   A    
C73   H71   S    
C56   H3    S    
C69   H55   S    
C21   H34   S    
C14   C15   D    
C19   H26   S    
C51   H36   S    
O1    P1    D    
N3    N4    A    
C10   C20   A    
C32   O21   D    
S7    O49   S    
O37   H59   S    
C35   H27   S    
C33   N2    Am   
C6    H17   S    
Ba1   O1    S    
C11   H30   S    
C56   O24   S    
C13   P8    S    
C28   H28   S    
O9    P5    S    
C74   H74   S    
C25   C42   A    
C56   C64   S    
S2    O34   S    
C64   H4    S    
C34   O7    S    
O3    P3    S    
C72   H65   S    
C70   H57   S    
C34   H44   S    
C22   C36   S    
C1    H7    S    
C65   O2    S    
O22   P6    S    
C6    H18   S    
C45   C67   S    
Ba2   O9    S    
Ba2   O4    S    
C5    H16   S    
O5    P4    S    
C57   N5    A    
C12   O3    S    
S1    O31   S    
O40   H60   S    
C71   H64   S    
C16   N1    S    
C36   P6    S    
C2    H1    S    
C17   C41   A    
O14   P7    D    
C19   C43   A    
C52   C57   S    
C69   H54   S    
C32   N2    Am   
S7    O47   D    
C9    C18   A    
Ba2   O13   S    
C60   P5    S    
C4    S3    S    
S5    O41   D    
C67   H48   S    
C26   C30   A    
C17   C20   A    
Ba1   O8    S    
C71   H63   S    
Ba1   O12   S    
C23   S5    S    
S3    O36   D    
C7    H21   S    
C37   C38   D    
C73   H70   S    
C57   N4    A    
C75   H78   S    
C51   C52   D    
C64   H5    S    
C65   C66   S    
O25   P6    S    
C58   C59   A    
C3    H12   S    
C40   C43   A    
C67   H47   S    
S3    O35   D    
C41   C42   A    
Ba1   O5    S    
C2    H10   S    
C60   C61   A    
O28   P3    D    
C3    H13   S    
C50   P3    S    
O10   P5    D    
Ba2   O14   S    
C29   C30   A    
S6    O46   S    
C70   H58   S    
C12   H24   S    
C34   H43   S    
C15   C16   S    
O13   P2    S    
C65   H6    S    
S6    O44   D    
C61   H38   S    
C75   H77   S    
C63   H41   S    
O23   P6    D    
Ba1   O22   S    
C23   H42   S    
C24   C27   A    
C53   C75   S    
C45   C68   S    
C7    O17   S    
C72   H66   S    
C38   C39   S    
C20   C44   A    
S6    O45   D    
C8    H23   S    
O2    P2    S    
C14   C21   D    
C11   C13   S    
C1    H15   S    
O31   H45   S    
C55   C62   S    
C10   O20   D    
Ba1   P1    S    
C15   H25   S    
C40   C41   A    
C13   C21   S    
S4    O39   D    
C1    C2    S    
Ba2   O8    S    
Ba2   O12   S    
C50   C51   S    
C24   C40   A    
C74   H75   S    
C10   N1    Am   
C7    C8    S    
S3    O37   S    
C42   C48   A    
C66   H9    S    
C46   H31   S    
C44   C48   A    
C52   C53   S    
S2    O32   D    
C60   C63   A    
O12   P1    S    
O24   P1    S    
C68   H51   S    
C56   H2    S    
C49   C54   D    
C71   H62   S    
Ba1   O13   S    
C73   H72   S    
C8    C72   S    
C38   H32   S    
C14   P4    S    
Ba2   O6    S    
C66   H8    S    
C44   S7    S    
C4    S4    S    
C24   C26   A    
C64   S2    S    
C47   C74   S    
C58   C62   A    
C22   H35   S    
C30   C31   A    
C6    H19   S    
S4    O40   S    
C68   H50   S    
C5    C71   S    
S5    O43   S    
C49   C50   S    
Ba1   O26   S    
C43   H29   S    
C9    O18   D    
C33   O19   D    
C74   H73   S    
O16   P8    D    
C45   S1    S    
C65   C69   S    
C72   H67   S    
C46   C47   A    
Ba1   Ba2   S    
S2    O33   D    
S7    O48   D    
C31   C32   A    
O43   H61   S    
C29   C33   A    
C12   C23   S    
C35   C39   D    
C75   H76   S    
C9    N1    Am   
C67   H46   S    
O27   P3    S    
C5    O11   S    
O7    P4    S    
C53   C54   D    
C61   C62   A    
O8    P7    S    
C59   C63   A    
C18   C19   A    
C8    H22   S    
C48   H33   S    
C49   H39   S    
C70   H56   S    
C37   P1    S    
S1    O29   D    
C27   S6    S    
O46   H68   S    
Ba1   P2    S    
C59   P7    S    
S4    O38   D    
N5    N6    A    
C31   C47   A    
Ba2   O5    S    
C58   H37   S    
C23   H40   S    
O49   H69   S    
C55   N6    A    
C25   C26   A    
