data_mof_unit_12388.cif
_audit_creation_date              2012-10-26T20:38:55-0400
_audit_creation_method            fapswitch 2.2
_symmetry_space_group_name_H-M    P1
_symmetry_Int_Tables_number       1
_space_group_crystal_system       triclinic
_cell_length_a                    23.512452
_cell_length_b                    12.963801
_cell_length_c                    11.768316
_cell_angle_alpha                 100.781544
_cell_angle_beta                  94.888418
_cell_angle_gamma                 91.060437
_cell_volume                      3508.7951836

loop_
_atom_site_label
_atom_site_type_symbol
_atom_type_description
_atom_site_fract_x
_atom_site_fract_y
_atom_site_fract_z
_atom_type_partial_charge
C1    C     C_R   0.499225 0.299055 0.477933 0.553772
C2    C     C_R   0.698589 0.512054 0.403335 -0.119730
C3    C     C_R   0.235857 0.414650 0.446212 -0.024778
C4    C     C_R   0.757978 0.512794 0.405442 -0.036599
C5    C     C_R   0.210430 0.500043 0.512543 0.216433
C6    C     C_R   0.791271 0.501431 0.506590 0.217460
C7    C     C_R   0.497619 0.814518 0.533744 0.019845
C8    C     C_R   0.499649 0.185310 0.464831 0.016778
C9    C     C_R   0.519620 0.015186 0.354265 -0.105882
C10   C     C_R   0.475073 0.984115 0.642014 -0.106284
C11   C     C_R   0.515696 0.123207 0.362538 -0.093185
C12   C     C_R   0.500010 0.700934 0.521883 0.556798
C13   C     C_R   0.478716 0.876069 0.633505 -0.083887
C14   C     C_R   0.485851 0.138802 0.557592 -0.107151
C15   C     C_R   0.511453 0.861112 0.440973 -0.102485
C16   C     C_R   0.391182 0.499301 0.499796 0.554234
C17   C     C_R   0.609083 0.500041 0.500706 0.562035
C18   C     C_R   0.489182 0.030876 0.549688 0.048023
C19   C     C_R   0.506894 0.968745 0.447778 0.049400
C20   C     C_R   0.427658 0.469776 0.028184 0.228798
C21   C     C_R   0.572550 0.541745 0.970445 0.208404
C22   C     C_R   0.437632 0.449180 0.142763 0.384895
C23   C     C_R   0.245184 0.584090 0.576192 -0.041615
C24   C     C_R   0.559222 0.564783 0.857662 0.358347
C25   C     C_R   0.533647 0.512293 0.153746 0.031787
C26   C     C_R   0.468871 0.479860 0.844931 0.057164
C27   C     C_R   0.527829 0.511607 0.031124 -0.077582
C28   C     C_R   0.474296 0.487343 0.967951 -0.079112
C29   C     C_R   0.881381 0.591420 0.499835 0.447547
C30   C     C_R   0.120697 0.418050 0.542137 0.444336
C31   C     C_R   0.880049 0.411820 0.518771 0.450420
C32   C     C_R   0.120534 0.585457 0.487263 0.457325
C33   C     C_R   0.940331 0.411872 0.530852 0.002264
C34   C     C_R   0.764772 0.489660 0.605797 -0.025461
C35   C     C_R   0.061284 0.592536 0.497439 0.004522
C36   C     C_R   0.970648 0.501646 0.511312 -0.114332
C37   C     C_R   0.030742 0.501730 0.512810 -0.114641
C38   C     C_R   0.940845 0.591346 0.490288 -0.009422
C39   C     C_R   0.060441 0.410991 0.529620 -0.005012
C40   C     C_R   0.970889 0.323999 0.556063 0.244042
C41   C     C_R   0.031596 0.685083 0.486935 0.254245
C42   C     C_R   0.029384 0.318214 0.538094 0.234407
C43   C     C_R   0.971549 0.679088 0.466028 0.234760
C44   C     C_R   0.304201 0.584132 0.570578 -0.134656
C45   C     C_R   0.705406 0.489405 0.604045 -0.090189
C46   C     C_R   0.329158 0.499948 0.501901 0.032218
C47   C     C_R   0.671770 0.500432 0.502673 0.009258
C48   C     C_R   0.294971 0.413698 0.443026 -0.075828
Cu1   Cu    Cu3+1 0.504210 0.507730 0.615930 1.066724
Cu2   Cu    Cu3+1 0.495790 0.492270 0.384070 1.063626
H1    H     H_    0.430730 0.445174 0.793232 0.198813
H2    H     H_    0.778189 0.521793 0.328381 0.167890
H3    H     H_    0.525600 0.813590 0.363169 0.137489
H4    H     H_    0.472659 0.186608 0.636171 0.136515
H5    H     H_    0.465349 0.840555 0.703461 0.181843
H6    H     H_    0.526493 0.158408 0.290283 0.161328
H7    H     H_    0.532897 0.968206 0.275401 0.134170
H8    H     H_    0.460627 0.030797 0.719891 0.140118
H9    H     H_    0.877252 0.240698 0.757614 0.386565
H10   H     H_    0.140509 0.877446 0.643147 0.389867
H11   H     H_    0.605252 0.779992 0.009998 0.352041
H12   H     H_    0.573278 0.539271 0.204462 0.197851
H13   H     H_    0.327667 0.240108 0.075187 0.386332
H14   H     H_    0.322883 0.578663 0.838480 0.371285
H15   H     H_    0.695603 0.433730 0.110934 0.371255
H16   H     H_    0.028598 0.035737 0.416467 0.406342
H17   H     H_    0.962229 0.875803 0.277687 0.386332
H18   H     H_    0.226423 0.649587 0.629646 0.174477
H19   H     H_    0.790271 0.480986 0.684310 0.175913
H20   H     H_    0.330425 0.649851 0.619511 0.135785
H21   H     H_    0.685884 0.480014 0.681748 0.186214
H22   H     H_    0.313996 0.345244 0.395621 0.182418
H23   H     H_    0.673736 0.521243 0.324343 0.174739
H24   H     H_    0.209803 0.348737 0.397384 0.180627
N1    N     N_R   0.852414 0.501576 0.508482 -0.414075
N2    N     N_R   0.149223 0.501480 0.514689 -0.408957
N3    N     N_R   0.510550 0.519360 0.790130 -0.276184
N4    N     N_R   0.489450 0.480640 0.209870 -0.287458
O1    O     O_R   0.502990 0.354470 0.582000 -0.527148
O2    O     O_2   0.150804 0.344840 0.586180 -0.385445
O3    O     O_2   0.848830 0.322335 0.512114 -0.390250
O4    O     O_2   0.149007 0.658985 0.444895 -0.384447
O5    O     O_2   0.907118 0.147151 0.548282 -0.140910
O6    O     O_2   0.985670 0.185683 0.702281 -0.171706
O7    O     O_3   0.895873 0.296570 0.725254 -0.492410
O8    O     O_2   0.092172 0.840298 0.422820 -0.176325
O9    O     O_2   0.026820 0.893684 0.573033 -0.175886
O10   O     O_3   0.120425 0.807897 0.631207 -0.493934
O11   O     O_2   0.621086 0.676799 0.732206 -0.215749
O12   O     O_R   0.497010 0.645530 0.418000 -0.523133
O13   O     O_2   0.539259 0.758998 0.822386 -0.313715
O14   O     O_3   0.631120 0.747836 0.952095 -0.408903
O15   O     O_2   0.406587 0.296819 0.264891 -0.289014
O16   O     O_2   0.335355 0.421457 0.220742 -0.255492
O17   O     O_3   0.362592 0.274720 0.056128 -0.472957
O18   O     O_2   0.334066 0.388305 0.888540 -0.233496
O19   O     O_2   0.317469 0.525761 0.055272 -0.174082
O20   O     O_3   0.361016 0.581651 0.882064 -0.541746
O21   O     O_2   0.684645 0.546960 0.936964 -0.210218
O22   O     O_2   0.657083 0.632912 0.127727 -0.278019
O23   O     O_R   0.495870 0.341410 0.386200 -0.451323
O24   O     O_3   0.655022 0.429225 0.079346 -0.538385
O25   O     O_2   0.100593 0.194834 0.409479 -0.249222
O26   O     O_2   0.090365 0.162143 0.605394 -0.147914
O27   O     O_3   0.007932 0.100172 0.444232 -0.428685
O28   O     O_2   0.889480 0.714419 0.304273 -0.223277
O29   O     O_2   0.913519 0.857132 0.471282 -0.140729
O30   O     O_3   0.983580 0.821296 0.310386 -0.454807
O31   O     O_R   0.504130 0.658590 0.613800 -0.432472
O32   O     O_R   0.421440 0.506500 0.597920 -0.519205
O33   O     O_R   0.578560 0.493500 0.402080 -0.526387
O34   O     O_R   0.414320 0.493440 0.402120 -0.431907
O35   O     O_R   0.585680 0.506560 0.597880 -0.468295
O36   O     O_2   0.852688 0.681017 0.505775 -0.367663
S1    S     S_3+6 0.940171 0.233272 0.632808 0.149432
S2    S     S_3+6 0.067381 0.811240 0.526646 0.132927
S3    S     S_3+6 0.587815 0.687717 0.836687 0.103998
S4    S     S_3+6 0.385416 0.360662 0.177736 0.080795
S5    S     S_3+6 0.357490 0.489014 0.964447 0.065590
S6    S     S_3+6 0.644718 0.541230 0.028999 0.026906
S7    S     S_3+6 0.059346 0.191965 0.499854 0.143792
S8    S     S_3+6 0.937285 0.769870 0.387677 0.140243

loop_
_geom_bond_atom_site_label_1
_geom_bond_atom_site_label_2
_ccdc_geom_bond_type
Cu1   O35   S    
C29   O36   S    
O10   S2    S    
C45   H21   S    
C1    C8    S    
C14   C18   A    
O18   S5    D    
H10   O10   S    
C16   O32   A    
O20   S5    S    
C15   C19   A    
C24   S3    S    
C4    H2    S    
C15   H3    S    
C12   O12   A    
C36   C37   A    
C35   C37   A    
C21   S6    S    
H17   O30   S    
C40   S1    S    
H13   O17   S    
C3    C48   A    
C33   C36   A    
O8    S2    D    
C18   C19   A    
C3    H24   S    
O21   S6    D    
Cu2   O12   S    
C44   C46   A    
C29   C38   A    
O13   S3    D    
C44   H20   S    
O22   S6    D    
H14   O20   S    
H11   O14   S    
C30   O2    S    
C7    C15   A    
C21   C27   A    
O30   S8    S    
C41   C43   A    
H15   O24   S    
C48   H22   S    
C17   O33   A    
C12   O31   A    
C9    C19   A    
C39   C42   A    
C45   C47   A    
O17   S4    S    
C7    C12   S    
C46   C48   A    
C26   N3    A    
C31   C33   A    
C17   O35   A    
C25   N4    A    
C33   C40   A    
C32   C35   A    
O5    S1    D    
O7    S1    S    
C22   N4    A    
C4    C6    A    
C16   C46   S    
O26   S7    D    
C20   C28   A    
C23   C44   A    
C6    C34   A    
C23   H18   S    
O19   S5    D    
C2    C4    A    
O14   S3    S    
H9    O7    S    
C30   N2    A    
C31   N1    A    
C5    C23   A    
O28   S8    D    
Cu2   O34   S    
O27   S7    S    
C34   C45   A    
C9    C11   A    
C43   S8    S    
O9    S2    D    
C2    H23   S    
C14   H4    S    
C20   C22   A    
O6    S1    D    
C1    O1    A    
O15   S4    D    
C41   S2    S    
O25   S7    D    
C1    O23   A    
Cu2   N4    S    
O24   S6    S    
C16   O34   A    
Cu1   O31   S    
C22   S4    S    
C8    C14   A    
C10   H8    S    
C34   H19   S    
C17   C47   S    
O11   S3    D    
C3    C5    A    
C10   C13   A    
C32   N2    A    
C29   N1    A    
C2    C47   A    
C25   C27   A    
C32   O4    S    
C26   C28   A    
C31   O3    S    
C5    N2    S    
C36   C38   A    
C38   C43   A    
C37   C39   A    
C26   H1    S    
O16   S4    D    
C10   C18   A    
C8    C11   A    
C40   C42   A    
Cu2   O33   S    
Cu1   N3    S    
C30   C39   A    
C9    H7    S    
C25   H12   S    
C35   C41   A    
Cu1   O1    S    
C24   N3    A    
C7    C13   A    
Cu2   O23   S    
Cu1   Cu2   S    
C21   C24   A    
C27   C28   A    
H16   O27   S    
O29   S8    D    
C20   S5    S    
C11   H6    S    
C42   S7    S    
Cu1   O32   S    
C13   H5    S    
C6    N1    S    
