data_mof_unit_45838.cif
_audit_creation_date              2012-12-11T17:08:34-0500
_audit_creation_method            fapswitch 2.2
_symmetry_space_group_name_H-M    P1
_symmetry_Int_Tables_number       1
_space_group_crystal_system       triclinic
_cell_length_a                    6.976938
_cell_length_b                    14.773589
_cell_length_c                    15.900932
_cell_angle_alpha                 89.957521
_cell_angle_beta                  90.191997
_cell_angle_gamma                 90.604449
_cell_volume                      1638.87844171

loop_
_atom_site_label
_atom_site_type_symbol
_atom_type_description
_atom_site_fract_x
_atom_site_fract_y
_atom_site_fract_z
_atom_type_partial_charge
O1    O     O_R   0.505700 0.583890 0.413310 -0.537121
O2    O     O_R   0.175960 0.594920 0.586080 -0.535158
O3    O     O_R   0.005660 0.416110 0.586690 -0.528991
C1    C     C_R   0.345524 0.616985 0.614591 0.751818
O4    O     O_R   0.175980 0.594920 0.413930 -0.519742
O5    O     O_R   0.005680 0.416110 0.413310 -0.535379
C2    C     C_R   0.346088 0.616703 0.384746 0.780328
O6    O     O_R   0.505680 0.583890 0.586690 -0.513572
O7    O     O_3   0.339200 0.441330 0.500000 -0.354388
V1    V     V_3+5 0.064350 0.510880 0.500000 1.643223
O8    O     O_R   0.675960 0.405080 0.413920 -0.547621
C3    C     C_R   0.843849 0.382680 0.385759 0.718715
O9    O     O_R   0.675940 0.405080 0.586070 -0.533750
C4    C     C_R   0.844221 0.383538 0.615101 0.804334
V2    V     V_3+5 0.564340 0.489120 0.500000 1.627291
O10   O     O_3   0.839360 0.558670 0.500000 -0.342961
C5    C     C_R   0.936275 0.231290 0.672226 -0.145772
C6    C     C_R   0.849765 0.315475 0.683693 -0.213792
C7    C     C_R   0.753955 0.329712 0.761169 0.366621
C8    C     C_R   0.769599 0.264884 0.827270 0.563340
C9    C     C_R   0.877015 0.185106 0.817046 -0.178462
C10   C     C_R   0.950819 0.168643 0.736960 -0.202037
C11   C     C_3   0.139773 0.135059 0.707002 0.420169
C12   C     C_3   0.122447 0.203021 0.635042 1.095573
H1    H     H_    0.135660 0.063041 0.687021 0.132820
C13   C     C_R   0.730610 0.245744 0.189498 0.025287
C14   C     C_R   0.885219 0.188498 0.179828 -0.166884
C15   C     C_R   0.032930 0.198999 0.240396 -0.286297
H2    H     H_    0.157896 0.157690 0.238340 0.213618
C16   C     C_R   0.016638 0.259765 0.308700 0.609217
C17   C     C_R   0.854409 0.315597 0.317085 -0.182006
C18   C     C_R   0.713203 0.304776 0.255060 -0.139965
C19   C     C_3   0.513822 0.329306 0.229760 0.203981
C20   C     C_3   0.537971 0.263629 0.154638 0.864182
H3    H     H_    0.409460 0.305822 0.277811 0.140102
C21   C     C_R   0.484783 0.675534 0.750743 -0.174652
C22   C     C_R   0.354196 0.683782 0.684122 -0.110381
C23   C     C_R   0.221803 0.755104 0.688721 -0.139994
H4    H     H_    0.116200 0.763539 0.639373 0.221001
C24   C     C_R   0.233013 0.820222 0.753639 0.699084
C25   C     C_R   0.374398 0.814417 0.817277 -0.202207
C26   C     C_R   0.493331 0.738504 0.815962 -0.165550
C27   C     C_3   0.705978 0.731314 0.822088 1.083355
C28   C     C_3   0.696773 0.662792 0.750770 0.407108
H5    H     H_    0.740532 0.593350 0.768699 0.084586
C29   C     C_R   0.522282 0.697522 0.265809 -0.210037
C30   C     C_R   0.358822 0.686916 0.317229 -0.250041
C31   C     C_R   0.227538 0.758258 0.317481 0.647932
C32   C     C_R   0.241929 0.831828 0.260741 0.339699
C33   C     C_R   0.377162 0.826152 0.193366 -0.182340
C34   C     C_R   0.534715 0.771565 0.209565 -0.082529
C35   C     C_3   0.707733 0.809635 0.254177 0.231052
C36   C     C_3   0.718100 0.720043 0.300274 0.941330
H6    H     H_    0.826563 0.823134 0.209837 0.056911
O11   O     O_R   0.229000 0.916070 0.913330 -0.507923
O12   O     O_R   0.558770 0.905070 0.086080 -0.540517
O13   O     O_R   0.729000 0.083900 0.086690 -0.514802
C37   C     C_R   0.389727 0.889186 0.119684 0.723297
O14   O     O_R   0.558720 0.905070 0.913930 -0.516129
O15   O     O_R   0.728960 0.083900 0.913310 -0.520215
C38   C     C_R   0.389044 0.883534 0.884877 0.807710
O16   O     O_R   0.229050 0.916070 0.086710 -0.571497
O17   O     O_3   0.395460 0.058650 0.000020 -0.358235
V3    V     V_3+5 0.670340 0.989120 0.000000 1.656679
O18   O     O_R   0.058670 0.094960 0.913900 -0.528865
C39   C     C_R   0.889946 0.116874 0.885218 0.838758
O19   O     O_R   0.058720 0.094960 0.086050 -0.555272
C40   C     C_R   0.890861 0.118562 0.113227 0.718496
V4    V     V_3+5 0.170330 0.010930 0.999970 1.593039
O20   O     O_3   0.895340 0.941350 0.999980 -0.371402
O21   O     O_3   0.673887 0.413047 0.777693 -0.564219
C41   C     C_3   0.472443 0.405059 0.774679 -0.111707
H7    H     H_    0.422596 0.399166 0.708620 0.182439
H8    H     H_    0.410353 0.467871 0.800724 0.127167
H9    H     H_    0.416222 0.347431 0.812811 0.192355
O22   O     O_3   0.549876 0.306341 0.075118 -0.529066
C42   C     C_3   0.368254 0.306404 0.035754 0.089086
H10   H     H_    0.370455 0.356993 0.984179 0.150120
H11   H     H_    0.250985 0.325066 0.079388 0.069362
H12   H     H_    0.337072 0.239144 0.007448 0.163898
F1    F     F_    0.425816 0.185842 0.156862 -0.751167
F2    F     F_    0.115430 0.892694 0.750267 -0.635956
F3    F     F_    0.765422 0.694635 0.897777 -0.701839
F4    F     F_    0.799876 0.811108 0.801655 -0.608861
F5    F     F_    0.780270 0.694608 0.677476 -0.641047
F6    F     F_    0.111085 0.765919 0.385070 -0.640908
F7    F     F_    0.692072 0.283363 0.903362 -0.672189
O23   O     O_3   0.194973 0.913664 0.297705 -0.531641
C43   C     C_3   0.109068 0.974847 0.242796 -0.144982
H13   H     H_    0.007915 0.942618 0.197953 0.103604
H14   H     H_    0.222180 0.015102 0.211038 0.175070
H15   H     H_    0.022725 0.021565 0.281097 0.148371
O24   O     O_3   0.646229 0.887480 0.299735 -0.566035
C44   C     C_3   0.753873 0.907968 0.372222 0.003141
H16   H     H_    0.678243 0.881794 0.428643 0.209445
H17   H     H_    0.763274 0.982610 0.378767 0.142122
H18   H     H_    0.900154 0.882087 0.370383 0.227118
F8    F     F_    0.729181 0.725436 0.387137 -0.649099
O25   O     O_3   0.868223 0.668895 0.264464 -0.594414
C45   C     C_3   0.841633 0.575816 0.278385 -0.175385
H19   H     H_    0.718611 0.549490 0.241431 0.178894
H20   H     H_    0.823942 0.561187 0.345807 0.185486
H21   H     H_    0.970793 0.540003 0.256674 0.110967
F9    F     F_    0.287120 0.156509 0.762371 -0.664513
F10   F     F_    0.099541 0.162551 0.557147 -0.647869
F11   F     F_    0.261462 0.270378 0.635886 -0.671481
F12   F     F_    0.154176 0.259454 0.369282 -0.640552
O26   O     O_3   0.504278 0.420741 0.204414 -0.546272
C46   C     C_3   0.323642 0.455675 0.225324 -0.240534
H22   H     H_    0.205168 0.415980 0.195782 0.128245
H23   H     H_    0.315189 0.526118 0.201615 0.169635
H24   H     H_    0.304403 0.457005 0.294628 0.129038

loop_
_geom_bond_atom_site_label_1
_geom_bond_atom_site_label_2
_ccdc_geom_bond_type
C37   O16   A    
C13   C18   A    
O24   C44   S    
C9    C39   S    
C27   F3    S    
C25   C26   A    
C4    C6    S    
C21   C26   A    
C7    C8    A    
C25   C38   S    
C1    O6    A    
C42   H10   S    
C36   O25   S    
C13   C14   A    
C21   C22   A    
C46   H23   S    
O5    C3    A    
C16   C17   A    
C16   F12   S    
C7    O21   S    
V2    O10   S    
C8    F7    S    
O26   C46   S    
C6    C7    A    
C14   C40   S    
O8    V2    S    
C13   C20   S    
O25   C45   S    
O12   C37   A    
C1    C22   S    
C11   C12   S    
O12   V3    S    
O1    V2    S    
C20   F1    S    
V3    O20   S    
C43   H14   S    
O7    V1    S    
O15   C39   A    
O9    C4    A    
C27   F4    S    
C32   O23   S    
V4    O20   S    
C19   O26   S    
C41   H9    S    
C35   H6    S    
C33   C34   A    
C42   H11   S    
O14   C38   A    
C5    C12   S    
C34   C35   S    
C33   C37   S    
C24   F2    S    
O22   C42   S    
C41   H8    S    
C46   H24   S    
O4    C2    A    
C44   H18   S    
C29   C34   A    
C45   H21   S    
O19   C40   A    
O16   V4    S    
O19   V4    S    
C2    C30   S    
O2    C1    A    
C27   C28   S    
C22   C23   A    
C30   C31   A    
C45   H20   S    
C5    C6    A    
O14   V3    S    
C35   O24   S    
C8    C9    A    
C43   H15   S    
C44   H17   S    
O11   V4    S    
O3    C4    A    
C31   C32   A    
C32   C33   A    
O6    V2    S    
O9    V2    S    
C3    C17   S    
C31   F6    S    
C21   C28   S    
C12   F11   S    
C26   C27   S    
O13   C40   A    
C28   F5    S    
O2    V1    S    
C35   C36   S    
O13   V3    S    
C42   H12   S    
C29   C30   A    
C15   H2    S    
O1    C2    A    
C17   C18   A    
C28   H5    S    
C41   H7    S    
O5    V1    S    
O8    C3    A    
C36   F8    S    
C5    C10   A    
O15   V3    S    
C18   C19   S    
C15   C16   A    
O7    V2    S    
O17   V4    S    
O3    V1    S    
V1    O10   S    
C46   H22   S    
C23   C24   A    
C23   H4    S    
O18   V4    S    
O11   C38   A    
C29   C36   S    
C45   H19   S    
C19   H3    S    
C19   C20   S    
C11   H1    S    
C11   F9    S    
C44   H16   S    
O17   V3    S    
O4    V1    S    
O21   C41   S    
O23   C43   S    
O18   C39   A    
C14   C15   A    
C10   C11   S    
C24   C25   A    
C12   F10   S    
C43   H13   S    
C9    C10   A    
C20   O22   S    
