data_mof_unit_15434.cif
_audit_creation_date              2012-12-11T14:56:44-0500
_audit_creation_method            fapswitch 2.2
_symmetry_space_group_name_H-M    P1
_symmetry_Int_Tables_number       1
_space_group_crystal_system       triclinic
_cell_length_a                    10.519824
_cell_length_b                    10.67788
_cell_length_c                    17.068631
_cell_angle_alpha                 80.231063
_cell_angle_beta                  89.892896
_cell_angle_gamma                 119.258255
_cell_volume                      1640.41837227

loop_
_atom_site_label
_atom_site_type_symbol
_atom_type_description
_atom_site_fract_x
_atom_site_fract_y
_atom_site_fract_z
_atom_type_partial_charge
C1    C     C_R   0.278596 0.888486 0.132781 0.552970
C2    C     C_1   0.684498 0.401893 0.709906 -0.048624
C3    C     C_R   0.624284 0.712897 0.805039 -0.137210
C4    C     C_R   0.634150 0.272821 0.089555 0.538349
C5    C     C_R   0.610296 0.697775 0.726720 -0.138120
C6    C     C_R   0.669926 0.822215 0.665512 0.031323
C7    C     C_R   0.749626 0.962190 0.682951 -0.142825
C8    C     C_R   0.759921 0.977711 0.761989 -0.140646
C9    C     C_R   0.691094 0.852749 0.823063 0.021035
C10   C     C_R   0.082895 0.883733 0.790191 -0.134550
C11   C     C_R   0.066587 0.880360 0.710663 -0.124520
C12   C     C_R   0.711773 0.260123 0.300569 -0.132356
C13   C     C_R   0.113907 0.801784 0.672198 0.031394
C14   C     C_R   0.164746 0.715165 0.715554 -0.137500
C15   C     C_R   0.182779 0.719782 0.795540 -0.123491
C16   C     C_R   0.643553 0.855741 0.124254 0.541943
C17   C     C_R   0.149577 0.811124 0.831488 0.026541
C18   C     C_R   0.711368 0.772481 0.353565 0.562044
C19   C     C_R   0.681845 0.385580 0.399113 0.554016
C20   C     C_R   0.108233 0.812552 0.359922 0.550805
C21   C     C_R   0.677546 0.800106 0.585499 0.542838
C22   C     C_R   0.717368 0.446158 0.625990 0.561493
C23   C     C_R   0.713505 0.249930 0.221592 -0.136913
C24   C     C_R   0.089662 0.798466 0.589543 0.543725
C25   C     C_R   0.216148 0.858014 0.902496 0.556178
C26   C     C_R   0.640266 0.290756 0.861895 0.552357
C27   C     C_R   0.647877 0.866810 0.899659 0.546214
C28   C     C_R   0.553578 0.355287 0.198334 -0.036118
C29   C     C_R   0.553828 0.366881 0.278048 -0.136724
C30   C     C_R   0.638841 0.325873 0.327931 0.014638
C31   C     C_1   0.469116 0.402570 0.147568 0.215475
C32   C     C_R   0.639195 0.301921 0.169261 0.017108
C33   C     C_1   0.685187 0.831641 0.201735 -0.039789
C34   C     C_1   0.703548 0.807266 0.270469 -0.042298
C35   C     C_1   0.227455 0.853862 0.215525 -0.029725
C36   C     C_1   0.178861 0.834601 0.283100 -0.030212
C37   C     C_1   0.661731 0.357876 0.780464 -0.046650
Cr1   Cr    Cr6+3 0.402240 0.783890 0.019450 1.058596
Cr2   Cr    Cr6+3 0.382360 0.097900 0.991800 1.042792
Cr3   Cr    Cr6+3 0.715380 0.118170 0.988700 1.027181
Cr4   Cr    Cr6+3 0.936650 0.882420 0.465510 1.021750
Cr5   Cr    Cr6+3 0.605770 0.565620 0.493360 1.022056
Cr6   Cr    Cr6+3 0.921340 0.550490 0.496380 1.022052
H1    H     H_    0.018470 0.941208 0.679054 0.149100
H2    H     H_    0.811898 0.086924 0.775026 0.146975
H3    H     H_    0.053500 0.951701 0.817586 0.135638
H4    H     H_    0.195223 0.649076 0.687079 0.130259
H5    H     H_    0.233137 0.661174 0.827130 0.144988
H6    H     H_    0.496206 0.417372 0.299426 0.143468
H7    H     H_    0.775640 0.225704 0.338864 0.147100
H8    H     H_    0.772913 0.200054 0.201731 0.153799
H9    H     H_    0.572213 0.615466 0.851639 0.136841
H10   H     H_    0.554936 0.588267 0.714100 0.135312
H11   H     H_    0.802002 0.058420 0.635673 0.135166
N1    N     N_1   0.401000 0.439645 0.106844 -0.267501
O1    O     O_R   0.521780 0.757110 0.108900 -0.491737
O2    O     O_R   0.805020 0.410040 0.421340 -0.511303
O3    O     O_R   0.049240 0.685450 0.403290 -0.490957
O4    O     O_R   0.275160 0.783810 0.101120 -0.482884
O5    O     O_R   0.077520 0.903010 0.551800 -0.518401
O6    O     O_R   0.802980 0.872780 0.546830 -0.506909
O7    O     O_R   0.578090 0.681300 0.569920 -0.521577
O8    O     O_R   0.608530 0.436370 0.586530 -0.492931
O9    O     O_R   0.798770 0.401880 0.597100 -0.506834
O10   O     O_R   0.043450 0.677890 0.566230 -0.516621
O11   O     O_3   0.821250 0.666180 0.485090 -0.296216
O12   O     O_R   0.513330 0.228330 0.898660 -0.493597
O13   O     O_R   0.237900 0.972600 0.090980 -0.500526
O14   O     O_R   0.511190 0.220540 0.061620 -0.506691
O15   O     O_R   0.736920 0.257720 0.063840 -0.518435
O16   O     O_R   0.710450 0.984050 0.081720 -0.503964
O17   O     O_R   0.524090 0.765520 0.933110 -0.509289
O18   O     O_R   0.277300 0.791600 0.938160 -0.499723
O19   O     O_R   0.240210 0.981010 0.915190 -0.513191
O20   O     O_R   0.739230 0.266130 0.888050 -0.508445
O21   O     O_R   0.712580 0.991850 0.918770 -0.505580
O22   O     O_3   0.499990 0.999980 0.999980 -0.275602
O23   O     O_R   0.083770 0.911170 0.376030 -0.505895
O24   O     O_R   0.808770 0.880340 0.383890 -0.490269
O25   O     O_R   0.584340 0.689460 0.394160 -0.503682
O26   O     O_R   0.614320 0.443940 0.423590 -0.516491

loop_
_geom_bond_atom_site_label_1
_geom_bond_atom_site_label_2
_ccdc_geom_bond_type
Cr5   O25   S    
Cr3   O16   S    
Cr2   O13   S    
C35   C36   T    
Cr4   O6    S    
C4    O15   A    
C7    C8    A    
C29   H6    S    
C19   O2    A    
Cr5   O26   S    
C12   C23   A    
C9    C27   S    
Cr3   O15   S    
C26   O12   A    
Cr2   O22   S    
C5    H10   S    
C28   C29   A    
C1    O4    A    
C5    C6    A    
C10   C17   A    
C1    O13   A    
C25   O19   A    
Cr2   O19   S    
C8    H2    S    
Cr6   O3    S    
C22   O8    A    
C8    C9    A    
C10   H3    S    
Cr5   O7    S    
C21   O6    A    
C24   O5    A    
C13   C14   A    
C16   O16   A    
C15   H5    S    
C4    O14   A    
Cr6   O9    S    
C33   C34   T    
C6    C7    A    
Cr1   O17   S    
C28   C32   A    
Cr4   O23   S    
C18   O24   A    
Cr4   O11   S    
C6    C21   S    
Cr3   O21   S    
C13   C24   S    
C16   O1    A    
C2    C22   S    
C29   C30   A    
C3    C9    A    
C16   C33   S    
C23   H8    S    
Cr6   O10   S    
C26   O20   A    
Cr2   O14   S    
C11   H1    S    
C18   C34   S    
C21   O7    A    
C4    C32   S    
C24   O10   A    
C20   O3    A    
C27   O21   A    
C1    C35   S    
C15   C17   A    
C12   C30   A    
Cr3   O22   S    
Cr2   O12   S    
C28   C31   S    
Cr4   O5    S    
C3    C5    A    
Cr4   O24   S    
C12   H7    S    
C3    H9    S    
C26   C37   S    
C14   H4    S    
Cr1   O22   S    
Cr3   O20   S    
C20   O23   A    
C17   C25   S    
C23   C32   A    
C11   C13   A    
C2    C37   T    
Cr6   O11   S    
C25   O18   A    
C10   C11   A    
Cr6   O2    S    
C22   O9    A    
Cr1   O4    S    
C20   C36   S    
Cr1   O1    S    
C18   O25   A    
Cr5   O11   S    
C14   C15   A    
C7    H11   S    
C31   N1    T    
C19   O26   A    
C19   C30   S    
Cr5   O8    S    
C27   O17   A    
Cr1   O18   S    
