data_mof_unit_35257.cif
_audit_creation_date              2012-12-11T16:12:44-0500
_audit_creation_method            fapswitch 2.2
_symmetry_space_group_name_H-M    P1
_symmetry_Int_Tables_number       1
_space_group_crystal_system       orthorhombic
_cell_length_a                    7.092109
_cell_length_b                    21.068087
_cell_length_c                    23.746711
_cell_angle_alpha                 90.0
_cell_angle_beta                  90.0
_cell_angle_gamma                 90.0
_cell_volume                      3548.16634078

loop_
_atom_site_label
_atom_site_type_symbol
_atom_type_description
_atom_site_fract_x
_atom_site_fract_y
_atom_site_fract_z
_atom_type_partial_charge
O1    O     O_R   0.615270 0.806540 0.192260 -0.537414
O2    O     O_R   0.384730 0.193460 0.807740 -0.540687
O3    O     O_R   0.384730 0.193460 0.692260 -0.537414
O4    O     O_R   0.615270 0.806540 0.307740 -0.540687
O5    O     O_R   0.115270 0.693460 0.307740 -0.537414
O6    O     O_R   0.884730 0.306540 0.692260 -0.540687
O7    O     O_R   0.884730 0.306540 0.807740 -0.537414
O8    O     O_R   0.115270 0.693460 0.192260 -0.540687
O9    O     O_R   0.285500 0.813970 0.307340 -0.536069
O10   O     O_R   0.714500 0.186030 0.692660 -0.531010
O11   O     O_R   0.714500 0.186030 0.807340 -0.536069
O12   O     O_R   0.285500 0.813970 0.192660 -0.531010
O13   O     O_R   0.785500 0.686030 0.192660 -0.536069
O14   O     O_R   0.214500 0.313970 0.807340 -0.531010
O15   O     O_R   0.214500 0.313970 0.692660 -0.536069
O16   O     O_R   0.785500 0.686030 0.307340 -0.531010
C1    C     C_R   0.452893 0.828795 0.326594 0.724367
C2    C     C_R   0.547018 0.171218 0.673486 0.734439
C3    C     C_R   0.547107 0.171205 0.826594 0.724367
C4    C     C_R   0.452982 0.828782 0.173486 0.734439
C5    C     C_R   0.952893 0.671205 0.173405 0.724367
C6    C     C_R   0.047018 0.328782 0.826514 0.734439
C7    C     C_R   0.047107 0.328795 0.673405 0.724367
C8    C     C_R   0.952982 0.671218 0.326514 0.734439
O17   O     O_3   0.448760 0.710460 0.250000 -0.370991
O18   O     O_3   0.551240 0.289540 0.750000 -0.370991
O19   O     O_3   0.948760 0.789540 0.250000 -0.370991
O20   O     O_3   0.051240 0.210460 0.750000 -0.370991
V1    V     V_3+5 0.173900 0.757330 0.250000 1.433635
V2    V     V_3+5 0.826100 0.242670 0.750000 1.433635
V3    V     V_3+5 0.673900 0.742670 0.250000 1.433635
V4    V     V_3+5 0.326100 0.257330 0.750000 1.433635
C9    C     C_3   0.097296 0.531917 0.545881 -0.038059
C10   C     C_3   0.936903 0.474172 0.458133 -0.072017
C11   C     C_3   0.902704 0.468083 0.045881 -0.038059
C12   C     C_3   0.063097 0.525827 0.958133 -0.072017
C13   C     C_3   0.597296 0.968083 0.954119 -0.038059
C14   C     C_3   0.436903 0.025827 0.041867 -0.072017
C15   C     C_3   0.402704 0.031917 0.454119 -0.038059
C16   C     C_3   0.563097 0.974172 0.541867 -0.072017
C17   C     C_3   0.903832 0.549816 0.520685 -0.051698
C18   C     C_3   0.130976 0.456826 0.483297 -0.076990
C19   C     C_3   0.096168 0.450184 0.020685 -0.051698
C20   C     C_3   0.869024 0.543173 0.983297 -0.076990
C21   C     C_3   0.403832 0.950184 0.979315 -0.051698
C22   C     C_3   0.630976 0.043173 0.016703 -0.076990
C23   C     C_3   0.596168 0.049816 0.479315 -0.051698
C24   C     C_3   0.369024 0.956826 0.516703 -0.076990
C25   C     C_1   0.956332 0.626323 0.372698 -0.173100
C26   C     C_1   0.045965 0.374742 0.627871 -0.185012
C27   C     C_1   0.043668 0.373677 0.872698 -0.173100
C28   C     C_1   0.954035 0.625258 0.127871 -0.185012
C29   C     C_1   0.456332 0.873677 0.127302 -0.173100
C30   C     C_1   0.545965 0.125258 0.872129 -0.185012
C31   C     C_1   0.543668 0.126323 0.627302 -0.173100
C32   C     C_1   0.454035 0.874742 0.372129 -0.185012
C33   C     C_3   0.182017 0.528784 0.485605 -0.016016
C34   C     C_3   0.852480 0.478408 0.518163 -0.042730
C35   C     C_3   0.817982 0.471216 0.985605 -0.016016
C36   C     C_3   0.147520 0.521592 0.018163 -0.042730
C37   C     C_3   0.682017 0.971216 0.014395 -0.016016
C38   C     C_3   0.352480 0.021592 0.981837 -0.042730
C39   C     C_3   0.317983 0.028784 0.514395 -0.016016
C40   C     C_3   0.647520 0.978408 0.481837 -0.042730
C41   C     C_3   0.986848 0.545644 0.460383 0.101278
C42   C     C_3   0.045855 0.460569 0.543295 0.105271
C43   C     C_3   0.013152 0.454356 0.960383 0.101278
C44   C     C_3   0.954144 0.539431 0.043295 0.105271
C45   C     C_3   0.486848 0.954356 0.039617 0.101278
C46   C     C_3   0.545855 0.039431 0.956705 0.105271
C47   C     C_3   0.513152 0.045644 0.539617 0.101278
C48   C     C_3   0.454144 0.960569 0.456705 0.105271
C49   C     C_1   0.962538 0.589656 0.412115 0.047018
C50   C     C_1   0.051340 0.413226 0.589747 0.087907
C51   C     C_1   0.037462 0.410344 0.912115 0.047018
C52   C     C_1   0.948660 0.586774 0.089747 0.087907
C53   C     C_1   0.462538 0.910343 0.087885 0.047018
C54   C     C_1   0.551340 0.086774 0.910253 0.087908
C55   C     C_1   0.537462 0.089656 0.587885 0.047018
C56   C     C_1   0.448660 0.913226 0.410253 0.087908
C57   C     C_2   0.798176 0.603681 0.546702 0.338125
H1    H     H_    0.673101 0.595042 0.571649 0.055563
O21   O     O_2   0.860350 0.657540 0.543061 -0.528328
C58   C     C_2   0.252529 0.405104 0.459840 0.331128
H2    H     H_    0.308564 0.409401 0.417525 0.084478
O22   O     O_2   0.288581 0.358127 0.487874 -0.527601
C59   C     C_2   0.201823 0.396319 0.046702 0.338125
H3    H     H_    0.326899 0.404958 0.071649 0.055563
O23   O     O_2   0.139650 0.342460 0.043061 -0.528328
C60   C     C_2   0.747471 0.594896 0.959840 0.331128
H4    H     H_    0.691436 0.590599 0.917525 0.084478
O24   O     O_2   0.711419 0.641873 0.987874 -0.527601
C61   C     C_2   0.298176 0.896319 0.953298 0.338125
H5    H     H_    0.173101 0.904958 0.928351 0.055563
O25   O     O_2   0.360350 0.842460 0.956939 -0.528328
C62   C     C_2   0.752529 0.094895 0.040160 0.331128
H6    H     H_    0.808564 0.090599 0.082475 0.084478
O26   O     O_2   0.788581 0.141873 0.012126 -0.527601
C63   C     C_2   0.701824 0.103681 0.453298 0.338125
H7    H     H_    0.826899 0.095042 0.428351 0.055563
O27   O     O_2   0.639650 0.157540 0.456939 -0.528328
C64   C     C_2   0.247471 0.905104 0.540160 0.331128
H8    H     H_    0.191436 0.909401 0.582475 0.084478
O28   O     O_2   0.211419 0.858127 0.512126 -0.527601
C65   C     C_2   0.184092 0.565887 0.594990 0.367138
H9    H     H_    0.234514 0.614139 0.589873 0.095354
O29   O     O_2   0.196499 0.539952 0.640774 -0.521891
C66   C     C_2   0.843727 0.439348 0.410590 0.370443
H10   H     H_    0.816713 0.388874 0.414482 0.077918
O30   O     O_2   0.797406 0.467224 0.367747 -0.511839
C67   C     C_2   0.815908 0.434113 0.094990 0.367138
H11   H     H_    0.765486 0.385861 0.089873 0.095354
O31   O     O_2   0.803501 0.460048 0.140774 -0.521891
C68   C     C_2   0.156273 0.560652 0.910590 0.370443
H12   H     H_    0.183287 0.611125 0.914481 0.077918
O32   O     O_2   0.202594 0.532776 0.867747 -0.511839
C69   C     C_2   0.684092 0.934113 0.905010 0.367138
H13   H     H_    0.734513 0.885861 0.910127 0.095354
O33   O     O_2   0.696499 0.960048 0.859226 -0.521891
C70   C     C_2   0.343727 0.060652 0.089410 0.370443
H14   H     H_    0.316713 0.111125 0.085518 0.077918
O34   O     O_2   0.297406 0.032776 0.132252 -0.511839
C71   C     C_2   0.315908 0.065887 0.405010 0.367138
H15   H     H_    0.265486 0.114139 0.410127 0.095354
O35   O     O_2   0.303501 0.039951 0.359226 -0.521891
C72   C     C_2   0.656273 0.939348 0.589410 0.370443
H16   H     H_    0.683287 0.888874 0.585518 0.077918
O36   O     O_2   0.702594 0.967224 0.632252 -0.511839
C73   C     C_3   0.672417 0.443773 0.535379 -0.368765
C74   C     C_3   0.612221 0.459568 0.595920 -0.319575
C75   C     C_3   0.525013 0.402141 0.624916 -0.619712
H17   H     H_    0.458637 0.416839 0.665200 0.232770
H18   H     H_    0.417923 0.379950 0.597334 0.245089
H19   H     H_    0.634887 0.366196 0.633841 0.215308
H20   H     H_    0.732826 0.476320 0.621801 0.212970
H21   H     H_    0.507776 0.498446 0.594758 0.205459
H22   H     H_    0.558682 0.456082 0.505730 0.174825
H23   H     H_    0.698965 0.392020 0.530590 0.208248
C76   C     C_3   0.368257 0.562186 0.469600 -0.388078
C77   C     C_3   0.339321 0.632376 0.452773 -0.324463
C78   C     C_3   0.509405 0.674383 0.463721 -0.666338
H24   H     H_    0.523173 0.683056 0.509574 0.251947
H25   H     H_    0.638665 0.652282 0.446471 0.239638
H26   H     H_    0.488765 0.721040 0.442800 0.211448
H27   H     H_    0.311147 0.634590 0.406889 0.207717
H28   H     H_    0.218464 0.653347 0.476083 0.231723
H29   H     H_    0.462903 0.559484 0.506307 0.164787
H30   H     H_    0.435795 0.536382 0.434139 0.192393
C79   C     C_3   0.327583 0.556227 0.035379 -0.368765
C80   C     C_3   0.387779 0.540432 0.095920 -0.319575
C81   C     C_3   0.474987 0.597859 0.124916 -0.619712
H31   H     H_    0.541363 0.583161 0.165200 0.232770
H32   H     H_    0.582076 0.620049 0.097334 0.245089
H33   H     H_    0.365113 0.633804 0.133841 0.215308
H34   H     H_    0.267174 0.523680 0.121801 0.212971
H35   H     H_    0.492223 0.501553 0.094758 0.205459
H36   H     H_    0.441318 0.543918 0.005730 0.174824
H37   H     H_    0.301035 0.607980 0.030590 0.208248
C82   C     C_3   0.631743 0.437814 0.969600 -0.388078
C83   C     C_3   0.660679 0.367624 0.952773 -0.324463
C84   C     C_3   0.490594 0.325617 0.963721 -0.666338
H38   H     H_    0.476827 0.316944 0.009574 0.251947
H39   H     H_    0.361335 0.347718 0.946471 0.239638
H40   H     H_    0.511235 0.278960 0.942800 0.211448
H41   H     H_    0.688853 0.365410 0.906889 0.207717
H42   H     H_    0.781535 0.346652 0.976083 0.231723
H43   H     H_    0.537097 0.440516 0.006307 0.164787
H44   H     H_    0.564204 0.463618 0.934139 0.192393
C85   C     C_3   0.172417 0.056227 0.964620 -0.368765
C86   C     C_3   0.112221 0.040432 0.904080 -0.319575
C87   C     C_3   0.025013 0.097859 0.875084 -0.619712
H45   H     H_    0.958637 0.083161 0.834800 0.232770
H46   H     H_    0.917923 0.120049 0.902666 0.245089
H47   H     H_    0.134887 0.133804 0.866159 0.215308
H48   H     H_    0.232826 0.023680 0.878199 0.212970
H49   H     H_    0.007777 0.001554 0.905242 0.205459
H50   H     H_    0.058682 0.043918 0.994270 0.174825
H51   H     H_    0.198965 0.107980 0.969410 0.208248
C88   C     C_3   0.868257 0.937814 0.030400 -0.388078
C89   C     C_3   0.839321 0.867624 0.047227 -0.324463
C90   C     C_3   0.009405 0.825617 0.036279 -0.666338
H52   H     H_    0.023172 0.816944 0.990426 0.251947
H53   H     H_    0.138665 0.847718 0.053528 0.239638
H54   H     H_    0.988765 0.778960 0.057200 0.211448
H55   H     H_    0.811147 0.865410 0.093110 0.207717
H56   H     H_    0.718464 0.846652 0.023917 0.231723
H57   H     H_    0.962903 0.940516 0.993693 0.164787
H58   H     H_    0.935795 0.963618 0.065861 0.192393
C91   C     C_3   0.827583 0.943773 0.464620 -0.368765
C92   C     C_3   0.887779 0.959568 0.404080 -0.319575
C93   C     C_3   0.974987 0.902141 0.375084 -0.619712
H59   H     H_    0.041363 0.916839 0.334800 0.232770
H60   H     H_    0.082076 0.879950 0.402666 0.245089
H61   H     H_    0.865113 0.866196 0.366159 0.215308
H62   H     H_    0.767174 0.976320 0.378199 0.212970
H63   H     H_    0.992223 0.998446 0.405242 0.205459
H64   H     H_    0.941318 0.956082 0.494270 0.174825
H65   H     H_    0.801035 0.892020 0.469410 0.208248
C94   C     C_3   0.131743 0.062186 0.530400 -0.388078
C95   C     C_3   0.160679 0.132376 0.547227 -0.324463
C96   C     C_3   0.990594 0.174383 0.536279 -0.666338
H66   H     H_    0.976827 0.183056 0.490426 0.251947
H67   H     H_    0.861335 0.152282 0.553528 0.239638
H68   H     H_    0.011235 0.221040 0.557200 0.211448
H69   H     H_    0.188853 0.134590 0.593110 0.207717
H70   H     H_    0.281535 0.153347 0.523917 0.231723
H71   H     H_    0.037097 0.059484 0.493693 0.164787
H72   H     H_    0.064204 0.036382 0.565861 0.192393

loop_
_geom_bond_atom_site_label_1
_geom_bond_atom_site_label_2
_ccdc_geom_bond_type
C91   H65   S    
O17   V3    S    
C87   H45   S    
O18   V4    S    
C92   C93   S    
C16   C47   S    
O12   V1    S    
C46   C54   S    
C64   H8    S    
C96   H66   S    
C45   C53   S    
C74   H20   S    
C10   C18   S    
C59   H3    S    
C75   H19   S    
C12   C68   S    
O18   V2    S    
C47   C55   S    
C84   H38   S    
C12   C43   S    
C15   C71   S    
C71   H15   S    
C86   H49   S    
C90   H52   S    
C89   C90   S    
O16   V3    S    
C87   H46   S    
C76   H29   S    
C61   H5    S    
O8    V1    S    
C11   C35   S    
C58   O22   D    
C17   C34   S    
C26   C50   T    
C20   C44   S    
C71   O35   D    
C79   C80   S    
C88   H57   S    
C86   C87   S    
C20   C35   S    
C91   H64   S    
C42   C50   S    
C95   H69   S    
C21   C38   S    
O1    V3    S    
C23   C63   S    
C82   H44   S    
C38   C46   S    
O3    C2    A    
O2    V4    S    
C85   C86   S    
C81   H33   S    
O11   C3    A    
C57   O21   D    
C35   C82   S    
C34   C42   S    
C73   H23   S    
C82   C83   S    
O11   V2    S    
C66   O30   D    
C95   C96   S    
C62   O26   D    
C9    C33   S    
C15   C48   S    
C83   H42   S    
C11   C19   S    
C79   H37   S    
C92   H63   S    
C14   C70   S    
C65   O29   D    
O15   C7    A    
C14   C45   S    
C17   C57   S    
C94   C95   S    
O16   C8    A    
O7    V2    S    
C80   H35   S    
C13   C46   S    
C96   H67   S    
C91   C92   S    
C24   C48   S    
C18   C33   S    
C85   H50   S    
C84   H39   S    
C70   O34   D    
C9    C42   S    
C40   C91   S    
O5    V1    S    
C86   H48   S    
C90   H53   S    
O17   V1    S    
C87   H47   S    
C76   H30   S    
C14   C22   S    
C22   C37   S    
C21   C45   S    
C93   H59   S    
O4    V3    S    
O20   V4    S    
C18   C58   S    
C58   H2    S    
C41   C49   S    
C77   H28   S    
C23   C40   S    
C7    C26   S    
C17   C41   S    
C88   H58   S    
C28   C52   T    
O19   V3    S    
C57   H1    S    
C24   C39   S    
C14   C38   S    
C78   H25   S    
C29   C53   T    
C93   H60   S    
C19   C43   S    
C82   H43   S    
C31   C55   T    
O10   V2    S    
C35   C43   S    
C60   O24   D    
C63   H7    S    
C32   C56   T    
C81   H31   S    
C16   C72   S    
C62   H6    S    
O12   C4    A    
C94   H71   S    
O8    C5    A    
O13   C5    A    
C67   O31   D    
C83   H41   S    
C77   C78   S    
C64   O28   D    
C1    C32   S    
C23   C47   S    
C89   H56   S    
C19   C36   S    
O4    C1    A    
C92   H62   S    
C3    C30   S    
O9    C1    A    
O6    V2    S    
C22   C62   S    
C39   C47   S    
C21   C61   S    
C37   C88   S    
C9    C17   S    
C80   H34   S    
C59   O23   D    
C10   C41   S    
C96   H68   S    
C25   C49   T    
C78   H26   S    
C43   C51   S    
C13   C21   S    
C75   H17   S    
C85   H51   S    
C84   H40   S    
C11   C67   S    
C70   H14   S    
C15   C23   S    
C73   C74   S    
C33   C41   S    
C90   H54   S    
C37   C45   S    
C8    C25   S    
C16   C24   S    
C38   C85   S    
O1    C4    A    
C72   O36   D    
C13   C37   S    
C67   H11   S    
C63   O27   D    
O2    C3    A    
O13   V3    S    
C74   H21   S    
C27   C51   T    
C4    C29   S    
C75   H18   S    
O15   V4    S    
C77   H27   S    
C68   O32   D    
C76   C77   S    
C68   H12   S    
O9    V1    S    
C44   C52   S    
O7    C6    A    
C15   C39   S    
C65   H9    S    
C16   C40   S    
C9    C65   S    
C24   C64   S    
C10   C66   S    
C83   C84   S    
O14   C6    A    
C69   O33   D    
C74   C75   S    
C93   H61   S    
C19   C59   S    
C48   C56   S    
C69   H13   S    
C60   H4    S    
O5    C8    A    
O19   V1    S    
C11   C44   S    
O10   C2    A    
C72   H16   S    
C2    C31   S    
O6    C7    A    
O20   V2    S    
C94   H72   S    
C18   C42   S    
C13   C69   S    
C39   C94   S    
C36   C79   S    
C81   H32   S    
O3    V4    S    
C95   H70   S    
C22   C46   S    
C33   C76   S    
C12   C20   S    
C89   H55   S    
C88   C89   S    
C66   H10   S    
C73   H22   S    
C36   C44   S    
C61   O25   D    
C10   C34   S    
C12   C36   S    
C80   C81   S    
C34   C73   S    
C79   H36   S    
C78   H24   S    
O14   V4    S    
C5    C28   S    
C40   C48   S    
C6    C27   S    
C30   C54   T    
C20   C60   S    
