data_mof_unit_62284.cif
_audit_creation_date              2012-12-10T19:32:15-0500
_audit_creation_method            fapswitch 2.2
_symmetry_space_group_name_H-M    P1
_symmetry_Int_Tables_number       1
_space_group_crystal_system       triclinic
_cell_length_a                    43.088686
_cell_length_b                    30.49073
_cell_length_c                    30.475817
_cell_angle_alpha                 90.022921
_cell_angle_beta                  90.010488
_cell_angle_gamma                 90.03126
_cell_volume                      40039.2858782

loop_
_atom_site_label
_atom_site_type_symbol
_atom_type_description
_atom_site_fract_x
_atom_site_fract_y
_atom_site_fract_z
_atom_type_partial_charge
C1    C     C_R   0.615625 0.529758 0.526239 0.467190
C2    C     C_R   0.934063 0.499996 0.500435 -0.403618
C3    C     C_R   0.246037 0.895688 0.836262 0.063356
C4    C     C_R   0.749455 0.618686 0.382476 -0.241088
C5    C     C_R   0.250517 0.381326 0.617138 -0.240525
C6    C     C_R   0.250140 0.381851 0.382378 -0.248239
C7    C     C_R   0.750231 0.618136 0.619070 -0.260771
C8    C     C_R   0.749915 0.381930 0.618217 -0.259536
C9    C     C_R   0.250157 0.618165 0.382074 -0.280700
C10   C     C_R   0.251181 0.619095 0.616790 -0.230366
C11   C     C_R   0.750212 0.382096 0.382015 -0.240309
C12   C     C_R   0.250581 0.117431 0.881051 -0.261505
C13   C     C_R   0.565873 0.999988 0.000461 -0.403467
C14   C     C_R   0.749813 0.881819 0.119039 -0.260834
C15   C     C_R   0.750567 0.881283 0.882519 -0.241200
C16   C     C_R   0.249755 0.118430 0.118081 -0.253509
C17   C     C_R   0.250222 0.882217 0.118289 -0.257527
C18   C     C_R   0.749808 0.117936 0.882043 -0.240600
C19   C     C_R   0.750118 0.118089 0.118187 -0.259611
C20   C     C_R   0.250718 0.882517 0.880421 -0.259384
C21   C     C_R   0.721491 0.738121 0.271907 0.608499
C22   C     C_R   0.267865 0.287123 0.753999 0.619503
C23   C     C_R   0.274912 0.279679 0.253675 0.609672
C24   C     C_R   0.434021 0.000055 0.000308 -0.404222
C25   C     C_R   0.722626 0.731413 0.736301 0.618736
C26   C     C_R   0.730305 0.286768 0.754258 0.610482
C27   C     C_R   0.269502 0.713883 0.246436 0.614860
C28   C     C_R   0.280465 0.734541 0.731701 0.608830
C29   C     C_R   0.733450 0.288858 0.244188 0.618564
C30   C     C_R   0.234328 0.209338 0.741662 0.610812
C31   C     C_R   0.777459 0.768272 0.236020 0.618508
C32   C     C_R   0.778606 0.761921 0.771905 0.608295
C33   C     C_R   0.226538 0.218367 0.249446 0.619806
C34   C     C_R   0.230348 0.786802 0.254089 0.611703
C35   C     C_R   0.131482 0.499964 0.500078 -0.500843
C36   C     C_R   0.766609 0.211206 0.744257 0.618411
C37   C     C_R   0.769866 0.213394 0.254092 0.610341
C38   C     C_R   0.225140 0.776765 0.755208 0.617749
C39   C     C_R   0.583252 0.530095 0.525761 0.615781
C40   C     C_R   0.416653 0.532896 0.477962 0.618639
C41   C     C_R   0.416513 0.466417 0.521933 0.616874
C42   C     C_R   0.583332 0.469131 0.474391 0.614774
C43   C     C_R   0.083390 0.031499 0.024668 0.614646
C44   C     C_R   0.916605 0.032535 0.976769 0.616005
C45   C     C_R   0.916640 0.967964 0.023490 0.616996
C46   C     C_R   0.868499 0.500018 0.500215 -0.499578
C47   C     C_R   0.083286 0.968836 0.975377 0.614318
C48   C     C_R   0.233744 0.241791 0.709098 0.049737
C49   C     C_R   0.777988 0.735972 0.268705 0.034161
C50   C     C_R   0.779147 0.729561 0.739245 0.040995
C51   C     C_R   0.226699 0.249805 0.282972 0.048204
C52   C     C_R   0.229544 0.754059 0.286299 0.056160
C53   C     C_R   0.766450 0.243014 0.711065 0.048795
C54   C     C_R   0.770514 0.245898 0.286616 0.051055
C55   C     C_R   0.224770 0.744735 0.722211 0.041510
C56   C     C_R   0.720958 0.770478 0.239261 0.040504
C57   C     C_R   0.631459 0.999979 0.000219 -0.499870
C58   C     C_R   0.267585 0.255327 0.787182 0.047731
C59   C     C_R   0.275353 0.247215 0.221117 0.050406
C60   C     C_R   0.722090 0.763714 0.768999 0.034043
C61   C     C_R   0.729651 0.254268 0.786771 0.050751
C62   C     C_R   0.269093 0.745443 0.213075 0.053230
C63   C     C_R   0.280883 0.766846 0.764472 0.044956
C64   C     C_R   0.733608 0.257043 0.210987 0.048804
C65   C     C_R   0.250860 0.280784 0.715195 -0.045915
C66   C     C_R   0.749810 0.720918 0.286621 -0.025407
C67   C     C_R   0.750956 0.714383 0.721423 -0.025757
C68   C     C_R   0.368469 0.000025 0.000091 -0.496211
C69   C     C_R   0.250817 0.281070 0.284650 -0.051232
C70   C     C_R   0.249666 0.717703 0.282807 -0.052232
C71   C     C_R   0.748505 0.281334 0.716431 -0.048466
C72   C     C_R   0.751832 0.283593 0.281867 -0.046520
C73   C     C_R   0.252579 0.723284 0.710761 -0.035583
C74   C     C_R   0.749142 0.785485 0.221295 -0.025504
C75   C     C_R   0.250933 0.215994 0.780756 -0.047921
C76   C     C_R   0.250756 0.216745 0.218664 -0.048142
C77   C     C_R   0.750273 0.778946 0.786764 -0.025385
C78   C     C_R   0.748274 0.216514 0.781975 -0.046370
C79   C     C_R   0.968440 0.499964 0.500456 0.421554
C80   C     C_R   0.249786 0.782574 0.217345 -0.055894
C81   C     C_R   0.252962 0.787717 0.776488 -0.033180
C82   C     C_R   0.751607 0.218774 0.216314 -0.048424
C83   C     C_R   0.467308 0.499492 0.499974 -0.255295
C84   C     C_R   0.532569 0.499464 0.500040 -0.253966
C85   C     C_R   0.967350 0.000320 0.000116 -0.254511
C86   C     C_R   0.032612 0.000260 0.000063 -0.253700
C87   C     C_R   0.516136 0.502079 0.460276 0.575364
C88   C     C_R   0.483741 0.497500 0.539774 0.575580
C89   C     C_R   0.483771 0.501432 0.460206 0.572013
C90   C     C_R   0.031531 0.499925 0.500363 0.422529
C91   C     C_R   0.516105 0.496826 0.539767 0.571730
C92   C     C_R   0.016143 0.001422 0.960260 0.572365
C93   C     C_R   0.983820 0.999866 0.039933 0.572305
C94   C     C_R   0.983780 0.000762 0.960272 0.575058
C95   C     C_R   0.016183 0.999146 0.039893 0.573146
C96   C     C_R   0.566836 0.499553 0.500077 -0.229303
C97   C     C_R   0.433042 0.499595 0.499946 -0.229064
C98   C     C_R   0.066879 0.000198 0.000034 -0.229996
C99   C     C_R   0.933082 0.000283 0.000137 -0.229823
C100  C     C_R   0.250070 0.584076 0.416029 0.853702
C101  C     C_R   0.468400 0.000049 0.000396 0.421751
C102  C     C_R   0.750097 0.416049 0.584179 0.893458
C103  C     C_R   0.749931 0.415945 0.416084 0.890448
C104  C     C_R   0.250063 0.584036 0.583960 0.881834
C105  C     C_R   0.250126 0.415878 0.583832 0.892285
C106  C     C_R   0.750024 0.584002 0.415896 0.878696
C107  C     C_R   0.749874 0.584346 0.584114 0.879008
C108  C     C_R   0.250011 0.416010 0.416049 0.893128
C109  C     C_R   0.750069 0.084059 0.916085 0.890827
C110  C     C_R   0.250074 0.916036 0.084093 0.901337
C111  C     C_R   0.249923 0.915754 0.915828 0.884201
C112  C     C_R   0.384280 0.532602 0.477431 0.463530
C113  C     C_R   0.531493 0.000015 0.000488 0.422743
C114  C     C_R   0.749906 0.083947 0.084177 0.893935
C115  C     C_R   0.750133 0.915644 0.084114 0.879770
C116  C     C_R   0.250140 0.083938 0.915764 0.896320
C117  C     C_R   0.249833 0.084256 0.083945 0.887927
C118  C     C_R   0.749975 0.915999 0.915904 0.878440
C119  C     C_R   0.631965 0.499839 0.500019 -0.503301
C120  C     C_R   0.367950 0.499863 0.499992 -0.497618
C121  C     C_R   0.131995 0.000070 0.999999 -0.507243
C122  C     C_R   0.867978 0.000108 0.000047 -0.500877
C123  C     C_R   0.334074 0.499987 0.500000 1.030889
C124  C     C_R   0.752486 0.608294 0.337374 0.016719
C125  C     C_R   0.665896 0.499976 0.500001 1.024992
C126  C     C_R   0.834084 0.000020 0.000009 1.031292
C127  C     C_R   0.165906 0.000003 0.999997 1.031777
C128  C     C_R   0.165763 0.499988 0.500007 0.960990
C129  C     C_R   0.834230 0.500008 0.500048 0.962793
C130  C     C_R   0.665756 0.999991 0.000048 0.961121
C131  C     C_R   0.334219 0.000010 0.000008 0.963652
C132  C     C_R   0.114946 0.537607 0.512954 0.503296
C133  C     C_R   0.885007 0.462582 0.513720 0.495863
C134  C     C_R   0.114901 0.462297 0.487299 0.500839
C135  C     C_R   0.261552 0.338964 0.606559 0.028728
C136  C     C_R   0.885089 0.537467 0.486904 0.499817
C137  C     C_R   0.614933 0.037746 0.012789 0.496378
C138  C     C_R   0.384974 0.963174 0.015085 0.492434
C139  C     C_R   0.614850 0.962193 0.987854 0.500089
C140  C     C_R   0.385029 0.036893 0.985206 0.492809
C141  C     C_R   0.082566 0.537582 0.513129 0.538525
C142  C     C_R   0.917391 0.462571 0.513892 0.541239
C143  C     C_R   0.082516 0.462277 0.487333 0.541146
C144  C     C_R   0.917470 0.537452 0.486930 0.538072
C145  C     C_R   0.582543 0.037751 0.012953 0.540810
C146  C     C_R   0.225238 0.378300 0.352433 0.021563
C147  C     C_R   0.417360 0.963188 0.015260 0.541102
C148  C     C_R   0.582463 0.962201 0.987910 0.537755
C149  C     C_R   0.417418 0.036909 0.985249 0.541401
C150  C     C_3   0.185766 0.256099 0.670952 -0.653370
C151  C     C_3   0.820002 0.739260 0.320748 -0.612606
C152  C     C_3   0.818095 0.673183 0.745072 -0.646800
C153  C     C_3   0.210676 0.229269 0.355943 -0.643389
C154  C     C_3   0.180408 0.732178 0.317280 -0.657078
C155  C     C_3   0.766961 0.220229 0.635285 -0.651285
C156  C     C_3   0.818972 0.263985 0.321898 -0.655299
C157  C     C_R   0.757604 0.662595 0.609465 0.020249
C158  C     C_3   0.191444 0.755013 0.659539 -0.629023
C159  C     C_3   0.682183 0.827068 0.245362 -0.646157
C160  C     C_3   0.264841 0.278783 0.862655 -0.647694
C161  C     C_3   0.323920 0.213168 0.201500 -0.660463
C162  C     C_3   0.680202 0.760160 0.821201 -0.612246
C163  C     C_3   0.681199 0.236317 0.822099 -0.654451
C164  C     C_3   0.271862 0.722280 0.137501 -0.649745
C165  C     C_3   0.324384 0.816422 0.768680 -0.654953
C166  C     C_3   0.732958 0.279768 0.135209 -0.650708
C167  C     C_3   0.728748 0.545101 0.303398 -0.529246
C168  C     C_R   0.777667 0.369799 0.639936 0.011701
C169  C     C_3   0.252766 0.304059 0.536453 -0.607525
C170  C     C_3   0.201631 0.444431 0.325170 -0.639948
C171  C     C_3   0.794558 0.685116 0.553973 -0.538270
C172  C     C_3   0.812210 0.430664 0.653243 -0.633344
C173  C     C_3   0.234275 0.696512 0.458895 -0.579999
C174  C     C_3   0.241786 0.545295 0.700320 -0.576708
C175  C     C_3   0.753229 0.302739 0.460747 -0.604763
C176  C     C_3   0.314958 0.070231 0.854066 -0.617944
C177  C     C_3   0.705245 0.815028 0.054018 -0.536778
C178  C     C_3   0.771122 0.954817 0.803373 -0.530597
C179  C     C_R   0.255144 0.662584 0.393708 0.046408
C180  C     C_3   0.276813 0.193830 0.043880 -0.574106
C181  C     C_3   0.313469 0.931466 0.147155 -0.622839
C182  C     C_3   0.746808 0.197268 0.960857 -0.603953
C183  C     C_3   0.687994 0.069207 0.153665 -0.636213
C184  C     C_3   0.290421 0.812027 0.947644 -0.557207
C185  C     C_3   0.709107 0.669034 0.455081 -0.640188
C186  C     C_3   0.195657 0.439584 0.657895 -0.718522
C187  C     C_3   0.326603 0.379502 0.395718 -0.580531
C188  C     C_3   0.764195 0.535467 0.682351 -0.699074
C189  C     C_3   0.673768 0.401920 0.631852 -0.540357
C190  C     C_R   0.238311 0.612676 0.658953 0.026550
C191  C     C_3   0.265060 0.541043 0.303229 -0.550269
C192  C     C_3   0.309760 0.649365 0.558970 -0.631012
C193  C     C_3   0.801700 0.445670 0.340724 -0.709618
C194  C     C_3   0.175543 0.093542 0.861141 -0.537763
C195  C     C_3   0.736136 0.964460 0.182553 -0.698860
C196  C     C_3   0.790990 0.831172 0.955190 -0.636992
C197  C     C_3   0.280377 0.041978 0.177752 -0.709479
C198  C     C_3   0.174060 0.901856 0.132902 -0.540303
C199  C     C_3   0.698325 0.054407 0.840605 -0.709763
C200  C     C_3   0.826344 0.098410 0.131381 -0.542360
C201  C     C_R   0.741301 0.338625 0.392111 0.029448
C202  C     C_3   0.269545 0.965721 0.820659 -0.703953
C203  C     C_R   0.278900 0.130457 0.861307 0.006246
C204  C     C_R   0.384143 0.466974 0.522505 0.465098
C205  C     C_R   0.742353 0.837381 0.109410 0.020229
C206  C     C_R   0.747496 0.891611 0.837418 0.016787
C207  C     C_R   0.249839 0.163476 0.106544 0.026651
C208  C     C_R   0.278207 0.870239 0.139468 0.006688
C209  C     C_R   0.758739 0.161398 0.892193 0.029340
C210  C     C_R   0.722402 0.130129 0.140034 0.012513
C211  C     C_R   0.256364 0.837597 0.889884 0.024978
C212  C     C_R   0.752946 0.642180 0.306384 0.616740
C213  C     C_R   0.262000 0.306437 0.638998 0.624689
C214  C     C_R   0.225962 0.345769 0.320109 0.623019
C215  C     C_R   0.615702 0.469745 0.473862 0.470976
C216  C     C_R   0.758070 0.693594 0.643377 0.615776
C217  C     C_R   0.776831 0.337565 0.672529 0.623703
C218  C     C_R   0.255957 0.694608 0.360856 0.617986
C219  C     C_R   0.238746 0.647191 0.689282 0.613994
C220  C     C_R   0.741448 0.306820 0.358962 0.622004
C221  C     C_R   0.278662 0.161880 0.827924 0.623456
C222  C     C_R   0.741910 0.806359 0.143285 0.615973
C223  C     C_R   0.747061 0.857684 0.806457 0.616558
C224  C     C_R   0.249697 0.195310 0.139686 0.617919
C225  C     C_R   0.277626 0.838785 0.172754 0.624467
C226  C     C_R   0.115759 0.030957 0.025187 0.466145
C227  C     C_R   0.758624 0.193221 0.859076 0.622140
C228  C     C_R   0.723267 0.162409 0.172597 0.623640
C229  C     C_R   0.257259 0.807038 0.855553 0.614674
C230  C     C_R   0.749606 0.685848 0.319610 -0.112662
C231  C     C_R   0.250959 0.315393 0.681356 -0.138076
C232  C     C_R   0.250709 0.315974 0.318143 -0.141459
C233  C     C_R   0.750825 0.681376 0.686341 -0.114437
C234  C     C_R   0.748947 0.316270 0.682936 -0.140689
C235  C     C_R   0.250185 0.683435 0.316999 -0.159061
C236  C     C_R   0.252443 0.687396 0.678458 -0.122593
C237  C     C_R   0.884235 0.031990 0.976173 0.468537
C238  C     C_R   0.751096 0.317557 0.316353 -0.136942
C239  C     C_R   0.250789 0.181531 0.814734 -0.139365
C240  C     C_R   0.749272 0.818518 0.186241 -0.114015
C241  C     C_R   0.750462 0.814048 0.819720 -0.112520
C242  C     C_R   0.250092 0.183011 0.183974 -0.132935
C243  C     C_R   0.249884 0.817343 0.183684 -0.144050
C244  C     C_R   0.748982 0.182522 0.816436 -0.136992
C245  C     C_R   0.751140 0.183817 0.182842 -0.140746
C246  C     C_R   0.252390 0.820288 0.812159 -0.122577
C247  C     C_R   0.745668 0.696130 0.363983 0.548933
C248  C     C_R   0.884269 0.968341 0.024002 0.466047
C249  C     C_R   0.239702 0.357314 0.691546 0.581157
C250  C     C_R   0.275172 0.319136 0.348351 0.587850
C251  C     C_R   0.743025 0.638002 0.695990 0.548566
C252  C     C_R   0.721509 0.327986 0.661204 0.584551
C253  C     C_R   0.244534 0.639613 0.305662 0.627495
C254  C     C_R   0.265846 0.693444 0.637051 0.567739
C255  C     C_R   0.760293 0.360572 0.306587 0.581279
C256  C     C_R   0.222782 0.168906 0.834406 0.583228
C257  C     C_R   0.757175 0.861862 0.195908 0.548185
C258  C     C_R   0.754443 0.803832 0.864090 0.548969
C259  C     C_R   0.115657 0.969251 0.974823 0.465402
C260  C     C_R   0.249957 0.138538 0.195381 0.575958
C261  C     C_R   0.222294 0.828466 0.161973 0.590511
C262  C     C_R   0.739764 0.139515 0.806620 0.581214
C263  C     C_R   0.778542 0.172189 0.160983 0.584457
C264  C     C_R   0.246529 0.864342 0.802645 0.561018
C265  C     C_R   0.745644 0.662818 0.395647 0.051880
C266  C     C_R   0.239410 0.390392 0.659669 0.052123
C267  C     C_R   0.275262 0.352386 0.380092 0.011439
C268  C     C_R   0.743213 0.606066 0.662961 0.067524
C269  C     C_R   0.721691 0.361302 0.629540 0.009992
C270  C     C_R   0.065908 0.499921 0.500283 -0.404023
C271  C     C_R   0.245223 0.606706 0.337590 0.036492
C272  C     C_R   0.265264 0.659503 0.605975 0.034413
C273  C     C_R   0.759948 0.392984 0.339189 0.048823
C274  C     C_R   0.222406 0.136322 0.866814 0.011577
C275  C     C_R   0.756959 0.893826 0.162921 0.067219
C276  C     C_R   0.754441 0.837185 0.895727 0.051484
C277  C     C_R   0.249651 0.106154 0.162815 0.054498
C278  C     C_R   0.222131 0.861625 0.130200 0.010473
C279  C     C_R   0.740085 0.107083 0.839187 0.048712
C280  C     C_R   0.778335 0.138841 0.129338 0.010022
F1    F     F_    0.631051 0.559553 0.551203 -0.568139
F2    F     F_    0.284544 0.324547 0.759716 -0.605036
F3    F     F_    0.298043 0.309975 0.255197 -0.615534
F4    F     F_    0.695542 0.716715 0.718771 -0.612050
F5    F     F_    0.713130 0.323785 0.759485 -0.616857
F6    F     F_    0.289170 0.679178 0.243270 -0.610205
F7    F     F_    0.307190 0.713697 0.720505 -0.617592
F8    F     F_    0.715345 0.325079 0.239737 -0.605067
F9    F     F_    0.218468 0.171301 0.735378 -0.617301
F10   F     F_    0.804539 0.782802 0.218363 -0.612078
F11   F     F_    0.805692 0.777009 0.789095 -0.624043
F12   F     F_    0.368828 0.564991 0.456044 -0.576918
F13   F     F_    0.202747 0.189178 0.246895 -0.601567
F14   F     F_    0.211978 0.822771 0.258460 -0.613801
F15   F     F_    0.784666 0.174941 0.739752 -0.605186
F16   F     F_    0.787095 0.176422 0.259262 -0.617279
F17   F     F_    0.198296 0.797027 0.766910 -0.607700
F18   F     F_    0.567943 0.560852 0.549631 -0.527445
F19   F     F_    0.431988 0.566190 0.457814 -0.528200
F20   F     F_    0.431707 0.433003 0.542064 -0.528035
F21   F     F_    0.568103 0.438248 0.450542 -0.527792
F22   F     F_    0.068180 0.063152 0.047468 -0.527946
F23   F     F_    0.368555 0.434700 0.543896 -0.573158
F24   F     F_    0.931848 0.065072 0.955289 -0.527750
F25   F     F_    0.931917 0.935501 0.045005 -0.527870
F26   F     F_    0.067972 0.937242 0.952593 -0.527828
F27   F     F_    0.130030 0.574376 0.526341 -0.567166
F28   F     F_    0.869886 0.426095 0.527753 -0.576566
F29   F     F_    0.129943 0.425559 0.473801 -0.568830
F30   F     F_    0.870054 0.574005 0.472878 -0.571214
F31   F     F_    0.630031 0.074612 0.025879 -0.575419
F32   F     F_    0.369831 0.927319 0.030624 -0.582983
F33   F     F_    0.629861 0.925285 0.974761 -0.570940
F34   F     F_    0.631207 0.440062 0.448900 -0.567683
F35   F     F_    0.369940 0.072732 0.969572 -0.582336
F36   F     F_    0.067663 0.574344 0.526836 -0.557058
F37   F     F_    0.932283 0.426034 0.528185 -0.555500
F38   F     F_    0.067556 0.425501 0.473721 -0.554740
F39   F     F_    0.932438 0.573995 0.472757 -0.558148
F40   F     F_    0.567634 0.074633 0.026317 -0.555766
F41   F     F_    0.432272 0.927288 0.031052 -0.557043
F42   F     F_    0.567475 0.925309 0.974676 -0.558340
F43   F     F_    0.432393 0.072820 0.969557 -0.556358
F44   F     F_    0.531434 0.505870 0.421506 -0.522397
F45   F     F_    0.131292 0.061443 0.049162 -0.568488
F46   F     F_    0.468445 0.496814 0.578725 -0.521961
F47   F     F_    0.468502 0.502150 0.421227 -0.524811
F48   F     F_    0.531373 0.493043 0.578568 -0.525802
F49   F     F_    0.031402 0.003764 0.921345 -0.525307
F50   F     F_    0.968563 0.000684 0.078912 -0.526080
F51   F     F_    0.968483 0.999958 0.921315 -0.522339
F52   F     F_    0.031478 0.996769 0.078784 -0.525788
F53   F     F_    0.756979 0.632594 0.263206 -0.611859
F54   F     F_    0.274059 0.266356 0.629562 -0.606842
F55   F     F_    0.202392 0.343146 0.290583 -0.604792
F56   F     F_    0.868716 0.063371 0.953422 -0.570418
F57   F     F_    0.764401 0.736276 0.634139 -0.611213
F58   F     F_    0.803367 0.327041 0.694205 -0.598768
F59   F     F_    0.263036 0.736690 0.371682 -0.609119
F60   F     F_    0.225472 0.641717 0.729363 -0.611646
F61   F     F_    0.731302 0.265593 0.368006 -0.608988
F62   F     F_    0.305794 0.173281 0.808253 -0.597764
F63   F     F_    0.735479 0.763707 0.134012 -0.610947
F64   F     F_    0.742984 0.867190 0.763275 -0.612122
F65   F     F_    0.248100 0.238442 0.128682 -0.612450
F66   F     F_    0.304323 0.828978 0.194376 -0.598591
F67   F     F_    0.868785 0.936895 0.046736 -0.570877
F68   F     F_    0.768797 0.234429 0.868184 -0.608633
F69   F     F_    0.696772 0.172868 0.194401 -0.599070
F70   F     F_    0.261637 0.763859 0.864701 -0.612483
F71   F     F_    0.741631 0.738574 0.376353 -0.630869
F72   F     F_    0.228026 0.365594 0.732143 -0.619911
F73   F     F_    0.298784 0.289625 0.347227 -0.618288
F74   F     F_    0.736240 0.626482 0.737994 -0.629759
F75   F     F_    0.694595 0.306631 0.670419 -0.619459
F76   F     F_    0.237310 0.628942 0.263567 -0.604807
F77   F     F_    0.279266 0.732478 0.626871 -0.623951
F78   F     F_    0.131090 0.938707 0.950831 -0.568130
F79   F     F_    0.770638 0.370620 0.265675 -0.618173
F80   F     F_    0.195823 0.188737 0.822505 -0.620095
F81   F     F_    0.764082 0.873335 0.237898 -0.630089
F82   F     F_    0.758548 0.761416 0.876482 -0.630916
F83   F     F_    0.251194 0.126585 0.238314 -0.618453
F84   F     F_    0.195567 0.806670 0.171259 -0.617426
F85   F     F_    0.729421 0.129490 0.765688 -0.618226
F86   F     F_    0.805439 0.193658 0.170061 -0.619541
F87   F     F_    0.242312 0.877050 0.760315 -0.624537
F88   F     F_    0.694406 0.723215 0.289232 -0.623688
H1    H     H_    0.214652 0.202968 0.660219 0.297733
H2    H     H_    0.839899 0.661473 0.729605 0.237271
H3    H     H_    0.298987 0.044612 0.866715 0.177330
H4    H     H_    0.750095 0.837972 0.041716 0.240093
H5    H     H_    0.692031 0.846267 0.055409 0.237382
H6    H     H_    0.694435 0.790882 0.076611 0.266860
H7    H     H_    0.703927 0.801750 0.020133 0.226492
H8    H     H_    0.732495 0.956328 0.844266 0.221807
H9    H     H_    0.765551 0.987819 0.790298 0.221459
H10   H     H_    0.779717 0.934367 0.775774 0.275047
H11   H     H_    0.789687 0.958106 0.828465 0.236239
H12   H     H_    0.236221 0.156768 0.041074 0.232073
H13   H     H_    0.800356 0.647007 0.741651 0.251557
H14   H     H_    0.294504 0.167352 0.043008 0.237102
H15   H     H_    0.285750 0.221670 0.063715 0.270275
H16   H     H_    0.272788 0.205659 0.009896 0.222976
H17   H     H_    0.312495 0.887659 0.094888 0.281537
H18   H     H_    0.337838 0.941076 0.140240 0.257941
H19   H     H_    0.310234 0.930199 0.183312 0.259247
H20   H     H_    0.297846 0.956558 0.132762 0.180322
H21   H     H_    0.779881 0.148481 0.952395 0.227687
H22   H     H_    0.726112 0.176533 0.967443 0.233341
H23   H     H_    0.739501 0.227615 0.943566 0.274193
H24   H     H_    0.822515 0.679451 0.780460 0.275041
H25   H     H_    0.757412 0.206794 0.992681 0.225451
H26   H     H_    0.688033 0.107939 0.097591 0.279159
H27   H     H_    0.663962 0.057757 0.147185 0.252153
H28   H     H_    0.690723 0.074159 0.189592 0.268399
H29   H     H_    0.704448 0.043636 0.142247 0.181277
H30   H     H_    0.246157 0.838315 0.956947 0.238282
H31   H     H_    0.304809 0.842269 0.947655 0.236903
H32   H     H_    0.301151 0.787354 0.925548 0.268736
H33   H     H_    0.289996 0.798320 0.981390 0.225253
H34   H     H_    0.750383 0.703362 0.449768 0.279991
H35   H     H_    0.181320 0.239624 0.303194 0.305746
H36   H     H_    0.707449 0.676899 0.490559 0.230673
H37   H     H_    0.700869 0.634858 0.450180 0.224327
H38   H     H_    0.693855 0.691932 0.436644 0.277928
H39   H     H_    0.231823 0.441774 0.702431 0.283915
H40   H     H_    0.188845 0.473867 0.665470 0.237319
H41   H     H_    0.180270 0.416929 0.676427 0.270726
H42   H     H_    0.192434 0.434164 0.622157 0.237894
H43   H     H_    0.306183 0.325001 0.423825 0.272555
H44   H     H_    0.343658 0.382870 0.422832 0.235641
H45   H     H_    0.319672 0.412871 0.384948 0.250245
H46   H     H_    0.191190 0.232833 0.379508 0.246869
H47   H     H_    0.337867 0.362098 0.367910 0.275609
H48   H     H_    0.720414 0.558047 0.698675 0.294864
H49   H     H_    0.757255 0.500914 0.688396 0.240028
H50   H     H_    0.776781 0.547958 0.711647 0.255095
H51   H     H_    0.779920 0.536213 0.653480 0.211525
H52   H     H_    0.681760 0.345603 0.595870 0.268518
H53   H     H_    0.654014 0.412136 0.610814 0.230133
H54   H     H_    0.686666 0.431781 0.642061 0.249167
H55   H     H_    0.664472 0.385212 0.661472 0.271039
H56   H     H_    0.228401 0.543326 0.347678 0.206478
H57   H     H_    0.231552 0.244892 0.370530 0.234005
H58   H     H_    0.284556 0.536799 0.326705 0.239259
H59   H     H_    0.273168 0.560351 0.274535 0.287541
H60   H     H_    0.257686 0.508274 0.291277 0.213003
H61   H     H_    0.276790 0.698026 0.552564 0.277809
H62   H     H_    0.317639 0.654007 0.524592 0.242624
H63   H     H_    0.310591 0.613785 0.566538 0.235237
H64   H     H_    0.325845 0.667223 0.581216 0.278276
H65   H     H_    0.764948 0.445768 0.297217 0.286479
H66   H     H_    0.807095 0.480473 0.333202 0.238205
H67   H     H_    0.817696 0.424357 0.321646 0.268807
H68   H     H_    0.215222 0.193777 0.350656 0.268212
H69   H     H_    0.805568 0.440305 0.376336 0.231783
H70   H     H_    0.180824 0.150700 0.896818 0.269447
H71   H     H_    0.155184 0.082707 0.880667 0.231739
H72   H     H_    0.189483 0.064155 0.852466 0.247664
H73   H     H_    0.167127 0.109412 0.830554 0.269741
H74   H     H_    0.779934 0.941743 0.198594 0.294458
H75   H     H_    0.743139 0.998990 0.188606 0.240008
H76   H     H_    0.723628 0.951982 0.211905 0.255089
H77   H     H_    0.720317 0.963770 0.153774 0.211638
H78   H     H_    0.749767 0.796707 0.949877 0.279985
H79   H     H_    0.203999 0.789544 0.331763 0.299845
H80   H     H_    0.792652 0.823394 0.990681 0.231038
H81   H     H_    0.799181 0.865360 0.950246 0.224899
H82   H     H_    0.806277 0.808276 0.936798 0.277676
H83   H     H_    0.236754 0.054651 0.202948 0.294641
H84   H     H_    0.278342 0.007078 0.187636 0.236229
H85   H     H_    0.294678 0.059425 0.202611 0.265362
H86   H     H_    0.292070 0.043568 0.145307 0.216806
H87   H     H_    0.182061 0.845444 0.097078 0.270617
H88   H     H_    0.154104 0.911748 0.112090 0.230468
H89   H     H_    0.186885 0.931906 0.142733 0.250209
H90   H     H_    0.166153 0.735194 0.347477 0.242856
H91   H     H_    0.165063 0.885239 0.162757 0.271123
H92   H     H_    0.735088 0.054327 0.797136 0.286359
H93   H     H_    0.692929 0.019609 0.833029 0.237914
H94   H     H_    0.682336 0.075735 0.821540 0.268881
H95   H     H_    0.694449 0.059751 0.876220 0.231935
H96   H     H_    0.818132 0.154665 0.095443 0.269230
H97   H     H_    0.846055 0.088257 0.110233 0.230041
H98   H     H_    0.813537 0.068506 0.141660 0.248747
H99   H     H_    0.835696 0.115178 0.160950 0.270873
H100  H     H_    0.226219 0.945473 0.799465 0.294253
H101  H     H_    0.185950 0.696961 0.312335 0.237288
H102  H     H_    0.263687 0.000651 0.814551 0.238310
H103  H     H_    0.283353 0.953182 0.792525 0.257815
H104  H     H_    0.283695 0.963843 0.851071 0.211767
H105  H     H_    0.174136 0.251156 0.638814 0.242343
H106  H     H_    0.166684 0.744355 0.288907 0.272617
H107  H     H_    0.804663 0.219136 0.677358 0.304665
H108  H     H_    0.782356 0.218201 0.606144 0.242910
H109  H     H_    0.747444 0.242611 0.627303 0.235271
H110  H     H_    0.757695 0.186980 0.642519 0.270350
H111  H     H_    0.792718 0.208401 0.333870 0.298221
H112  H     H_    0.831794 0.259781 0.353218 0.243008
H113  H     H_    0.814975 0.299589 0.316776 0.237571
H114  H     H_    0.833398 0.250913 0.294640 0.272690
H115  H     H_    0.177162 0.735515 0.721328 0.301874
H116  H     H_    0.188088 0.291921 0.676650 0.236799
H117  H     H_    0.169627 0.742774 0.644486 0.247654
H118  H     H_    0.210828 0.747953 0.636619 0.243477
H119  H     H_    0.189494 0.791043 0.664378 0.269369
H120  H     H_    0.674667 0.764065 0.222621 0.295139
H121  H     H_    0.660372 0.838913 0.230017 0.237457
H122  H     H_    0.699986 0.853147 0.241901 0.251534
H123  H     H_    0.677838 0.820795 0.280760 0.275056
H124  H     H_    0.303953 0.281315 0.823335 0.304213
H125  H     H_    0.279103 0.281768 0.892857 0.242197
H126  H     H_    0.245563 0.255576 0.869427 0.235562
H127  H     H_    0.171078 0.241521 0.697148 0.273404
H128  H     H_    0.255121 0.311524 0.854421 0.271463
H129  H     H_    0.309946 0.275472 0.183225 0.298921
H130  H     H_    0.341709 0.212408 0.175157 0.242952
H131  H     H_    0.313555 0.179927 0.204165 0.234968
H132  H     H_    0.335391 0.221846 0.233003 0.273006
H133  H     H_    0.677263 0.785237 0.758343 0.297129
H134  H     H_    0.658697 0.777454 0.831340 0.244581
H135  H     H_    0.696731 0.760954 0.849113 0.254814
H136  H     H_    0.674346 0.725539 0.813284 0.272437
H137  H     H_    0.707540 0.291831 0.834077 0.298409
H138  H     H_    0.822738 0.714231 0.257833 0.297356
H139  H     H_    0.668411 0.240560 0.853438 0.243237
H140  H     H_    0.685143 0.200702 0.816947 0.237384
H141  H     H_    0.666767 0.249426 0.794868 0.272747
H142  H     H_    0.308680 0.723605 0.181122 0.305694
H143  H     H_    0.287912 0.720979 0.109033 0.244445
H144  H     H_    0.251900 0.743494 0.128563 0.234585
H145  H     H_    0.263399 0.688569 0.144561 0.269105
H146  H     H_    0.324354 0.751748 0.789173 0.297354
H147  H     H_    0.345384 0.823719 0.788504 0.240200
H148  H     H_    0.308723 0.845267 0.770384 0.243154
H149  H     H_    0.841487 0.721847 0.330769 0.244867
H150  H     H_    0.331485 0.810876 0.734057 0.273605
H151  H     H_    0.695317 0.280802 0.177373 0.304664
H152  H     H_    0.717518 0.281738 0.106105 0.242978
H153  H     H_    0.752490 0.257427 0.127179 0.235381
H154  H     H_    0.742195 0.313045 0.142423 0.270403
H155  H     H_    0.767411 0.543550 0.344242 0.222058
H156  H     H_    0.734262 0.512062 0.290345 0.221540
H157  H     H_    0.720158 0.565530 0.275792 0.275021
H158  H     H_    0.710199 0.541906 0.328514 0.236630
H159  H     H_    0.283638 0.355091 0.547856 0.229508
H160  H     H_    0.803534 0.738518 0.348725 0.254431
H161  H     H_    0.231493 0.323359 0.529281 0.232329
H162  H     H_    0.246198 0.272750 0.552600 0.274552
H163  H     H_    0.264519 0.296219 0.504985 0.226113
H164  H     H_    0.192359 0.415804 0.385399 0.252254
H165  H     H_    0.179984 0.464082 0.327010 0.243539
H166  H     H_    0.204877 0.433453 0.290708 0.285385
H167  H     H_    0.221474 0.465384 0.335134 0.191662
H168  H     H_    0.749738 0.661976 0.541798 0.239843
H169  H     H_    0.807838 0.653930 0.555285 0.236981
H170  H     H_    0.805362 0.709300 0.576555 0.266839
H171  H     H_    0.825928 0.773859 0.312873 0.272163
H172  H     H_    0.795783 0.698408 0.520098 0.226359
H173  H     H_    0.812002 0.391673 0.597311 0.280080
H174  H     H_    0.836256 0.441985 0.646663 0.253103
H175  H     H_    0.809523 0.425886 0.689194 0.267665
H176  H     H_    0.795794 0.456256 0.641771 0.180711
H177  H     H_    0.271176 0.652532 0.457637 0.231988
H178  H     H_    0.214727 0.672954 0.462100 0.237867
H179  H     H_    0.226503 0.725425 0.439654 0.268630
H180  H     H_    0.240992 0.707995 0.492095 0.221969
H181  H     H_    0.214020 0.554936 0.645469 0.214192
H182  H     H_    0.825377 0.736245 0.722395 0.294906
H183  H     H_    0.226886 0.518644 0.713262 0.226510
H184  H     H_    0.250429 0.564551 0.728755 0.281034
H185  H     H_    0.261787 0.530713 0.682524 0.232121
H186  H     H_    0.720136 0.351500 0.452306 0.226717
H187  H     H_    0.773914 0.323489 0.467380 0.233319
H188  H     H_    0.760554 0.272405 0.443429 0.274253
H189  H     H_    0.742620 0.293192 0.492548 0.225278
H190  H     H_    0.312528 0.113173 0.907050 0.283415
H191  H     H_    0.339123 0.060712 0.862361 0.258328
H192  H     H_    0.312899 0.072312 0.817774 0.260234
N1    N     N_R   0.015397 0.461687 0.500708 -0.061796
N2    N     N_2   0.806752 0.717843 0.282766 -0.273837
N3    N     N_2   0.807993 0.713003 0.723640 -0.276629
N4    N     N_2   0.202540 0.250077 0.314881 -0.242402
N5    N     N_2   0.208487 0.757734 0.322155 -0.252217
N6    N     N_2   0.784442 0.236533 0.672392 -0.244892
N7    N     N_2   0.789823 0.240550 0.324186 -0.257271
N8    N     N_2   0.196349 0.733410 0.701203 -0.259658
N9    N     N_2   0.692118 0.787210 0.223817 -0.276599
N10   N     N_2   0.284000 0.262982 0.827038 -0.246172
N11   N     N_2   0.300461 0.245338 0.190767 -0.255243
N12   N     N_R   0.984576 0.538198 0.500152 -0.063057
N13   N     N_2   0.693313 0.781684 0.783208 -0.274384
N14   N     N_2   0.710383 0.259673 0.824367 -0.257090
N15   N     N_2   0.288073 0.739760 0.175219 -0.241191
N16   N     N_2   0.309230 0.777753 0.785903 -0.267037
N17   N     N_2   0.715552 0.263450 0.172357 -0.245197
N18   N     N_2   0.756306 0.564265 0.322632 -0.263444
N19   N     N_2   0.273553 0.329075 0.564098 -0.238548
N20   N     N_2   0.199287 0.407145 0.354216 -0.238839
N21   N     N_2   0.762464 0.677628 0.565740 -0.256037
N22   N     N_2   0.806648 0.389982 0.630194 -0.228831
N23   N     N_R   0.015447 0.538179 0.500076 -0.062697
N24   N     N_2   0.260541 0.675582 0.438001 -0.246863
N25   N     N_2   0.223769 0.572449 0.670928 -0.257658
N26   N     N_2   0.730815 0.326770 0.434864 -0.240547
N27   N     N_2   0.307935 0.112129 0.873907 -0.226657
N28   N     N_2   0.737377 0.822380 0.065686 -0.256222
N29   N     N_2   0.743607 0.935610 0.822655 -0.263333
N30   N     N_2   0.248008 0.177482 0.061993 -0.246875
N31   N     N_2   0.307298 0.889073 0.127844 -0.227198
N32   N     N_2   0.769218 0.173227 0.934970 -0.240060
N33   N     N_2   0.693438 0.109806 0.130451 -0.229294
N34   N     N_R   0.984523 0.461706 0.500722 -0.061699
N35   N     N_2   0.259079 0.821859 0.933741 -0.249729
N36   N     N_2   0.740931 0.673636 0.440635 -0.287211
N37   N     N_2   0.227691 0.432710 0.670360 -0.287271
N38   N     N_2   0.299947 0.355045 0.411016 -0.306264
N39   N     N_2   0.736808 0.561650 0.674275 -0.238526
N40   N     N_2   0.693710 0.372556 0.607443 -0.297623
N41   N     N_2   0.239222 0.562624 0.324529 -0.266286
N42   N     N_2   0.278554 0.666192 0.563695 -0.306843
N43   N     N_2   0.769828 0.436394 0.328984 -0.285326
N44   N     N_2   0.193799 0.124130 0.886709 -0.293499
N45   N     N_R   0.515359 0.961798 0.001778 -0.063463
N46   N     N_2   0.763463 0.938211 0.174276 -0.238983
N47   N     N_2   0.759175 0.826446 0.940725 -0.287890
N48   N     N_2   0.249756 0.061163 0.175281 -0.250337
N49   N     N_2   0.193971 0.872545 0.108386 -0.296605
N50   N     N_2   0.730201 0.063683 0.828910 -0.285356
N51   N     N_2   0.806270 0.127676 0.107085 -0.296507
N52   N     N_2   0.241255 0.940610 0.825353 -0.241680
N53   N     N_R   0.484534 0.038270 0.999141 -0.062588
N54   N     N_R   0.515411 0.038253 0.999161 -0.062494
N55   N     N_R   0.484484 0.961813 0.001709 -0.063449
N56   N     N_2   0.215896 0.235220 0.670296 -0.256527
O1    O     O_3   0.250020 0.500000 0.500000 -0.525362
O2    O     O_R   0.768160 0.587470 0.448900 -0.607924
O3    O     O_R   0.768160 0.587470 0.551100 -0.661408
O4    O     O_R   0.231840 0.412530 0.448900 -0.640210
O5    O     O_R   0.731840 0.087470 0.948900 -0.653487
O6    O     O_R   0.268160 0.912530 0.051100 -0.654830
O7    O     O_R   0.268160 0.912530 0.948900 -0.662402
O8    O     O_R   0.731840 0.087470 0.051100 -0.652686
O9    O     O_R   0.731840 0.912530 0.051100 -0.661094
O10   O     O_R   0.268160 0.087470 0.948900 -0.655483
O11   O     O_R   0.268160 0.087470 0.051100 -0.659852
O12   O     O_3   0.749980 0.500000 0.500000 -0.526190
O13   O     O_R   0.731840 0.912530 0.948900 -0.608228
O14   O     O_R   0.268210 0.448870 0.412550 -0.646877
O15   O     O_R   0.731790 0.551130 0.587450 -0.592696
O16   O     O_R   0.731790 0.551130 0.412550 -0.653035
O17   O     O_R   0.268210 0.448870 0.587450 -0.605949
O18   O     O_R   0.268210 0.551130 0.587450 -0.646394
O19   O     O_R   0.731790 0.448870 0.412550 -0.605383
O20   O     O_R   0.731790 0.448870 0.587450 -0.631140
O21   O     O_R   0.268210 0.551130 0.412550 -0.628592
O22   O     O_R   0.768210 0.948870 0.912550 -0.653061
O23   O     O_3   0.750020 0.000000 0.000000 -0.525856
O24   O     O_R   0.231790 0.051130 0.087450 -0.595641
O25   O     O_R   0.231790 0.051130 0.912550 -0.629347
O26   O     O_R   0.768210 0.948870 0.087450 -0.593487
O27   O     O_R   0.768210 0.051130 0.087450 -0.631420
O28   O     O_R   0.231790 0.948870 0.912550 -0.592387
O29   O     O_R   0.231790 0.948870 0.087450 -0.629244
O30   O     O_R   0.768210 0.051130 0.912550 -0.606161
O31   O     O_R   0.319350 0.500000 0.463670 -0.613819
O32   O     O_R   0.680650 0.500000 0.536330 -0.608030
O33   O     O_R   0.680650 0.500000 0.463670 -0.603506
O34   O     O_3   0.249980 0.000000 0.000000 -0.523165
O35   O     O_R   0.319350 0.500000 0.536330 -0.608285
O36   O     O_R   0.819350 0.000000 0.963670 -0.606346
O37   O     O_R   0.180650 0.000000 0.036330 -0.608481
O38   O     O_R   0.180650 0.000000 0.963670 -0.607513
O39   O     O_R   0.819350 0.000000 0.036330 -0.611066
O40   O     O_R   0.180700 0.536340 0.500000 -0.587498
O41   O     O_R   0.819300 0.463660 0.500000 -0.593770
O42   O     O_R   0.180700 0.463660 0.500000 -0.592774
O43   O     O_R   0.819300 0.536340 0.500000 -0.590853
O44   O     O_R   0.680700 0.036340 0.000000 -0.593165
O45   O     O_R   0.231840 0.587470 0.448900 -0.642622
O46   O     O_R   0.319300 0.963660 0.000000 -0.596278
O47   O     O_R   0.680700 0.963660 0.000000 -0.590252
O48   O     O_R   0.319300 0.036340 0.000000 -0.595078
O49   O     O_R   0.768160 0.412530 0.551100 -0.652811
O50   O     O_R   0.768160 0.412530 0.448900 -0.653949
O51   O     O_R   0.231840 0.587470 0.551100 -0.617170
O52   O     O_R   0.231840 0.412530 0.551100 -0.653006
Zn1   Zn    Zn3+2 0.224060 0.448080 0.500000 0.997981
Zn2   Zn    Zn3+2 0.724010 0.500000 0.551900 1.016934
Zn3   Zn    Zn3+2 0.724010 0.500000 0.448100 1.017806
Zn4   Zn    Zn3+2 0.275990 0.500000 0.551900 1.021941
Zn5   Zn    Zn3+2 0.775990 0.000000 0.948100 1.017229
Zn6   Zn    Zn3+2 0.224010 0.000000 0.051900 1.024930
Zn7   Zn    Zn3+2 0.224010 0.000000 0.948100 1.022134
Zn8   Zn    Zn3+2 0.775990 0.000000 0.051900 1.016450
Zn9   Zn    Zn3+2 0.775940 0.551920 0.500000 1.000567
Zn10  Zn    Zn3+2 0.224060 0.551920 0.500000 1.008283
Zn11  Zn    Zn3+2 0.775940 0.448080 0.500000 0.989316
Zn12  Zn    Zn3+2 0.724060 0.948080 0.000000 1.000978
Zn13  Zn    Zn3+2 0.275940 0.051920 0.000000 0.982293
Zn14  Zn    Zn3+2 0.724060 0.051920 0.000000 0.990198
Zn15  Zn    Zn3+2 0.275940 0.948080 0.000000 0.981392
Zn16  Zn    Zn3+2 0.275990 0.500000 0.448100 0.994303

loop_
_geom_bond_atom_site_label_1
_geom_bond_atom_site_label_2
_ccdc_geom_bond_type
O10   Zn13  S    
H79   N5    S    
C192  H64   S    
C143  C270  A    
C68   C138  A    
C25   C67   A    
C184  H32   S    
C45   F25   S    
O29   Zn6   S    
C46   C129  S    
C166  H154  S    
C31   F10   S    
C171  N21   S    
O42   Zn1   S    
C5    C105  S    
C170  N20   S    
C126  O36   A    
C196  H81   S    
C47   C98   A    
C181  H19   S    
H4    N28   S    
C188  N39   S    
C250  C267  A    
C6    C146  A    
C199  N50   S    
C122  C237  A    
C271  N41   S    
C171  H172  S    
C123  O35   A    
O25   Zn7   S    
H39   N37   S    
C71   C234  S    
C148  F42   S    
C11   C273  A    
C194  N44   S    
C36   C53   A    
C8    C168  A    
C268  N39   S    
C134  C143  A    
C167  H156  S    
C159  H123  S    
C212  F53   S    
C28   F7    S    
O1    Zn1   S    
C38   C55   A    
O23   Zn12  S    
C189  H55   S    
O17   Zn4   S    
O20   Zn2   S    
C58   C75   A    
O34   Zn7   S    
C277  N48   S    
C48   C65   A    
C17   C278  A    
H155  N18   S    
C274  N44   S    
O6    Zn15  S    
C191  N41   S    
C163  H139  S    
C19   C280  A    
C177  N28   S    
C214  C232  A    
C190  C219  A    
C26   C71   A    
C256  C274  A    
C90   C270  S    
C170  H166  S    
C28   C73   A    
C35   C134  A    
C43   F22   S    
C150  H105  S    
C215  F34   S    
C174  N25   S    
C161  H130  S    
C257  C275  A    
C161  H131  S    
C130  O44   A    
C186  N37   S    
C108  O14   A    
C195  H76   S    
C114  O8    A    
C45   C99   A    
C69   C232  S    
O38   Zn7   S    
C112  C120  A    
C153  H68   S    
C4    C265  A    
C115  O9    A    
C250  F73   S    
C123  O31   A    
C173  N24   S    
N1    N34   A    
C68   C131  S    
H34   N36   S    
C173  H178  S    
C266  N37   S    
C272  N42   S    
C200  H98   S    
H151  N17   S    
C20   C111  S    
O46   Zn15  S    
C167  H158  S    
O14   Zn16  S    
C158  H118  S    
O24   Zn6   S    
C90   N1    A    
C141  C270  A    
C187  H45   S    
C222  F63   S    
C146  C214  A    
C178  H9    S    
H133  N13   S    
H30   N35   S    
C184  N35   S    
C7    C157  A    
C29   F8    S    
C87   C89   A    
C38   C81   A    
C218  F59   S    
C151  H160  S    
C68   C140  A    
C225  C243  A    
C132  F27   S    
C88   F46   S    
C53   C71   A    
O39   Zn8   S    
C52   N5    S    
C222  C240  A    
O41   Zn11  S    
O26   Zn8   S    
C180  H14   S    
C101  N53   A    
C94   F51   S    
C106  O16   A    
C210  C228  A    
C44   C99   A    
H164  N20   S    
C17   C208  A    
C186  H40   S    
C155  H110  S    
C200  N51   S    
C22   C58   A    
C175  H187  S    
C194  H71   S    
C147  F41   S    
H182  N3    S    
C192  N42   S    
C202  H103  S    
C171  H170  S    
C201  N26   S    
C15   C118  S    
C160  N10   S    
C125  O33   A    
C206  N29   S    
C164  H145  S    
C27   F6    S    
C1    F1    S    
C93   F50   S    
C159  H121  S    
C223  C241  A    
C262  C279  A    
C154  H90   S    
C39   F18   S    
C70   C235  S    
C74   C240  S    
C61   N14   S    
O28   Zn7   S    
C15   C206  A    
C86   C95   A    
C1    C39   A    
C18   C279  A    
C182  H22   S    
C28   C63   A    
C169  H161  S    
C256  F80   S    
C172  H175  S    
C203  N27   S    
C225  F66   S    
C110  O29   A    
C51   C69   A    
C35   C132  A    
C224  F65   S    
C156  H113  S    
C195  N46   S    
C55   N8    S    
C187  H47   S    
C172  N22   S    
C260  C277  A    
O1    Zn16  S    
C21   C66   A    
C19   C210  A    
C2    C144  A    
C114  O27   A    
C198  N49   S    
C13   C145  A    
C103  O19   A    
C152  N3    S    
C199  H95   S    
C161  N11   S    
C208  C225  A    
C23   C59   A    
C133  C142  A    
C275  N46   S    
C221  C239  A    
C77   C241  S    
C62   C80   A    
O52   Zn1   S    
C173  H180  S    
C253  C271  A    
C218  C235  A    
C182  N32   S    
C127  O37   A    
C136  C144  A    
C41   F20   S    
C252  C269  A    
C12   C203  A    
O13   Zn12  S    
C263  C280  A    
H129  N11   S    
C126  O39   A    
C252  F75   S    
C56   N9    S    
C4    C124  A    
C24   C101  S    
C156  H114  S    
O21   Zn16  S    
C151  N2    S    
C202  N52   S    
C42   C215  A    
C193  H67   S    
C226  F45   S    
C34   F14   S    
C158  N8    S    
C3    N52   S    
C197  H84   S    
C33   F13   S    
C273  N43   S    
O16   Zn3   S    
O12   Zn11  S    
C152  H2    S    
C50   C67   A    
C206  C223  A    
C9    C179  A    
C174  H185  S    
C188  H49   S    
C180  H16   S    
C185  N36   S    
O37   Zn6   S    
C101  N55   A    
H87   N49   S    
C131  O48   A    
C35   C128  S    
C102  O20   A    
C45   C248  A    
C107  O15   A    
H146  N16   S    
C162  H136  S    
C83   C89   A    
C260  F83   S    
O8    Zn14  S    
C139  C148  A    
C241  C258  A    
C151  H149  S    
C265  N36   S    
C51   N4    S    
C182  H25   S    
C57   C130  S    
C208  N31   S    
C26   F5    S    
C22   F2    S    
C153  H57   S    
C227  C244  A    
C193  N43   S    
C196  H80   S    
C31   C74   A    
O4    Zn1   S    
H12   N30   S    
O36   Zn5   S    
C140  F35   S    
C4    C106  S    
C177  H5    S    
C175  N26   S    
C49   C66   A    
C237  F56   S    
C195  H77   S    
C22   C65   A    
C62   N15   S    
C85   C99   S    
C27   C62   A    
C169  H163  S    
C88   C91   A    
C37   C82   A    
H159  N19   S    
C159  N9    S    
C50   N3    S    
C57   C137  A    
C220  F61   S    
C41   C204  A    
C128  O40   A    
C191  H60   S    
C160  H126  S    
C259  F78   S    
H124  N10   S    
C25   C60   A    
C9    C100  S    
C167  N18   S    
C120  C204  A    
C7    C107  S    
C244  C262  A    
C37   C54   A    
C231  C249  A    
C199  H93   S    
C246  C264  A    
O5    Zn14  S    
C125  O32   A    
C185  H36   S    
C132  C141  A    
H138  N2    S    
H181  N25   S    
C161  H132  S    
C90   N23   A    
C221  F62   S    
C240  C257  A    
C81   C246  S    
C204  F23   S    
C111  O7    A    
O45   Zn10  S    
C24   C147  A    
C166  N17   S    
C23   F3    S    
C100  O45   A    
C154  H106  S    
C118  O22   A    
C80   C243  S    
C238  C255  A    
C64   N17   S    
C210  N33   S    
C155  N6    S    
C113  N54   A    
C278  N49   S    
C193  H69   S    
C168  N22   S    
C228  F69   S    
C84   C91   A    
C89   F47   S    
C249  F72   S    
C213  F54   S    
C83   C88   A    
C41   C97   A    
H96   N51   S    
C9    C271  A    
H83   N48   S    
C117  O24   A    
C156  N7    S    
C29   C64   A    
C174  H183  S    
C247  C265  A    
C32   F11   S    
C188  H51   S    
C189  H54   S    
C107  O3    A    
C138  C147  A    
C102  O49   A    
C131  O46   A    
C243  C261  A    
C236  C254  A    
C140  C149  A    
C230  C247  A    
C12   C116  S    
C42   F21   S    
C245  C263  A    
C229  F70   S    
C162  H134  S    
C190  N25   S    
N53   N54   A    
C216  C233  A    
C151  H171  S    
C183  N33   S    
C164  N15   S    
C172  H174  S    
C75   C239  S    
C16   C207  A    
C220  C238  A    
C255  F79   S    
H74   N46   S    
C155  H108  S    
C53   N6    S    
O23   Zn14  S    
C59   N11   S    
H120  N9    S    
C176  N27   S    
C177  H7    S    
C209  N32   S    
C42   C96   A    
C137  C145  A    
C276  N47   S    
C195  H75   S    
C121  C127  S    
C239  C256  A    
C194  H73   S    
C164  H143  S    
C104  O18   A    
C14   C115  S    
C48   N56   S    
C205  C222  A    
C153  H46   S    
C57   C139  A    
C5    C135  A    
C1    C119  A    
C261  C278  A    
C191  H58   S    
C2    C79   S    
C160  H128  S    
C30   F9    S    
C32   C77   A    
C139  F33   S    
C116  O25   A    
C167  H157  S    
C47   C259  A    
C158  H119  S    
C108  O4    A    
C181  H18   S    
C189  N40   S    
C168  C217  A    
C253  F76   S    
C200  H97   S    
C178  H10   S    
C43   C226  A    
C176  H191  S    
C185  H38   S    
C109  O30   A    
C5    C266  A    
C181  H20   S    
C10   C272  A    
O49   Zn11  S    
C192  H63   S    
H48   N39   S    
C113  N45   A    
C242  C260  A    
C31   C49   A    
C18   C209  A    
C117  O11   A    
C269  N40   S    
C166  H153  S    
C87   F44   S    
H186  N26   S    
C56   C74   A    
C65   C231  S    
H92   N50   S    
C100  O21   A    
O2    Zn9   S    
C279  N50   S    
C235  C253  A    
O12   Zn3   S    
C40   C112  A    
C264  F87   S    
C12   C274  A    
C40   C97   A    
O33   Zn3   S    
C198  H88   S    
C124  C212  A    
N12   N23   A    
C202  H104  S    
C171  H169  S    
C258  C276  A    
H35   N4    S    
C78   C244  S    
C121  C226  A    
C44   F24   S    
O48   Zn13  S    
C120  C123  S    
C76   C242  S    
C154  N5    S    
C133  F28   S    
C16   C277  A    
C144  F39   S    
C186  H41   S    
C138  F32   S    
C103  O50   A    
C254  F77   S    
H115  N8    S    
C187  N38   S    
C105  O17   A    
C3    C20   A    
O34   Zn6   S    
C251  F74   S    
C227  F68   S    
H43   N38   S    
C175  H189  S    
C121  C259  A    
C182  H23   S    
C119  C125  S    
C163  H140  S    
C63   C81   A    
O35   Zn4   S    
C216  F57   S    
C86   C98   S    
C172  H176  S    
C262  F85   S    
C72   C238  S    
O50   Zn11  S    
H107  N6    S    
C58   N10   S    
C267  N38   S    
C205  N28   S    
H137  N14   S    
C233  C251  A    
H173  N22   S    
C30   C48   A    
C54   N7    S    
C157  C216  A    
C194  H72   S    
C211  C229  A    
O34   Zn15  S    
C40   F19   S    
C201  C220  A    
C217  C234  A    
C21   C56   A    
H70   N44   S    
C183  H29   S    
C33   C51   A    
O22   Zn5   S    
C34   C52   A    
C19   C114  S    
C263  F86   S    
O23   Zn5   S    
C173  H179  S    
C118  O13   A    
C169  N19   S    
C16   C117  S    
C95   F52   S    
C46   C133  A    
C30   C75   A    
C128  O42   A    
O19   Zn3   S    
O27   Zn8   S    
C224  C242  A    
C154  H101  S    
C158  H117  S    
C254  C272  A    
C32   C50   A    
C104  O51   A    
C15   C276  A    
H17   N31   S    
C197  H85   S    
C200  H99   S    
C193  H66   S    
C134  F29   S    
C63   N16   S    
O1    Zn4   S    
C111  O28   A    
C105  O52   A    
H61   N42   S    
C49   N2    S    
C83   C97   S    
C14   C205  A    
O40   Zn10  S    
C6    C267  A    
C36   C78   A    
C209  C227  A    
C251  C268  A    
C127  O38   A    
C165  H147  S    
C257  F81   S    
C115  O26   A    
C188  H50   S    
O3    Zn9   S    
C119  C215  A    
O23   Zn8   S    
C23   C69   A    
H26   N33   S    
C84   C87   A    
O11   Zn13  S    
C17   C110  S    
N45   N55   A    
C247  F71   S    
C175  H188  S    
C135  C213  A    
C202  H102  S    
C170  H167  S    
C10   C190  A    
C152  H13   S    
C255  C273  A    
C143  F38   S    
C157  N21   S    
O15   Zn2   S    
C84   C96   S    
C159  H122  S    
C6    C108  S    
C155  H109  S    
C196  N47   S    
C79   N12   A    
O51   Zn10  S    
C124  N18   S    
O47   Zn12  S    
C21   F88   S    
O1    Zn10  S    
C203  C221  A    
O7    Zn15  S    
C11   C201  A    
C20   C211  A    
C198  H89   S    
H111  N7    S    
H177  N24   S    
C34   C80   A    
C14   C275  A    
C162  N13   S    
C183  H28   S    
C92   F49   S    
C219  F60   S    
C73   C236  S    
C214  F55   S    
O44   Zn14  S    
C207  N30   S    
O43   Zn9   S    
C129  O41   A    
C156  H112  S    
C29   C72   A    
O32   Zn2   S    
C207  C224  A    
C141  F36   S    
H52   N40   S    
O34   Zn13  S    
H142  N15   S    
C85   C93   A    
C248  F67   S    
C91   F48   S    
C92   C94   A    
H190  N27   S    
H168  N21   S    
C36   F15   S    
C145  F40   S    
C197  H86   S    
C60   C77   A    
C153  N4    S    
C179  N24   S    
C169  H162  S    
C192  H62   S    
C178  N29   S    
C165  N16   S    
C150  H116  S    
C152  H24   S    
C150  H127  S    
C24   C149  A    
C44   C237  A    
C234  C252  A    
C165  H150  S    
C228  C245  A    
C106  O2    A    
H78   N47   S    
C146  N20   S    
C258  F82   S    
C149  F43   S    
C60   N13   S    
C55   C73   A    
C249  C266  A    
C122  C126  S    
C187  H44   S    
C110  O6    A    
O12   Zn2   S    
C8    C269  A    
C137  F31   S    
C109  O5    A    
H56   N41   S    
C280  N51   S    
C212  C230  A    
C85   C94   A    
C33   C76   A    
C61   C78   A    
H100  N52   S    
C150  N56   S    
C25   F4    S    
C26   C61   A    
C2    C142  A    
C64   C82   A    
C27   C70   A    
C174  H184  S    
C38   F17   S    
C229  C246  A    
C180  H15   S    
H65   N43   S    
C18   C109  S    
C37   F16   S    
C189  H53   S    
C179  C218  A    
C112  F12   S    
C43   C98   A    
C232  C250  A    
C130  O47   A    
C122  C248  A    
C136  F30   S    
C162  H135  S    
C163  H141  S    
C170  H165  S    
C67   C233  S    
C196  H82   S    
C82   C245  S    
C142  F37   S    
C191  H59   S    
C219  C236  A    
C213  C231  A    
C165  H148  S    
C217  F58   S    
C180  N30   S    
C166  H152  S    
C163  N14   S    
C66   C230  S    
C177  H6    S    
C13   C148  A    
O30   Zn5   S    
C197  N48   S    
C10   C104  S    
C86   C92   A    
H21   N32   S    
C223  F64   S    
O9    Zn12  S    
C164  H144  S    
C8    C102  S    
C176  H3    S    
H8    N29   S    
C59   C76   A    
C181  N31   S    
C183  H27   S    
C47   F26   S    
C116  O10   A    
C198  H91   S    
C7    C268  A    
O12   Zn9   S    
C211  N35   S    
C39   C96   A    
C129  O43   A    
C52   C70   A    
C160  H125  S    
C46   C136  A    
O31   Zn16  S    
C54   C72   A    
H1    N56   S    
C93   C95   A    
C184  H33   S    
C3    C264  A    
O18   Zn4   S    
C11   C103  S    
C186  H42   S    
C79   N34   A    
C184  H31   S    
C135  N19   S    
C199  H94   S    
C13   C113  S    
C178  H11   S    
C176  H192  S    
C261  F84   S    
C185  H37   S    
