data_mof_unit_67849.cif
_audit_creation_date              2012-12-10T16:55:45-0500
_audit_creation_method            fapswitch 2.2
_symmetry_space_group_name_H-M    P1
_symmetry_Int_Tables_number       1
_space_group_crystal_system       triclinic
_cell_length_a                    7.947576
_cell_length_b                    8.738602
_cell_length_c                    10.56174
_cell_angle_alpha                 92.210998
_cell_angle_beta                  86.396976
_cell_angle_gamma                 93.777412
_cell_volume                      730.043050146

loop_
_atom_site_label
_atom_site_type_symbol
_atom_type_description
_atom_site_fract_x
_atom_site_fract_y
_atom_site_fract_z
_atom_type_partial_charge
C1    C     C_R   0.544317 0.793759 0.501876 0.910434
C2    C     C_R   0.454862 0.205965 0.503642 0.911183
C3    C     C_R   0.503011 0.503956 0.741885 0.863892
C4    C     C_R   0.495502 0.483107 0.258511 0.867383
C5    C     C_3   0.402440 0.592044 0.972873 0.617908
C6    C     C_3   0.597692 0.374564 0.025753 0.601039
C7    C     C_3   0.556917 0.617853 0.052350 -0.329688
C8    C     C_3   0.443621 0.349872 0.944292 -0.335038
C9    C     C_3   0.494119 0.471495 0.121789 -0.102022
C10   C     C_3   0.505700 0.497112 0.876980 -0.104345
C11   C     C_3   0.339233 0.446117 0.041741 -0.297267
C12   C     C_3   0.662334 0.519558 0.955680 -0.281069
C13   C     C_2   0.562308 0.957176 0.517902 -0.365110
C14   C     C_2   0.432091 0.041859 0.498243 -0.366155
H1    H     H_    0.597749 0.724122 0.104704 0.147487
H2    H     H_    0.391290 0.250130 0.888750 0.145502
H3    H     H_    0.211230 0.400922 0.072938 0.142984
H4    H     H_    0.792059 0.547765 0.914782 0.179724
H5    H     H_    0.681971 0.007865 0.546201 0.157523
H6    H     H_    0.311037 0.990864 0.470710 0.158043
N1    N     N_2   0.950320 0.457950 0.465730 0.151364
N2    N     N_2   0.049680 0.542050 0.534270 0.185477
O1    O     O_R   0.389250 0.738570 0.508410 -0.640324
O2    O     O_R   0.610750 0.261430 0.491590 -0.630540
O3    O     O_R   0.678390 0.711620 0.486450 -0.626712
O4    O     O_R   0.321610 0.288380 0.513550 -0.594621
O5    O     O_R   0.355460 0.513510 0.697030 -0.595896
O6    O     O_R   0.644540 0.486490 0.302970 -0.658341
O7    O     O_R   0.644600 0.486560 0.675070 -0.590244
O8    O     O_R   0.355400 0.513440 0.324930 -0.592507
Zn1   Zn    Zn3+2 0.306940 0.517990 0.514670 1.023026
Zn2   Zn    Zn3+2 0.693060 0.482010 0.485330 0.988763
O9    O     O_3   0.301325 0.707637 0.938020 -0.678475
C15   C     C_3   0.224150 0.778170 0.047218 0.051625
H7    H     H_    0.170872 0.884157 0.016681 0.175512
H8    H     H_    0.316989 0.817258 0.118202 0.121800
C16   C     C_3   0.082713 0.671419 0.107777 -0.376927
H9    H     H_    0.028147 0.591011 0.035041 0.242116
H10   H     H_    0.133242 0.606668 0.183443 0.248908
C17   C     C_3   0.944247 0.759369 0.170712 -0.996119
H11   H     H_    0.000399 0.839237 0.242364 0.276402
H12   H     H_    0.850022 0.680228 0.219606 0.307434
H13   H     H_    0.883222 0.819470 0.097187 0.268471
O10   O     O_3   0.698912 0.259197 0.061035 -0.688319
C18   C     C_3   0.742039 0.163134 0.954829 0.030464
H14   H     H_    0.872214 0.128579 0.965364 0.162036
H15   H     H_    0.745818 0.221776 0.862491 0.151662
C19   C     C_3   0.622218 0.017947 0.952678 -0.348225
H16   H     H_    0.625403 0.959259 0.042819 0.215006
H17   H     H_    0.489866 0.045352 0.945589 0.219688
C20   C     C_3   0.669850 0.909309 0.842338 -0.922241
H18   H     H_    0.699933 0.974352 0.755418 0.243732
H19   H     H_    0.563193 0.825825 0.823250 0.285527
H20   H     H_    0.779628 0.846035 0.864896 0.265741
O11   O     O_3   0.049789 0.383670 0.378056 -0.573757
C21   C     C_3   0.958449 0.288755 0.295444 0.177437
H21   H     H_    0.041553 0.268538 0.209173 0.107691
H22   H     H_    0.852697 0.342236 0.260518 0.219723
C22   C     C_3   0.914769 0.133832 0.351522 -0.356370
H23   H     H_    0.029267 0.067085 0.345325 0.179144
H24   H     H_    0.877671 0.148017 0.453323 0.241610
C23   C     C_3   0.775965 0.051938 0.277058 -0.918859
H25   H     H_    0.659649 0.115745 0.282966 0.298876
H26   H     H_    0.745134 0.934993 0.310612 0.266759
H27   H     H_    0.822498 0.044388 0.176944 0.274767
O12   O     O_3   0.968874 0.620810 0.628845 -0.551225
C24   C     C_3   0.017062 0.778300 0.616837 0.152213
H28   H     H_    0.899886 0.840055 0.617414 0.150437
H29   H     H_    0.088746 0.806911 0.525925 0.118315
C25   C     C_3   0.114295 0.837681 0.730769 -0.298601
H30   H     H_    0.053323 0.785663 0.817525 0.250883
H31   H     H_    0.245933 0.802795 0.719224 0.275304
C26   C     C_3   0.116472 0.012029 0.748209 -1.021515
H32   H     H_    0.189700 0.049734 0.830983 0.262192
H33   H     H_    0.986946 0.050074 0.764516 0.260188
H34   H     H_    0.173744 0.069003 0.663258 0.287114

loop_
_geom_bond_atom_site_label_1
_geom_bond_atom_site_label_2
_ccdc_geom_bond_type
O11   C21   S    
C15   C16   S    
C26   H32   S    
C6    C9    S    
C18   H14   S    
C16   H9    S    
C5    C11   S    
C16   C17   S    
C6    C12   S    
O8    Zn1   S    
C21   H21   S    
C15   H7    S    
C3    O7    A    
N2    O12   S    
C23   H26   S    
C17   H13   S    
C11   H3    S    
C5    O9    S    
C25   H30   S    
O3    Zn2   S    
C19   H17   S    
O12   C24   S    
C22   H23   S    
C8    H2    S    
C6    O10   S    
C13   C14   D    
C1    O3    A    
C26   H33   S    
C4    O6    A    
C18   H15   S    
C7    C12   S    
C19   C20   S    
N1    Zn2   S    
C22   H24   S    
N2    Zn1   S    
C13   H5    S    
O5    Zn1   S    
C24   H28   S    
C14   H6    S    
O6    Zn2   S    
C5    C7    S    
C6    C8    S    
C7    H1    S    
C20   H18   S    
C24   H29   S    
O1    Zn1   S    
O2    Zn2   S    
C23   H25   S    
C25   C26   S    
O9    C15   S    
C2    O4    A    
C9    C11   S    
C10   C12   S    
C19   H16   S    
C1    O1    A    
C2    O2    A    
C26   H34   S    
C1    C13   S    
O10   C18   S    
N1    O11   S    
C18   C19   S    
C7    C9    S    
C17   H11   S    
C22   C23   S    
C23   H27   S    
O7    Zn2   S    
C21   C22   S    
C20   H20   S    
C24   C25   S    
C3    O5    A    
C5    C10   S    
C16   H10   S    
C3    C10   S    
C8    C11   S    
C17   H12   S    
C21   H22   S    
C15   H8    S    
C2    C14   S    
O4    Zn1   S    
C8    C10   S    
C12   H4    S    
C25   H31   S    
C20   H19   S    
C4    C9    S    
N1    N2    D    
C4    O8    A    
