data_mof_unit_8258.cif
_audit_creation_date              2012-12-11T15:06:35-0500
_audit_creation_method            fapswitch 2.2
_symmetry_space_group_name_H-M    P1
_symmetry_Int_Tables_number       1
_space_group_crystal_system       triclinic
_cell_length_a                    7.232571
_cell_length_b                    14.976786
_cell_length_c                    22.508295
_cell_angle_alpha                 90.039223
_cell_angle_beta                  91.004446
_cell_angle_gamma                 89.357963
_cell_volume                      2437.58556795

loop_
_atom_site_label
_atom_site_type_symbol
_atom_type_description
_atom_site_fract_x
_atom_site_fract_y
_atom_site_fract_z
_atom_type_partial_charge
O1    O     O_R   0.390810 0.844810 0.447340 -0.543961
O2    O     O_R   0.109190 0.155190 0.947340 -0.545649
O3    O     O_R   0.890810 0.655190 0.552660 -0.517948
O4    O     O_R   0.609190 0.344810 0.052660 -0.544505
O5    O     O_R   0.720550 0.655820 0.440420 -0.512281
O6    O     O_R   0.779450 0.344180 0.940420 -0.518453
O7    O     O_R   0.220550 0.844180 0.559580 -0.535347
O8    O     O_R   0.279450 0.155820 0.059580 -0.501410
C1    C     C_R   0.550864 0.626289 0.426426 0.784797
C2    C     C_R   0.945960 0.373738 0.926617 0.808302
C3    C     C_R   0.052273 0.873374 0.573668 0.791854
C4    C     C_R   0.450423 0.126149 0.073401 0.783281
O9    O     O_R   0.720530 0.844130 0.440420 -0.522101
O10   O     O_R   0.779470 0.155870 0.940420 -0.525055
O11   O     O_R   0.220530 0.655870 0.559580 -0.540046
O12   O     O_R   0.279470 0.344130 0.059580 -0.520753
O13   O     O_R   0.890830 0.844810 0.552660 -0.524150
O14   O     O_R   0.609170 0.155190 0.052660 -0.554862
O15   O     O_R   0.390830 0.655190 0.447340 -0.544830
O16   O     O_R   0.109170 0.344810 0.947340 -0.540028
C5    C     C_R   0.550290 0.872439 0.425605 0.870288
C6    C     C_R   0.947973 0.126838 0.926140 0.885792
C7    C     C_R   0.054038 0.627581 0.574558 0.872664
C8    C     C_R   0.448489 0.372563 0.074361 0.871127
O17   O     O_3   0.557310 0.749980 0.536820 -0.370999
O18   O     O_3   0.942690 0.250020 0.036820 -0.383707
O19   O     O_3   0.057310 0.750020 0.463180 -0.385641
O20   O     O_3   0.442690 0.249980 0.963180 -0.383078
V1    V     V_3+5 0.832160 0.749980 0.493170 1.684427
V2    V     V_3+5 0.667840 0.250020 0.993170 1.633955
V3    V     V_3+5 0.332160 0.750020 0.506830 1.629852
V4    V     V_3+5 0.167840 0.249980 0.006830 1.664982
C9    C     C_R   0.853636 0.598938 0.859031 -0.029214
C10   C     C_R   0.377794 0.409480 0.365589 -0.036836
C11   C     C_R   0.630764 0.908801 0.134516 -0.031123
C12   C     C_R   0.991442 0.104577 0.635054 -0.029952
H1    H     H_    0.829748 0.541708 0.945609 0.195847
H2    H     H_    0.415305 0.466212 0.451997 0.214695
H3    H     H_    0.598636 0.966746 0.048118 0.171718
H4    H     H_    0.030962 0.048324 0.548621 0.170904
H5    H     H_    0.790522 0.661183 0.873175 0.201281
H6    H     H_    0.312535 0.350776 0.383455 0.195714
H7    H     H_    0.699201 0.850035 0.116880 0.194902
H8    H     H_    0.969915 0.170971 0.616923 0.196430
C13   C     C_R   0.947292 0.448063 0.883701 -0.190553
C14   C     C_R   0.529158 0.550541 0.384564 -0.199059
C15   C     C_R   0.475378 0.050376 0.115151 -0.183178
C16   C     C_R   0.042407 0.947389 0.616823 -0.185269
C17   C     C_R   0.155042 0.476363 0.601702 0.508889
C18   C     C_R   0.510408 0.531248 0.094092 0.501394
C19   C     C_R   0.482376 0.031083 0.405398 0.501798
C20   C     C_R   0.015317 0.968652 0.908428 0.501585
C21   C     C_R   0.216925 0.415361 0.644014 -0.228501
C22   C     C_R   0.522555 0.605418 0.131041 -0.228074
C23   C     C_R   0.470126 0.105203 0.368357 -0.231110
C24   C     C_R   0.082146 0.900818 0.872445 -0.235408
C25   C     C_R   0.178221 0.427713 0.703713 0.733900
C26   C     C_R   0.501094 0.597015 0.192130 0.744947
C27   C     C_R   0.494468 0.096444 0.307398 0.745663
C28   C     C_R   0.094105 0.912559 0.811324 0.726324
C29   C     C_R   0.055792 0.496777 0.722053 -0.100393
C30   C     C_R   0.475936 0.512314 0.218270 -0.123768
C31   C     C_R   0.522001 0.011513 0.281432 -0.123367
C32   C     C_R   0.019816 0.990390 0.783336 -0.100148
C33   C     C_R   0.002667 0.563554 0.678951 -0.318782
C34   C     C_R   0.433555 0.439116 0.179522 -0.331710
C35   C     C_R   0.564485 0.938200 0.320336 -0.331134
C36   C     C_R   0.959771 0.062288 0.820911 -0.320223
C37   C     C_R   0.993611 0.504976 0.782205 -0.085071
C38   C     C_R   0.476550 0.499419 0.281447 -0.087804
C39   C     C_R   0.524282 0.998586 0.218297 -0.089642
C40   C     C_R   0.014728 0.001954 0.719845 -0.086592
C41   C     C_R   0.906124 0.586056 0.799794 -0.199713
C42   C     C_R   0.394576 0.421128 0.304084 -0.197154
C43   C     C_R   0.609270 0.919951 0.195930 -0.199172
C44   C     C_R   0.979665 0.088807 0.696442 -0.203747
C45   C     C_R   0.863735 0.652211 0.757757 0.655319
C46   C     C_R   0.329388 0.355224 0.265184 0.676275
C47   C     C_R   0.673076 0.853365 0.235037 0.678147
C48   C     C_R   0.925069 0.158410 0.734006 0.648822
C49   C     C_R   0.903398 0.639643 0.698137 0.628590
C50   C     C_R   0.358157 0.361458 0.204333 0.619493
C51   C     C_R   0.642021 0.859952 0.295789 0.619918
C52   C     C_R   0.906427 0.144277 0.794647 0.621610
C53   C     C_R   0.004092 0.434421 0.824893 0.762376
C54   C     C_R   0.557197 0.560351 0.323120 0.733220
C55   C     C_R   0.443596 0.059908 0.176417 0.730539
C56   C     C_R   0.033274 0.930535 0.678223 0.742938
C57   C     C_R   0.875471 0.530853 0.900560 -0.245502
C58   C     C_R   0.439574 0.474567 0.405024 -0.238163
C59   C     C_R   0.569959 0.974562 0.094950 -0.224640
C60   C     C_R   0.025980 0.034741 0.595850 -0.230434
C61   C     C_R   0.058024 0.553612 0.618508 -0.165499
C62   C     C_R   0.460446 0.448053 0.116999 -0.167947
C63   C     C_R   0.535364 0.947567 0.382756 -0.171124
C64   C     C_R   0.962047 0.051133 0.883985 -0.169967
H9    H     H_    0.306560 0.360716 0.630814 0.190930
H10   H     H_    0.544884 0.670690 0.111957 0.185714
H11   H     H_    0.445893 0.170688 0.387296 0.186185
H12   H     H_    0.136888 0.840257 0.892684 0.186907
F1    F     F_    0.773780 0.728369 0.773968 -0.604582
F2    F     F_    0.237534 0.283575 0.286293 -0.595243
F3    F     F_    0.765499 0.780637 0.214233 -0.593528
F4    F     F_    0.880157 0.240128 0.711401 -0.614587
F5    F     F_    0.044428 0.349402 0.808927 -0.582650
F6    F     F_    0.673197 0.624964 0.305337 -0.566480
F7    F     F_    0.324864 0.124963 0.193818 -0.566272
F8    F     F_    0.018911 0.844295 0.695157 -0.588696
F9    F     F_    0.205130 0.464142 0.544394 -0.698499
F10   F     F_    0.536331 0.541845 0.034896 -0.686972
F11   F     F_    0.454147 0.042041 0.464478 -0.677038
F12   F     F_    0.018352 0.956554 0.968261 -0.680713
F13   F     F_    0.281718 0.378883 0.742843 -0.598154
F14   F     F_    0.478196 0.673193 0.223733 -0.602797
F15   F     F_    0.518264 0.172250 0.275825 -0.602657
F16   F     F_    0.200587 0.852399 0.782188 -0.601118
F17   F     F_    0.840605 0.702896 0.659616 -0.618519
F18   F     F_    0.298042 0.293382 0.169804 -0.606629
F19   F     F_    0.702016 0.791543 0.330543 -0.607884
F20   F     F_    0.833349 0.211737 0.827215 -0.626497

loop_
_geom_bond_atom_site_label_1
_geom_bond_atom_site_label_2
_ccdc_geom_bond_type
O17   V3    S    
C39   C43   A    
C26   C30   A    
C23   C27   A    
O19   V1    S    
O13   V1    S    
C45   F1    S    
C10   H6    S    
O1    V3    S    
C40   C44   A    
O15   V3    S    
O1    C5    A    
C11   C43   A    
C18   C22   A    
C48   F4    S    
C32   C36   A    
O9    V1    S    
C24   H12   S    
C9    C57   A    
O16   V4    S    
O4    C8    A    
C46   F2    S    
C20   F12   S    
C49   F17   S    
C18   F10   S    
C52   F20   S    
C30   C38   A    
O2    V4    S    
C51   F19   S    
O3    V1    S    
C38   C42   A    
C12   C44   A    
O3    C7    A    
C1    O15   A    
C2    O16   A    
C19   C63   A    
O2    C6    A    
C16   C56   A    
C37   C41   A    
O14   V2    S    
C11   H7    S    
C48   C52   A    
C34   C62   A    
C12   C60   A    
O11   C7    A    
C1    C14   S    
O12   C8    A    
C35   C63   A    
C47   F3    S    
C3    C16   S    
C54   F6    S    
C15   C59   A    
O10   V2    S    
C4    C15   S    
C53   F5    S    
H3    C59   S    
C40   C56   A    
O5    V1    S    
C31   C35   A    
O7    V3    S    
C30   C34   A    
O8    V4    S    
C21   C25   A    
O18   V4    S    
C18   C62   A    
C25   F13   S    
C5    C63   S    
C21   H9    S    
C7    C61   S    
C36   C52   A    
O7    C3    A    
C10   C58   A    
O5    C1    A    
C8    C62   S    
C34   C50   A    
C46   C50   A    
C33   C49   A    
C45   C49   A    
O8    C4    A    
C2    C13   S    
O9    C5    A    
C36   C64   A    
C35   C51   A    
H4    C60   S    
C25   C29   A    
C10   C42   A    
C39   C55   A    
C9    C41   A    
O6    V2    S    
C31   C39   A    
C16   C60   A    
C12   H8    S    
C50   F18   S    
C23   H11   S    
C38   C54   A    
C37   C53   A    
C17   F9    S    
C22   C26   A    
C29   C37   A    
C3    O13   A    
C19   F11   S    
C13   C57   A    
C6    C64   S    
C44   C48   A    
O6    C2    A    
O11   V3    S    
C14   C58   A    
O12   V4    S    
H2    C58   S    
C27   C31   A    
H1    C57   S    
C13   C53   A    
C28   C32   A    
C9    H5    S    
O10   C6    A    
O20   V2    S    
C47   C51   A    
C17   C21   A    
C33   C61   A    
C20   C64   A    
C19   C23   A    
C32   C40   A    
C29   C33   A    
C28   F16   S    
C56   F8    S    
C24   C28   A    
C55   F7    S    
C27   F15   S    
C42   C46   A    
C4    O14   A    
C26   F14   S    
C41   C45   A    
C22   H10   S    
C17   C61   A    
C43   C47   A    
O4    V2    S    
C20   C24   A    
C15   C55   A    
C14   C54   A    
C11   C59   A    
