data_mof_unit_27131.cif
_audit_creation_date              2012-12-10T18:34:14-0500
_audit_creation_method            fapswitch 2.2
_symmetry_space_group_name_H-M    P1
_symmetry_Int_Tables_number       1
_space_group_crystal_system       triclinic
_cell_length_a                    10.814359
_cell_length_b                    15.048283
_cell_length_c                    13.974331
_cell_angle_alpha                 91.629449
_cell_angle_beta                  101.711244
_cell_angle_gamma                 92.140218
_cell_volume                      2223.74600715

loop_
_atom_site_label
_atom_site_type_symbol
_atom_type_description
_atom_site_fract_x
_atom_site_fract_y
_atom_site_fract_z
_atom_type_partial_charge
C1    C     C_R   0.496702 0.329757 0.498438 0.794066
C2    C     C_R   0.498123 0.669798 0.500557 0.757476
C3    C     C_R   0.465593 0.046764 0.491437 0.080306
C4    C     C_R   0.469309 0.949665 0.491030 0.081833
C5    C     C_R   0.621361 0.515724 0.130718 -0.298962
C6    C     C_R   0.474160 0.414447 0.881922 -0.296519
C7    C     C_R   0.608875 0.525138 0.229247 -0.001771
C8    C     C_R   0.461929 0.423458 0.779946 -0.002312
C9    C     C_R   0.398855 0.463223 0.186576 0.171035
C10   C     C_R   0.548418 0.571524 0.807011 0.168222
C11   C     C_R   0.406650 0.460236 0.085574 0.372962
C12   C     C_R   0.554735 0.565179 0.909815 0.377725
C13   C     C_R   0.519667 0.482947 0.057011 0.042290
C14   C     C_R   0.522077 0.485417 0.948738 0.045058
C15   C     C_R   0.262488 0.507694 0.462257 0.829444
C16   C     C_R   0.738236 0.507643 0.538890 0.836907
C17   C     C_2   0.127231 0.527360 0.448133 -0.407319
C18   C     C_2   0.876360 0.522076 0.558107 -0.411207
C19   C     C_2   0.077509 0.569006 0.519199 0.102819
C20   C     C_2   0.938471 0.574321 0.503544 0.120503
C21   C     C_R   0.428756 0.095742 0.568495 0.105037
C22   C     C_R   0.390812 0.894252 0.417689 0.098460
C23   C     C_R   0.438914 0.188693 0.568653 -0.215326
C24   C     C_R   0.401362 0.802035 0.423081 -0.215517
C25   C     C_R   0.485134 0.232600 0.495007 -0.058626
C26   C     C_R   0.487142 0.765587 0.499069 -0.036092
C27   C     C_R   0.519776 0.183428 0.419070 -0.201689
C28   C     C_R   0.565446 0.820829 0.569375 -0.230597
C29   C     C_R   0.511363 0.091173 0.417992 -0.198056
C30   C     C_R   0.557861 0.912273 0.564611 -0.188266
Cu1   Cu    Cu3+1 0.500000 0.499990 0.596430 0.916417
Cu2   Cu    Cu3+1 0.500000 0.500010 0.403570 0.919327
H1    H     H_    0.930410 0.485885 0.617604 0.141369
H2    H     H_    0.066150 0.506013 0.378992 0.132185
H3    H     H_    0.410980 0.227141 0.626835 0.134297
H4    H     H_    0.341896 0.758075 0.368343 0.136984
H5    H     H_    0.556593 0.216190 0.362048 0.148779
H6    H     H_    0.635119 0.793655 0.625925 0.147963
H7    H     H_    0.543816 0.054074 0.360914 0.133854
H8    H     H_    0.621952 0.954338 0.618379 0.134000
H9    H     H_    0.710383 0.535811 0.111958 0.188057
H10   H     H_    0.444066 0.351995 0.908415 0.188483
H11   H     H_    0.689084 0.550802 0.282311 0.140475
H12   H     H_    0.422466 0.367419 0.732225 0.144648
N1    N     N_R   0.500000 0.500020 0.258690 -0.189468
N2    N     N_R   0.500000 0.499980 0.741310 -0.192207
O1    O     O_R   0.500010 0.371450 0.581440 -0.582341
O2    O     O_R   0.499990 0.628550 0.418560 -0.576933
O3    O     O_R   0.500010 0.371460 0.418560 -0.588700
O4    O     O_R   0.499990 0.628540 0.581440 -0.601603
O5    O     O_R   0.320690 0.500000 0.551510 -0.577989
O6    O     O_R   0.679310 0.500000 0.448490 -0.577135
O7    O     O_R   0.320690 0.500010 0.388630 -0.586140
O8    O     O_R   0.679310 0.499990 0.611370 -0.572538
C31   C     C_3   0.874007 0.635223 0.424874 -0.377533
C32   C     C_3   0.925778 0.731976 0.441493 -0.381078
C33   C     C_3   0.867631 0.788939 0.356662 -0.845290
H13   H     H_    0.892993 0.764378 0.287740 0.255119
H14   H     H_    0.763056 0.787297 0.347491 0.260366
H15   H     H_    0.904121 0.858929 0.371861 0.246293
H16   H     H_    0.901449 0.760264 0.509268 0.212796
H17   H     H_    0.030165 0.735448 0.448871 0.227485
H18   H     H_    0.888861 0.609567 0.352938 0.185241
H19   H     H_    0.771337 0.637628 0.422243 0.212294
C34   C     C_3   0.160182 0.606729 0.615174 -0.331516
C35   C     C_3   0.096577 0.670464 0.675811 -0.392657
C36   C     C_3   0.190293 0.706182 0.766811 -0.896617
H20   H     H_    0.225585 0.650548 0.813642 0.246384
H21   H     H_    0.271647 0.742429 0.745889 0.254219
H22   H     H_    0.143237 0.752798 0.809440 0.248693
H23   H     H_    0.061603 0.727962 0.632277 0.221302
H24   H     H_    0.016624 0.634992 0.699194 0.230454
H25   H     H_    0.193596 0.550444 0.662086 0.218680
H26   H     H_    0.242759 0.644395 0.597631 0.211059
O9    O     O_3   0.303564 0.431004 0.013905 -0.594431
C37   C     C_3   0.231837 0.504788 0.981099 -0.377215
H27   H     H_    0.283222 0.548741 0.938556 0.168102
H28   H     H_    0.205543 0.543631 0.042451 0.145051
H29   H     H_    0.142953 0.480097 0.931536 0.201411
O10   O     O_3   0.600161 0.636859 0.973631 -0.590345
C38   C     C_3   0.497618 0.686937 0.989410 -0.385205
H30   H     H_    0.443685 0.652358 0.038033 0.178027
H31   H     H_    0.433042 0.702737 0.919871 0.144803
H32   H     H_    0.535826 0.751086 0.026837 0.199134
C39   C     C_3   0.384490 0.052189 0.653466 -0.417415
C40   C     C_3   0.256426 0.001268 0.621994 -0.350912
C41   C     C_3   0.210660 0.964234 0.709899 -0.849245
H33   H     H_    0.280605 0.918879 0.749482 0.254027
H34   H     H_    0.196378 0.019278 0.760657 0.253302
H35   H     H_    0.119341 0.926113 0.684597 0.242172
H36   H     H_    0.184999 0.046358 0.583699 0.215752
H37   H     H_    0.264557 0.944403 0.571930 0.227843
H38   H     H_    0.456524 0.007053 0.690162 0.196224
H39   H     H_    0.375400 0.103613 0.710118 0.193503
C42   C     C_3   0.297403 0.930054 0.332832 -0.416168
C43   C     C_3   0.181526 0.966858 0.365157 -0.355401
C44   C     C_3   0.080610 0.990083 0.277339 -0.853087
H40   H     H_    0.119684 0.039460 0.232531 0.256956
H41   H     H_    0.045620 0.929339 0.231326 0.254514
H42   H     H_    0.999745 0.019071 0.303169 0.240650
H43   H     H_    0.140076 0.916453 0.407583 0.217394
H44   H     H_    0.209630 0.028032 0.411861 0.225973
H45   H     H_    0.344102 0.982042 0.296129 0.195169
H46   H     H_    0.264473 0.876059 0.276336 0.196211
C45   C     C_3   0.274776 0.421710 0.206784 -0.327748
C46   C     C_3   0.290208 0.332413 0.258655 -0.274526
C47   C     C_3   0.187760 0.261953 0.213747 -0.921107
H47   H     H_    0.092667 0.286213 0.216298 0.256073
H48   H     H_    0.193170 0.245760 0.136685 0.271397
H49   H     H_    0.201889 0.200375 0.255852 0.252858
H50   H     H_    0.383191 0.305052 0.254868 0.225660
H51   H     H_    0.282833 0.342336 0.336016 0.233578
H52   H     H_    0.219300 0.470095 0.238634 0.170759
H53   H     H_    0.204771 0.407454 0.138153 0.224932
C48   C     C_3   0.598422 0.660686 0.777207 -0.315499
C49   C     C_3   0.731178 0.656808 0.752875 -0.286344
C50   C     C_3   0.818124 0.735482 0.800548 -0.928610
H54   H     H_    0.773528 0.799592 0.781307 0.249095
H55   H     H_    0.838728 0.730498 0.881350 0.278825
H56   H     H_    0.908389 0.735534 0.775014 0.248595
H57   H     H_    0.776679 0.594460 0.778994 0.224147
H58   H     H_    0.724370 0.658361 0.672849 0.219116
H59   H     H_    0.527496 0.694250 0.724784 0.174631
H60   H     H_    0.605865 0.711865 0.836580 0.218009

loop_
_geom_bond_atom_site_label_1
_geom_bond_atom_site_label_2
_ccdc_geom_bond_type
C31   C32   S    
C9    N1    A    
C43   H44   S    
C27   C29   A    
Cu2   O2    S    
Cu2   N1    S    
C42   C43   S    
C37   H29   S    
C41   H33   S    
C44   H42   S    
C44   H40   S    
C46   H51   S    
C39   C40   S    
C49   C50   S    
C24   H4    S    
C49   H58   S    
C7    N1    A    
C45   H52   S    
C37   H28   S    
C40   H36   S    
C50   H55   S    
C33   H14   S    
C46   C47   S    
C9    C45   S    
C48   C49   S    
C34   H25   S    
C32   C33   S    
C22   C42   S    
C3    C29   A    
Cu2   O6    S    
C2    O4    A    
C44   H41   S    
C39   H38   S    
C35   H24   S    
Cu1   Cu2   S    
Cu1   N2    S    
C31   H18   S    
C10   N2    A    
C47   H47   S    
C15   O5    A    
C5    C13   A    
C32   H17   S    
C35   C36   S    
Cu1   O1    S    
C43   H43   S    
C31   H19   S    
C1    C25   S    
C47   H48   S    
C20   C31   S    
C38   H31   S    
C42   H45   S    
C38   H30   S    
C16   O8    A    
C46   H50   S    
C21   C39   S    
C48   H59   S    
C49   H57   S    
C36   H20   S    
C8    H12   S    
C45   H53   S    
C37   H27   S    
C50   H56   S    
C5    C7    A    
C40   C41   S    
C1    O1    A    
C33   H15   S    
C6    C8    A    
C2    O2    A    
C34   H26   S    
C36   H21   S    
O9    C37   S    
C6    C14   A    
C4    C22   A    
C39   H39   S    
C35   H23   S    
C28   H6    S    
C43   C44   S    
C29   H7    S    
C30   H8    S    
C2    C26   S    
C9    C11   A    
C10   C12   A    
C12   C14   A    
C7    H11   S    
C21   C23   A    
C47   H49   S    
C22   C24   A    
C3    C21   A    
C17   H2    S    
Cu1   O4    S    
C3    C4    S    
C15   O7    A    
Cu2   O7    S    
C38   H32   S    
C42   H46   S    
C15   C17   S    
C5    H9    S    
C48   H60   S    
C26   C28   A    
C16   O6    A    
Cu1   O5    S    
O10   C38   S    
C25   C27   A    
C45   C46   S    
C23   H3    S    
C36   H22   S    
C19   C20   S    
C41   H34   S    
C11   O9    S    
C50   H54   S    
C11   C13   A    
C24   C26   A    
C33   H13   S    
C27   H5    S    
C12   O10   S    
C28   C30   A    
C17   C19   D    
C19   C34   S    
C18   C20   D    
C23   C25   A    
Cu1   O8    S    
C18   H1    S    
C8    N2    A    
Cu2   O3    S    
C16   C18   S    
C34   C35   S    
C6    H10   S    
C41   H35   S    
C32   H16   S    
C40   H37   S    
C13   C14   S    
C1    O3    A    
C4    C30   A    
C10   C48   S    
