data_mof_unit_30552.cif
_audit_creation_date              2012-12-10T17:51:33-0500
_audit_creation_method            fapswitch 2.2
_symmetry_space_group_name_H-M    P1
_symmetry_Int_Tables_number       1
_space_group_crystal_system       triclinic
_cell_length_a                    9.954666
_cell_length_b                    10.637521
_cell_length_c                    16.739337
_cell_angle_alpha                 92.907908
_cell_angle_beta                  85.337179
_cell_angle_gamma                 90.355961
_cell_volume                      1764.4327044

loop_
_atom_site_label
_atom_site_type_symbol
_atom_type_description
_atom_site_fract_x
_atom_site_fract_y
_atom_site_fract_z
_atom_type_partial_charge
C1    C     C_R   0.500523 0.739148 0.498075 0.901318
C2    C     C_R   0.528411 0.451740 0.262435 -0.021658
C3    C     C_R   0.398193 0.857317 0.362657 -0.177440
C4    C     C_R   0.481251 0.498086 0.653066 0.937691
C5    C     C_R   0.347042 0.917576 0.299576 -0.127771
C6    C     C_R   0.345531 0.048395 0.300013 -0.131818
C7    C     C_R   0.395316 0.119329 0.363492 -0.184795
C8    C     C_R   0.446399 0.059781 0.428313 0.099720
C9    C     C_R   0.447633 0.927954 0.428007 0.091211
C10   C     C_R   0.501897 0.871109 0.492577 -0.113028
C11   C     C_R   0.557962 0.940724 0.554162 -0.190435
C12   C     C_R   0.345435 0.441319 0.776485 -0.285382
C13   C     C_R   0.557409 0.069195 0.554207 -0.212301
C14   C     C_R   0.500149 0.127843 0.492890 -0.088775
C15   C     C_R   0.854079 0.671306 0.609772 0.621222
C16   C     C_R   0.499961 0.260604 0.497855 0.855070
C17   C     C_R   0.923059 0.750446 0.661157 -0.234685
C18   C     C_R   0.061093 0.746785 0.659380 -0.299601
C19   C     C_R   0.132045 0.663796 0.605931 -0.146915
C20   C     C_R   0.067327 0.581479 0.552585 0.105645
C21   C     C_R   0.922638 0.582917 0.553274 0.032002
C22   C     C_R   0.934912 0.421977 0.449689 -0.110649
C23   C     C_R   0.428236 0.338577 0.153470 -0.161767
C24   C     C_R   0.077633 0.422072 0.449695 -0.094593
C25   C     C_R   0.518487 0.492744 0.346966 0.814677
C26   C     C_R   0.469565 0.477484 0.738579 -0.140218
C27   C     C_R   0.585212 0.481101 0.780924 -0.176880
C28   C     C_R   0.577935 0.445012 0.859449 -0.240576
C29   C     C_R   0.454952 0.403540 0.896406 0.058737
C30   C     C_R   0.338093 0.404666 0.855152 0.640818
C31   C     C_R   0.417721 0.390012 0.231199 -0.221499
C32   C     C_R   0.651239 0.458122 0.215465 -0.196972
C33   C     C_R   0.660605 0.409303 0.136477 -0.158817
C34   C     C_R   0.547715 0.353193 0.104588 0.199399
C35   C     C_2   0.443662 0.372983 0.980735 -0.143361
C36   C     C_2   0.548706 0.332843 0.017692 -0.262483
F1    F     F_    0.721276 0.688211 0.619444 -0.680942
F2    F     F_    0.217432 0.368517 0.890610 -0.684636
H1    H     H_    0.681722 0.510305 0.753157 0.191203
H2    H     H_    0.237971 0.667504 0.608458 0.223849
H3    H     H_    0.136183 0.358112 0.408466 0.133409
H4    H     H_    0.738781 0.502457 0.239298 0.154613
H5    H     H_    0.643585 0.308604 0.983968 0.163478
H6    H     H_    0.341163 0.292065 0.130517 0.136913
H7    H     H_    0.254802 0.437859 0.744730 0.191730
H8    H     H_    0.349712 0.398896 0.015033 0.188756
H9    H     H_    0.668263 0.452203 0.891226 0.166893
H10   H     H_    0.753449 0.421192 0.099108 0.138133
H11   H     H_    0.309578 0.862570 0.249880 0.141653
H12   H     H_    0.599367 0.895584 0.603261 0.201119
H13   H     H_    0.599198 0.123316 0.603032 0.158020
H14   H     H_    0.400324 0.755647 0.358975 0.150690
H15   H     H_    0.306844 0.095073 0.250699 0.137123
H16   H     H_    0.394924 0.220481 0.360736 0.139973
H17   H     H_    0.886766 0.358043 0.408474 0.143410
H18   H     H_    0.867967 0.816079 0.703123 0.180391
H19   H     H_    0.323162 0.379536 0.267115 0.149575
H20   H     H_    0.113770 0.808892 0.699614 0.187789
N1    N     N_R   0.857140 0.501200 0.500750 -0.104503
N2    N     N_R   0.142740 0.501280 0.500770 -0.106332
O1    O     O_R   0.385310 0.683220 0.500000 -0.648674
O2    O     O_R   0.614640 0.683250 0.500010 -0.535863
O3    O     O_R   0.371780 0.500010 0.615800 -0.651616
O4    O     O_R   0.601110 0.500030 0.615800 -0.547015
O5    O     O_R   0.385360 0.316750 0.499990 -0.616967
O6    O     O_R   0.614690 0.316780 0.500000 -0.617106
O7    O     O_R   0.398890 0.499970 0.384200 -0.631684
O8    O     O_R   0.628220 0.499990 0.384200 -0.619230
Zn1   Zn    Zn3+2 0.346870 0.499980 0.499990 0.935678
Zn2   Zn    Zn3+2 0.653130 0.500020 0.500010 0.995076

loop_
_geom_bond_atom_site_label_1
_geom_bond_atom_site_label_2
_ccdc_geom_bond_type
C8    C9    A    
C4    C26   S    
C3    H14   S    
C28   H9    S    
C21   N1    A    
C22   H17   S    
C3    C9    A    
O4    Zn2   S    
C20   N2    A    
C29   C30   A    
C9    C10   A    
C4    O4    A    
C19   C20   A    
C17   H18   S    
C24   N2    A    
C23   C34   A    
C12   C30   A    
C1    O2    A    
C31   H19   S    
C27   C28   A    
C17   C18   A    
C7    C8    A    
C11   H12   S    
O6    Zn2   S    
C13   C14   A    
C32   C33   A    
C24   H3    S    
C11   C13   A    
C4    O3    A    
C5    H11   S    
C26   C27   A    
C6    C7    A    
C25   O8    A    
N2    Zn1   S    
O5    Zn1   S    
C22   C24   A    
O8    Zn2   S    
C28   C29   A    
C33   C34   A    
C2    C25   S    
C34   C36   S    
C7    H16   S    
C5    C6    A    
C14   C16   S    
C16   O6    A    
C10   C11   A    
C1    C10   S    
C6    H15   S    
C27   H1    S    
C3    C5    A    
C15   C21   A    
C20   C21   A    
O2    Zn2   S    
C25   O7    A    
C2    C32   A    
C18   C19   A    
C19   H2    S    
O1    Zn1   S    
C22   N1    A    
C15   C17   A    
C33   H10   S    
C29   C35   S    
C12   H7    S    
C36   H5    S    
C32   H4    S    
C16   O5    A    
C8    C14   A    
C30   F2    S    
C23   C31   A    
C13   H13   S    
C35   H8    S    
C18   H20   S    
N1    Zn2   S    
C15   F1    S    
C23   H6    S    
O3    Zn1   S    
C12   C26   A    
C2    C31   A    
O7    Zn1   S    
C35   C36   D    
C1    O1    A    
