data_mof_unit_17321.cif
_audit_creation_date              2013-03-05T15:50:31-0500
_audit_creation_method            fapswitch 2.2
_symmetry_space_group_name_H-M    P1
_symmetry_Int_Tables_number       1
_space_group_crystal_system       triclinic
_cell_length_a                    19.338992
_cell_length_b                    7.307293
_cell_length_c                    17.880915
_cell_angle_alpha                 90.319863
_cell_angle_beta                  108.675944
_cell_angle_gamma                 89.510443
_cell_volume                      2393.70351803

loop_
_atom_site_label
_atom_site_type_symbol
_atom_site_description
_atom_site_fract_x
_atom_site_fract_y
_atom_site_fract_z
_atom_type_partial_charge
O1    O     O_R   0.562310 0.505770 0.439670 -0.584755
O2    O     O_R   0.437690 0.005770 0.560330 -0.583284
O3    O     O_R   0.411650 0.169150 0.405330 -0.579283
O4    O     O_R   0.588350 0.669150 0.594670 -0.574888
C1    C     C_R   0.385802 0.345509 0.383017 0.972700
C2    C     C_R   0.613968 0.845185 0.617305 0.972521
O5    O     O_R   0.560140 0.175610 0.430010 -0.545038
O6    O     O_R   0.439860 0.675610 0.569990 -0.544813
O7    O     O_R   0.587240 0.012100 0.585200 -0.615604
O8    O     O_R   0.412760 0.512100 0.414800 -0.616736
C3    C     C_R   0.581163 0.342021 0.415749 0.994651
C4    C     C_R   0.418257 0.843525 0.583939 0.987531
O9    O     O_3   0.508720 0.341420 0.550890 -0.278374
O10   O     O_3   0.491280 0.841420 0.449110 -0.279807
V1    V     V_3+5 0.498380 0.063930 0.490560 1.239891
V2    V     V_3+5 0.501620 0.563930 0.509440 1.239910
C5    C     C_R   0.190908 0.818564 0.880085 0.091616
C6    C     C_R   0.805671 0.309562 0.112415 0.093499
C7    C     C_R   0.125109 0.921259 0.857326 -0.202266
C8    C     C_R   0.867506 0.428292 0.134915 -0.197430
C9    C     C_R   0.111569 0.034009 0.788318 0.084276
C10   C     C_R   0.875205 0.551543 0.200856 0.092780
C11   C     C_R   0.156489 0.011027 0.738360 0.111244
C12   C     C_R   0.831448 0.525350 0.251258 0.129856
C13   C     C_R   0.210629 0.870995 0.755060 0.002309
C14   C     C_R   0.775366 0.393996 0.231420 -0.004386
C15   C     C_R   0.222546 0.760872 0.822589 -0.010490
C16   C     C_R   0.758230 0.299193 0.158939 0.004366
C17   C     C_R   0.149110 0.123149 0.671743 -0.192608
C18   C     C_R   0.840724 0.631021 0.320763 -0.172131
C19   C     C_R   0.195549 0.103275 0.626170 -0.079077
C20   C     C_R   0.794817 0.611597 0.366490 -0.095180
C21   C     C_R   0.252051 0.973452 0.645892 0.208129
C22   C     C_R   0.739004 0.482933 0.346307 0.212992
C23   C     C_R   0.257724 0.851870 0.708421 0.003655
C24   C     C_R   0.731032 0.368218 0.280809 0.017756
C25   C     C_R   0.311659 0.713814 0.725526 -0.178314
C26   C     C_R   0.679133 0.226075 0.264332 -0.202074
C27   C     C_R   0.309791 0.575977 0.780008 0.345548
C28   C     C_R   0.672963 0.115732 0.197468 0.323315
C29   C     C_R   0.271394 0.607788 0.834353 -0.047086
C30   C     C_R   0.693665 0.192082 0.136734 0.030344
C31   C     C_R   0.304210 0.968167 0.605770 -0.133794
C32   C     C_R   0.689846 0.471766 0.389214 -0.161553
C33   C     C_R   0.363652 0.844904 0.628071 -0.314954
C34   C     C_R   0.633854 0.341471 0.370042 -0.313967
C35   C     C_R   0.366941 0.715637 0.688608 0.382498
C36   C     C_R   0.630673 0.210594 0.309350 0.370587
H1    H     H_    0.109050 0.231603 0.654533 0.154813
H2    H     H_    0.882193 0.733859 0.340908 0.150711
H3    H     H_    0.189208 0.195897 0.577242 0.157943
H4    H     H_    0.802565 0.699731 0.417455 0.145586
H5    H     H_    0.299384 0.063391 0.558030 0.150554
H6    H     H_    0.694967 0.566032 0.437748 0.150791
C37   C     C_3   0.767790 0.764725 0.826210 0.088712
C38   C     C_3   0.233526 0.263603 0.173358 0.066896
H7    H     H_    0.797331 0.631456 0.831806 0.139855
H8    H     H_    0.203706 0.133918 0.166733 0.159041
C39   C     C_3   0.692764 0.731912 0.758804 0.094226
C40   C     C_3   0.307418 0.227499 0.242099 0.119785
H9    H     H_    0.696058 0.596969 0.733424 0.119476
H10   H     H_    0.302169 0.092555 0.267542 0.079627
H11   H     H_    0.741973 0.687787 0.630432 0.228791
H12   H     H_    0.257228 0.200415 0.371588 0.218480
C41   C     C_3   0.828533 0.844029 0.721950 0.563706
C42   C     C_3   0.171541 0.352173 0.276369 0.575395
C43   C     C_3   0.770690 0.098361 0.784505 0.154624
C44   C     C_3   0.231051 0.595428 0.213353 0.145200
C45   C     C_3   0.817022 0.913545 0.803391 -0.488692
C46   C     C_3   0.184197 0.413929 0.195104 -0.489620
H13   H     H_    0.764022 0.144389 0.840287 0.115579
H14   H     H_    0.239660 0.635166 0.158423 0.131405
C47   C     C_3   0.684961 0.865187 0.688778 -0.228890
C48   C     C_3   0.315206 0.366244 0.311251 -0.209932
C49   C     C_3   0.750005 0.826803 0.657136 -0.616877
C50   C     C_3   0.249508 0.336088 0.342183 -0.632480
C51   C     C_3   0.692673 0.064236 0.722211 -0.042510
C52   C     C_3   0.308313 0.564331 0.276961 -0.065103
H15   H     H_    0.686890 0.150448 0.670021 0.224705
H16   H     H_    0.313282 0.658297 0.327167 0.210862
H17   H     H_    0.743548 0.916868 0.605598 0.215997
H18   H     H_    0.254638 0.436867 0.390459 0.224549
O11   O     O_R   0.087220 0.271820 0.085230 -0.532995
O12   O     O_R   0.912780 0.771820 0.914770 -0.534029
O13   O     O_R   0.939860 0.595540 0.069990 -0.578248
O14   O     O_R   0.060140 0.095540 0.930010 -0.578571
C53   C     C_R   0.919337 0.429103 0.085899 0.991561
C54   C     C_R   0.078715 0.927301 0.912149 0.962898
O15   O     O_R   0.088340 0.601930 0.094680 -0.553493
O16   O     O_R   0.911660 0.101930 0.905320 -0.574994
O17   O     O_R   0.062310 0.765410 0.939660 -0.587862
O18   O     O_R   0.937690 0.265410 0.060340 -0.601642
C55   C     C_R   0.113049 0.432111 0.121164 1.056781
C56   C     C_R   0.888090 0.931856 0.877626 0.996794
O19   O     O_3   0.991270 0.429630 0.949130 -0.257171
O20   O     O_3   0.008730 0.929630 0.050870 -0.244050
V3    V     V_3+5 0.001620 0.707150 0.009440 1.299626
V4    V     V_3+5 0.998380 0.207150 0.990560 1.284995
C57   C     C_3   0.245764 0.872022 0.958203 -0.332100
C58   C     C_3   0.228648 0.797041 0.028827 -0.743059
H19   H     H_    0.192894 0.891144 0.048685 0.271471
H20   H     H_    0.201089 0.663001 0.015383 0.265774
H21   H     H_    0.281093 0.782663 0.076869 0.254696
H22   H     H_    0.301906 0.831038 0.961436 0.209404
H23   H     H_    0.249365 0.023012 0.961841 0.246904
C59   C     C_3   0.786408 0.201985 0.035809 -0.348198
C60   C     C_3   0.752383 0.328654 0.965830 -0.732803
H24   H     H_    0.727384 0.451536 0.983496 0.298911
H25   H     H_    0.794266 0.371228 0.939261 0.249213
H26   H     H_    0.707543 0.258373 0.921196 0.251987
H27   H     H_    0.831647 0.121788 0.027264 0.225828
H28   H     H_    0.749582 0.088777 0.036860 0.237796
N1    N     N_R   0.760828 0.802296 0.904653 0.254285
O21   O     O_R   0.716126 0.925410 0.914710 -0.438830
O22   O     O_R   0.801408 0.714890 0.966389 -0.431645
N2    N     N_R   0.241405 0.299544 0.095394 0.253039
O23   O     O_R   0.196509 0.226066 0.032471 -0.451748
O24   O     O_R   0.286132 0.421030 0.086041 -0.464403
N3    N     N_R   0.628583 0.728531 0.786788 0.255669
O25   O     O_R   0.563869 0.754442 0.736862 -0.418194
O26   O     O_R   0.632496 0.649894 0.853206 -0.334039
N4    N     N_R   0.372149 0.218781 0.215061 0.253814
O27   O     O_R   0.368617 0.141189 0.148197 -0.343502
O28   O     O_R   0.436659 0.244186 0.265277 -0.426699
N5    N     N_R   0.864853 0.662661 0.729363 0.256942
O29   O     O_R   0.920179 0.626312 0.791408 -0.366565
O30   O     O_R   0.864031 0.578481 0.664605 -0.295416
N6    N     N_R   0.132612 0.176733 0.270054 0.246374
O31   O     O_R   0.072741 0.152054 0.211782 -0.362148
O32   O     O_R   0.136796 0.091767 0.335206 -0.308504
N7    N     N_R   0.807311 0.250022 0.757445 0.256875
O33   O     O_R   0.769669 0.367913 0.706111 -0.432026
O34   O     O_R   0.877201 0.275400 0.785333 -0.310914
N8    N     N_R   0.192311 0.749515 0.235989 0.248364
O35   O     O_R   0.203576 0.792891 0.309613 -0.358107
O36   O     O_R   0.152037 0.857725 0.181991 -0.365941
C61   C     C_3   0.627685 0.120201 0.751780 -0.406218
C62   C     C_3   0.619481 0.322705 0.757650 -0.680796
H29   H     H_    0.671091 0.375385 0.798474 0.233437
H30   H     H_    0.606307 0.385392 0.698352 0.279980
H31   H     H_    0.574516 0.352958 0.781969 0.320663
H32   H     H_    0.574594 0.073436 0.711304 0.258719
H33   H     H_    0.632714 0.063424 0.809847 0.276522
C63   C     C_3   0.374040 0.614060 0.248211 -0.410745
C64   C     C_3   0.382609 0.815950 0.242292 -0.698653
H34   H     H_    0.395831 0.880251 0.301490 0.276243
H35   H     H_    0.427662 0.842602 0.218055 0.323079
H36   H     H_    0.330948 0.870308 0.201808 0.234603
H37   H     H_    0.426788 0.565794 0.289318 0.257158
H38   H     H_    0.369768 0.555047 0.190504 0.277984
N9    N     N_R   0.874643 0.970666 0.694372 0.243862
O37   O     O_R   0.942617 0.926509 0.706418 -0.422782
O38   O     O_R   0.846223 0.093715 0.640617 -0.335533
N10   N     N_R   0.126837 0.486649 0.302054 0.271260
O39   O     O_R   0.069123 0.552771 0.250034 -0.437662
O40   O     O_R   0.129217 0.492171 0.375674 -0.344526
C65   C     C_3   0.055007 0.188253 0.771638 -0.206684
C66   C     C_3   0.090170 0.371437 0.803054 -0.823249
H39   H     H_    0.048053 0.481252 0.788560 0.304148
H40   H     H_    0.115471 0.365872 0.868132 0.271176
H41   H     H_    0.132454 0.406804 0.775942 0.229512
H42   H     H_    0.025079 0.199495 0.707628 0.228479
H43   H     H_    0.011328 0.161976 0.797388 0.247172
C67   C     C_3   0.923827 0.721181 0.215647 -0.224804
C68   C     C_3   0.878154 0.894443 0.188612 -0.850513
H44   H     H_    0.846377 0.881623 0.125084 0.277470
H45   H     H_    0.839705 0.918165 0.222328 0.250093
H46   H     H_    0.914551 0.014844 0.196940 0.275116
H47   H     H_    0.957706 0.732068 0.278477 0.217152
H48   H     H_    0.965240 0.721618 0.186373 0.267462
N11   N     N_R   0.431483 0.606209 0.722158 0.267732
O41   O     O_R   0.444593 0.465071 0.683983 -0.319211
O42   O     O_R   0.466085 0.619443 0.797541 -0.320503
N12   N     N_R   0.572556 0.079719 0.285807 0.265719
O43   O     O_R   0.573973 0.937660 0.329860 -0.337838
O44   O     O_R   0.529868 0.077186 0.212826 -0.332864
N13   N     N_R   0.336554 0.395346 0.770555 0.248944
O45   O     O_R   0.320974 0.326469 0.700057 -0.408521
O46   O     O_R   0.381988 0.307213 0.829054 -0.366250
N14   N     N_R   0.650961 0.927136 0.191811 0.262571
O47   O     O_R   0.669453 0.826449 0.254882 -0.384533
O48   O     O_R   0.628389 0.845965 0.123420 -0.398613
C69   C     C_3   0.278964 0.469181 0.899733 -0.328218
C70   C     C_3   0.354896 0.474998 0.962852 -0.551427
H49   H     H_    0.369183 0.337492 0.989808 0.271955
H50   H     H_    0.398184 0.518031 0.938451 0.248867
H51   H     H_    0.356116 0.572884 0.010613 0.241645
H52   H     H_    0.236725 0.488935 0.928492 0.229462
H53   H     H_    0.268751 0.329740 0.873561 0.205811
C71   C     C_3   0.630445 0.231896 0.061390 -0.353175
C72   C     C_3   0.605777 0.431688 0.058010 -0.653945
H54   H     H_    0.588069 0.464776 0.109862 0.271385
H55   H     H_    0.650722 0.524531 0.057636 0.280199
H56   H     H_    0.559067 0.455368 0.003403 0.262586
H57   H     H_    0.641849 0.196069 0.006666 0.230543
H58   H     H_    0.582203 0.147866 0.059295 0.249162

loop_
_geom_bond_atom_site_label_1
_geom_bond_atom_site_label_2
_geom_bond_distance
_ccdc_geom_bond_type
C18   C20   1.394717 A    
N11   O41   1.300922 A    
C41   N9    1.481700 S    
C68   H44   1.108836 S    
C37   C39   1.580554 S    
C60   H25   1.109497 S    
C67   H48   1.088106 S    
O1    C3    1.354384 A    
C61   H32   1.105482 S    
O2    C4    1.356410 A    
N6    O31   1.299084 A    
C2    O7    1.375279 A    
C72   H55   1.108903 S    
C64   H34   1.108934 S    
O19   V4    1.776254 S    
O18   V4    2.009727 S    
C27   C29   1.416446 A    
C59   H28   1.100312 S    
C70   H49   1.110700 S    
O5    C3    1.336907 A    
N11   O42   1.302310 A    
C65   C66   1.527177 S    
C48   C50   1.557215 S    
O12   V3    2.042816 S    
C11   C17   1.417950 A    
C67   C68   1.526785 S    
C23   C25   1.407249 A    
C51   C61   1.562287 S    
C70   H50   1.109052 S    
O14   C54   1.343101 A    
C59   C60   1.526658 S    
O11   C55   1.352901 A    
C8    C53   1.528302 S    
N2    O23   1.297542 A    
C6    C8    1.431889 A    
C40   H10   1.107217 S    
C40   C48   1.564891 S    
C1    C48   1.552489 S    
C15   C29   1.430150 A    
N12   O43   1.301409 A    
C20   H4    1.084127 S    
C63   H38   1.094781 S    
C66   H41   1.108780 S    
C64   H35   1.109295 S    
C28   N14   1.439239 S    
C31   H5    1.084472 S    
N2    O24   1.292911 A    
N13   O46   1.300070 A    
O11   V4    2.045235 S    
C43   C51   1.583137 S    
C60   H24   1.107706 S    
C19   C21   1.399109 A    
C38   H8    1.099530 S    
C25   C35   1.425209 A    
C65   H43   1.102381 S    
N10   O40   1.302792 A    
C26   C36   1.423038 A    
C44   H14   1.088809 S    
O13   C53   1.342397 A    
C57   H22   1.107373 S    
C61   H33   1.095026 S    
N9    O37   1.300290 A    
C68   H45   1.109107 S    
C53   O18   1.362404 A    
C66   H40   1.109369 S    
C47   C49   1.558550 S    
C67   H47   1.107366 S    
C69   H53   1.111381 S    
C27   N13   1.442393 S    
N14   O48   1.300890 A    
O16   C56   1.362257 A    
C36   N12   1.437313 S    
C59   H27   1.099102 S    
C33   C35   1.426305 A    
C9    C11   1.440011 A    
C44   C52   1.576874 S    
C57   H23   1.106354 S    
C34   C36   1.429267 A    
C39   H9    1.093062 S    
C72   H54   1.111221 S    
C5    C15   1.415145 A    
C46   C55   1.578793 S    
C6    C16   1.424848 A    
O4    C2    1.393050 A    
C45   C56   1.581639 S    
C50   H18   1.112023 S    
C42   N10   1.469246 S    
C49   H17   1.108896 S    
C38   N2    1.475286 S    
C17   H1    1.078198 S    
O5    V1    2.029639 S    
C37   N1    1.475417 S    
N7    O34   1.296736 A    
C5    C57   1.510335 S    
C58   H21   1.104014 S    
C38   C40   1.579469 S    
O15   V3    2.020114 S    
O15   C55   1.357936 A    
C43   C45   1.591028 S    
C41   N5    1.481144 S    
C66   H39   1.109259 S    
O4    V2    2.024568 S    
C69   C70   1.539826 S    
C6    C59   1.516310 S    
C71   C72   1.527506 S    
C63   H37   1.105358 S    
C52   C63   1.562199 S    
C10   C67   1.532212 S    
C30   C71   1.528994 S    
C35   N11   1.437351 S    
C57   C58   1.510972 S    
C54   O17   1.361961 A    
O6    C4    1.340469 A    
C42   C50   1.591955 S    
O20   V3    1.770825 S    
C58   H20   1.106998 S    
H12   C50   1.111145 S    
C51   H15   1.103972 S    
C22   C32   1.402918 A    
O1    V2    2.009438 S    
O12   C56   1.353774 A    
O17   V3    2.016916 S    
C40   N4    1.480121 S    
O2    V1    2.016607 S    
C31   C33   1.408735 A    
N10   O39   1.294337 A    
C37   C45   1.589660 S    
N3    O26   1.302168 A    
C62   H30   1.108771 S    
C71   H57   1.099556 S    
C13   C23   1.423894 A    
C19   H3    1.083976 S    
C14   C24   1.428288 A    
C8    C10   1.449665 A    
C7    C54   1.526448 S    
C68   H46   1.110710 S    
C38   C46   1.575683 S    
C37   H7    1.113419 S    
N5    O29   1.297840 A    
C60   H26   1.101126 S    
C10   C12   1.434589 A    
N12   O44   1.301863 A    
N4    O28   1.296850 A    
N7    O33   1.297986 A    
C52   H16   1.107077 S    
C64   H36   1.101452 S    
O3    V1    2.020138 S    
N14   O47   1.299056 A    
C2    C47   1.554752 S    
N1    O21   1.293637 A    
C39   C47   1.558563 S    
C39   N3    1.479854 S    
C7    C9    1.438990 A    
C9    C65   1.526291 S    
C43   N7    1.484145 S    
C12   C14   1.411044 A    
C28   C30   1.392818 A    
O3    C1    1.391696 A    
C62   H31   1.109938 S    
N6    O32   1.302319 A    
N8    O36   1.296343 A    
N3    O25   1.296684 A    
N8    O35   1.301482 A    
C4    C33   1.507088 S    
C71   H58   1.111748 S    
C13   C15   1.410003 A    
C61   C62   1.493577 S    
C14   C16   1.410052 A    
C41   C49   1.593658 S    
C70   H51   1.105480 S    
C63   C64   1.494071 S    
C44   N8    1.472275 S    
O7    V1    2.023335 S    
C72   H56   1.110703 S    
C1    O8    1.374784 A    
C17   C19   1.398867 A    
O8    V2    2.025294 S    
C69   H52   1.103946 S    
C24   C26   1.413509 A    
C26   C28   1.411849 A    
C42   C46   1.616178 S    
H11   C49   1.110771 S    
C41   C45   1.620387 S    
C16   C30   1.423044 A    
C58   H19   1.106077 S    
C21   C23   1.407945 A    
C22   C24   1.404881 A    
C42   N6    1.477655 S    
C43   H13   1.096591 S    
N9    O38   1.302814 A    
C18   H2    1.076969 S    
O14   V4    2.016327 S    
C12   C18   1.421927 A    
O13   V3    2.029425 S    
C62   H29   1.101838 S    
C5    C7    1.415425 A    
C32   H6    1.084842 S    
C25   C27   1.413842 A    
C11   C13   1.420323 A    
O6    V2    2.016524 S    
N13   O45   1.298217 A    
C48   C52   1.563065 S    
O9    V2    1.776609 S    
N5    O30   1.303791 A    
C44   C46   1.585192 S    
C47   C51   1.559513 S    
O10   V1    1.771175 S    
C29   C69   1.521531 S    
C3    C34   1.496497 S    
N4    O27   1.302449 A    
C21   C31   1.412853 A    
C65   H42   1.108028 S    
O16   V4    2.024540 S    
C32   C34   1.404559 A    
C20   C22   1.394024 A    
N1    O22   1.298798 A    
