data_mof_unit_21063.cif
_audit_creation_date              2012-12-11T16:51:32-0500
_audit_creation_method            fapswitch 2.2
_symmetry_space_group_name_H-M    P1
_symmetry_Int_Tables_number       1
_space_group_crystal_system       triclinic
_cell_length_a                    24.429211
_cell_length_b                    17.266819
_cell_length_c                    15.601916
_cell_angle_alpha                 90.004463
_cell_angle_beta                  128.482607
_cell_angle_gamma                 89.982507
_cell_volume                      5151.68016762

loop_
_atom_site_label
_atom_site_type_symbol
_atom_type_description
_atom_site_fract_x
_atom_site_fract_y
_atom_site_fract_z
_atom_type_partial_charge
C1    C     C_R   0.856172 0.853302 0.253007 0.538813
C2    C     C_R   0.145277 0.854593 0.749480 0.540490
C3    C     C_R   0.354852 0.354517 0.250812 0.541541
C4    C     C_R   0.645587 0.354513 0.749784 0.520304
C5    C     C_R   0.906754 0.140433 0.591141 -0.192830
C6    C     C_R   0.093760 0.139680 0.408551 -0.189399
C7    C     C_R   0.407053 0.640340 0.591542 -0.167394
C8    C     C_R   0.594268 0.639434 0.408733 -0.196321
C9    C     C_R   0.850359 0.178800 0.499643 -0.051140
C10   C     C_R   0.150709 0.177387 0.499982 -0.048296
C11   C     C_R   0.350282 0.678347 0.500113 -0.040132
C12   C     C_R   0.651394 0.676985 0.500226 -0.043697
C13   C     C_R   0.862646 0.145476 0.154549 -0.189841
C14   C     C_R   0.135513 0.149945 0.840273 -0.193144
C15   C     C_R   0.364600 0.650176 0.159933 -0.193602
C16   C     C_R   0.639123 0.643517 0.847682 -0.182822
C17   C     C_R   0.776300 0.843053 0.601727 0.029960
C18   C     C_R   0.223758 0.842021 0.399030 0.031196
C19   C     C_R   0.276970 0.341314 0.601257 0.032090
C20   C     C_R   0.723660 0.342450 0.398707 0.019776
C21   C     C_R   0.757293 0.872931 0.503351 0.120912
C22   C     C_R   0.242290 0.870882 0.497482 0.116071
C23   C     C_R   0.257970 0.370919 0.502866 0.115769
C24   C     C_R   0.742379 0.371532 0.497190 0.118099
C25   C     C_R   0.693150 0.850705 0.404646 -0.163489
C26   C     C_R   0.306636 0.849219 0.596394 -0.160481
C27   C     C_R   0.193706 0.349153 0.403998 -0.155633
C28   C     C_R   0.806911 0.350173 0.595913 -0.152882
C29   C     C_R   0.156640 0.287269 0.402117 -0.189137
C30   C     C_R   0.844498 0.288886 0.597619 -0.192269
C31   C     C_R   0.656969 0.787687 0.402768 -0.195592
C32   C     C_R   0.344221 0.787955 0.598115 -0.161584
C33   C     C_R   0.181184 0.250077 0.500173 0.131278
C34   C     C_R   0.820138 0.251872 0.499511 0.129632
C35   C     C_R   0.682059 0.749765 0.500699 0.128940
C36   C     C_R   0.320012 0.751226 0.500004 0.135767
C37   C     C_R   0.237398 0.282658 0.599476 0.107962
C38   C     C_R   0.763706 0.284403 0.400320 0.108405
C39   C     C_R   0.738103 0.782558 0.600045 0.099527
C40   C     C_R   0.263801 0.783920 0.400767 0.100078
C41   C     C_3   0.736161 0.820252 0.684624 0.365835
C42   C     C_3   0.266440 0.825467 0.319088 0.349030
C43   C     C_3   0.235092 0.323315 0.682056 0.352701
C44   C     C_3   0.765745 0.325817 0.317918 0.359914
C45   C     C_R   0.116786 0.904033 0.409092 0.003734
C46   C     C_R   0.882903 0.905115 0.590802 -0.003294
C47   C     C_R   0.617027 0.404671 0.409276 -0.000696
C48   C     C_R   0.383202 0.404427 0.590944 0.010072
C49   C     C_3   0.776566 0.886521 0.685044 -0.594033
C50   C     C_3   0.221994 0.887793 0.315996 -0.562753
C51   C     C_3   0.279102 0.386224 0.685200 -0.564977
C52   C     C_3   0.721379 0.388088 0.315105 -0.558956
C53   C     C_2   0.144759 0.749166 0.857013 -0.346738
C54   C     C_2   0.860067 0.745777 0.149578 -0.310688
C55   C     C_2   0.641922 0.246223 0.853472 -0.307140
C56   C     C_2   0.355273 0.249128 0.143170 -0.346557
C57   C     C_2   0.208569 0.757991 0.951255 0.534460
C58   C     C_2   0.794456 0.749271 0.058012 0.509161
C59   C     C_2   0.706376 0.252237 0.947637 0.511451
C60   C     C_2   0.291389 0.257996 0.049060 0.533839
C61   C     C_2   0.823186 0.198042 0.060528 0.466089
C62   C     C_2   0.174920 0.203259 0.932998 0.475993
C63   C     C_2   0.325150 0.703472 0.067147 0.475135
C64   C     C_2   0.682876 0.686352 0.951318 0.457606
C65   C     C_2   0.753534 0.185415 0.989271 0.253159
C66   C     C_2   0.244608 0.191500 0.002577 0.236629
C67   C     C_2   0.255491 0.691575 0.997506 0.236837
C68   C     C_2   0.752929 0.678778 0.012603 0.254614
C69   C     C_R   0.189610 0.906629 0.589322 -0.075720
C70   C     C_R   0.810228 0.907174 0.410809 -0.058554
C71   C     C_R   0.689684 0.406813 0.589349 -0.075582
C72   C     C_R   0.310384 0.406819 0.410732 -0.076596
C73   C     C_R   0.057557 0.860536 0.760109 0.552624
C74   C     C_R   0.942978 0.859748 0.241878 0.521935
C75   C     C_R   0.557313 0.359209 0.757861 0.527397
C76   C     C_R   0.442440 0.360496 0.239940 0.551909
C77   C     C_R   0.888364 0.814154 0.217155 -0.197170
C78   C     C_R   0.113529 0.815620 0.786374 -0.214138
C79   C     C_R   0.386569 0.315529 0.213889 -0.213790
C80   C     C_R   0.613112 0.314475 0.784750 -0.189972
C81   C     C_R   0.185586 0.893864 0.498853 -0.046530
C82   C     C_R   0.814054 0.895170 0.501328 -0.053457
C83   C     C_R   0.685762 0.394387 0.498916 -0.049092
C84   C     C_R   0.314436 0.394314 0.501264 -0.048153
C85   C     C_R   0.827302 0.133926 0.408780 0.447415
C86   C     C_R   0.173537 0.132810 0.590961 0.439058
C87   C     C_R   0.326960 0.633451 0.409108 0.430951
C88   C     C_R   0.673843 0.632490 0.591069 0.454062
C89   C     C_R   0.927362 0.113005 0.204740 0.400233
C90   C     C_R   0.071998 0.115373 0.793345 0.404881
C91   C     C_R   0.428101 0.615527 0.206823 0.404576
C92   C     C_R   0.573718 0.611900 0.796766 0.405897
C93   C     C_R   0.159531 0.123687 0.785407 -0.122274
C94   C     C_R   0.838743 0.119905 0.209854 -0.123912
C95   C     C_R   0.661059 0.620653 0.788579 -0.105578
C96   C     C_R   0.340499 0.623764 0.214614 -0.121161
H1    H     H_    0.111031 0.267030 0.323502 0.132124
H2    H     H_    0.890284 0.268789 0.676174 0.132224
H3    H     H_    0.611476 0.767293 0.324151 0.131973
H4    H     H_    0.389631 0.767331 0.676594 0.126426
H5    H     H_    0.766262 0.787777 0.762992 0.128503
H6    H     H_    0.239646 0.793565 0.240536 0.133054
H7    H     H_    0.262279 0.291023 0.760396 0.133146
H8    H     H_    0.738765 0.293792 0.239552 0.133167
H9    H     H_    0.747158 0.942050 0.652723 0.238123
H10   H     H_    0.248073 0.945141 0.347527 0.241222
H11   H     H_    0.252819 0.443556 0.654455 0.241375
H12   H     H_    0.747386 0.445500 0.346283 0.241810
H13   H     H_    0.830255 0.892146 0.763970 0.182470
H14   H     H_    0.168367 0.890490 0.236373 0.183504
H15   H     H_    0.332888 0.388779 0.764522 0.181977
H16   H     H_    0.667615 0.390610 0.235741 0.181557
H17   H     H_    0.125374 0.692957 0.818781 0.154687
H18   H     H_    0.885551 0.691237 0.187860 0.146374
H19   H     H_    0.620853 0.190650 0.813170 0.151781
H20   H     H_    0.374795 0.192874 0.181208 0.154828
H21   H     H_    0.098569 0.912130 0.326406 0.162624
H22   H     H_    0.900842 0.914298 0.673154 0.167525
H23   H     H_    0.599179 0.413703 0.326953 0.166689
H24   H     H_    0.401506 0.412610 0.673681 0.157330
H25   H     H_    0.236854 0.915925 0.671837 0.172847
H26   H     H_    0.763000 0.916232 0.328149 0.164806
H27   H     H_    0.736921 0.416098 0.671874 0.171128
H28   H     H_    0.263131 0.415992 0.328176 0.172232
H29   H     H_    0.210782 0.132853 0.809655 0.223636
H30   H     H_    0.786384 0.126163 0.182346 0.221697
H31   H     H_    0.712256 0.628181 0.812180 0.228394
H32   H     H_    0.289163 0.632775 0.190091 0.223789
H33   H     H_    0.935455 0.157576 0.675018 0.170114
H34   H     H_    0.064920 0.156690 0.324533 0.170457
H35   H     H_    0.436430 0.657505 0.675689 0.164732
H36   H     H_    0.565798 0.656374 0.324811 0.171711
H37   H     H_    0.675025 0.875476 0.327361 0.123607
H38   H     H_    0.324272 0.873381 0.673667 0.126924
H39   H     H_    0.175770 0.373812 0.326804 0.125959
H40   H     H_    0.824735 0.374690 0.673106 0.125177
N1    N     N_R   0.888400 0.921830 0.294620 -0.126695
N2    N     N_R   0.111600 0.921830 0.705380 -0.125227
N3    N     N_R   0.388400 0.421830 0.294620 -0.125336
N4    N     N_R   0.611600 0.421830 0.705380 -0.127093
N5    N     N_R   0.079940 0.922160 0.443410 -0.063517
N6    N     N_R   0.920060 0.922160 0.556590 -0.064139
N7    N     N_R   0.579940 0.422160 0.443410 -0.063091
N8    N     N_R   0.420060 0.422160 0.556590 -0.062791
N9    N     N_R   0.125650 0.922400 0.556620 -0.070815
N10   N     N_R   0.874350 0.922400 0.443380 -0.071302
N11   N     N_R   0.625650 0.422400 0.556620 -0.070233
N12   N     N_R   0.374350 0.422400 0.443380 -0.070500
N13   N     N_R   0.054230 0.922730 0.705400 -0.123765
N14   N     N_R   0.945770 0.922730 0.294600 -0.125933
N15   N     N_R   0.554230 0.422730 0.705400 -0.126418
N16   N     N_R   0.445770 0.422730 0.294600 -0.123953
N17   N     N_R   0.873790 0.077030 0.443380 -0.077129
N18   N     N_R   0.126210 0.077030 0.556620 -0.076405
N19   N     N_R   0.373790 0.577030 0.443380 -0.076458
N20   N     N_R   0.626210 0.577030 0.556620 -0.077020
N21   N     N_R   0.945200 0.076700 0.294600 -0.075647
N22   N     N_R   0.054800 0.076700 0.705400 -0.076523
N23   N     N_R   0.445200 0.576700 0.294600 -0.075792
N24   N     N_R   0.554800 0.576700 0.705400 -0.077389
N25   N     N_R   0.111030 0.077600 0.705380 -0.067451
N26   N     N_R   0.888970 0.077600 0.294620 -0.067219
N27   N     N_R   0.611030 0.577600 0.705380 -0.069310
N28   N     N_R   0.388970 0.577600 0.294620 -0.066887
N29   N     N_R   0.919490 0.077280 0.556590 -0.055713
N30   N     N_R   0.080510 0.077280 0.443410 -0.055008
N31   N     N_R   0.419490 0.577280 0.556590 -0.059128
N32   N     N_R   0.580510 0.577280 0.443410 -0.055640
Ni1   Ni    Ni4+2 0.882160 0.999430 0.370180 0.250412
Ni2   Ni    Ni4+2 0.117840 0.999430 0.629820 0.257946
Ni3   Ni    Ni4+2 0.382160 0.499430 0.370180 0.259329
Ni4   Ni    Ni4+2 0.617840 0.499430 0.629820 0.252272
Ni5   Ni    Ni4+2 0.012460 0.999430 0.370180 0.249664
Ni6   Ni    Ni4+2 0.987540 0.999430 0.629820 0.256246
Ni7   Ni    Ni4+2 0.512460 0.499430 0.370180 0.258490
Ni8   Ni    Ni4+2 0.487540 0.499430 0.629820 0.249673
O1    O     O_3   0.796042 0.830358 0.236878 -0.630362
C97   C     C_3   0.808671 0.760084 0.293978 0.166731
H41   H     H_    0.847012 0.769928 0.383822 0.106786
H42   H     H_    0.830093 0.713655 0.273538 0.075112
C98   C     C_3   0.739989 0.729745 0.264431 -0.237141
H43   H     H_    0.710010 0.778030 0.264006 0.203437
H44   H     H_    0.707769 0.704551 0.180923 0.241531
C99   C     C_3   0.752636 0.667673 0.344690 -0.976884
H45   H     H_    0.782031 0.618231 0.345390 0.268412
H46   H     H_    0.701690 0.646129 0.319518 0.284264
H47   H     H_    0.782617 0.692186 0.428546 0.273779
O2    O     O_3   0.208827 0.836102 0.773942 -0.623808
C100  C     C_3   0.204250 0.763949 0.726136 0.146454
H48   H     H_    0.170957 0.769570 0.635689 0.110875
H49   H     H_    0.181303 0.717205 0.743098 0.077077
C101  C     C_3   0.277636 0.737634 0.771851 -0.225690
H50   H     H_    0.305332 0.785489 0.765959 0.201976
H51   H     H_    0.307836 0.722549 0.859707 0.229466
C102  C     C_3   0.275266 0.667234 0.710426 -0.987773
H52   H     H_    0.248962 0.617971 0.717315 0.263632
H53   H     H_    0.329368 0.649575 0.746170 0.291729
H54   H     H_    0.246744 0.681501 0.622635 0.273633
O3    O     O_3   0.291460 0.335866 0.226769 -0.624133
C103  C     C_3   0.296377 0.263736 0.274899 0.145930
H55   H     H_    0.329702 0.269524 0.365330 0.112220
H56   H     H_    0.319466 0.217069 0.258041 0.077718
C104  C     C_3   0.223133 0.237133 0.229468 -0.227888
H57   H     H_    0.195445 0.284780 0.235791 0.203075
H58   H     H_    0.192801 0.222267 0.141517 0.229701
C105  C     C_3   0.225842 0.166460 0.290794 -0.980523
H59   H     H_    0.252018 0.117349 0.283294 0.262817
H60   H     H_    0.171834 0.148711 0.255435 0.291690
H61   H     H_    0.254646 0.180450 0.378735 0.274512
O4    O     O_3   0.709258 0.336312 0.774534 -0.625516
C106  C     C_3   0.704641 0.264557 0.725996 0.156867
H62   H     H_    0.670069 0.270162 0.635413 0.108547
H63   H     H_    0.683007 0.217487 0.744648 0.072755
C107  C     C_3   0.777766 0.239249 0.769113 -0.225666
H64   H     H_    0.805264 0.288394 0.765229 0.203394
H65   H     H_    0.808507 0.221680 0.856191 0.228361
C108  C     C_3   0.774836 0.171440 0.703558 -0.993900
H66   H     H_    0.749040 0.120742 0.708711 0.259275
H67   H     H_    0.828772 0.154696 0.737287 0.292094
H68   H     H_    0.745569 0.188133 0.616355 0.275124
Cl1   Cl    Cl    0.650351 0.847454 0.635537 -0.678581
Cl2   Cl    Cl    0.352008 0.859516 0.375730 -0.696100
Cl3   Cl    Cl    0.149636 0.356890 0.626619 -0.723918
Cl4   Cl    Cl    0.850889 0.360092 0.372726 -0.721673
O5    O     O_3   0.724603 0.112139 0.973352 -0.663274
C109  C     C_3   0.748465 0.058927 0.933562 0.228564
H69   H     H_    0.767977 0.006431 0.985903 0.192006
H70   H     H_    0.792639 0.080276 0.936292 0.070080
C110  C     C_3   0.688799 0.036194 0.815011 -0.338797
H71   H     H_    0.670103 0.087962 0.761667 0.167786
H72   H     H_    0.708964 0.994160 0.786688 0.220812
C111  C     C_3   0.627386 0.999681 0.802588 -0.679646
H73   H     H_    0.644588 0.946414 0.852731 0.279273
H74   H     H_    0.585905 0.983905 0.715541 0.249102
H75   H     H_    0.605054 0.040815 0.828219 0.253871
O6    O     O_3   0.274113 0.120052 0.011721 -0.672074
C112  C     C_3   0.257209 0.063870 0.058117 0.255024
H76   H     H_    0.233666 0.013482 0.001843 0.194626
H77   H     H_    0.218362 0.083265 0.069240 0.061705
C113  C     C_3   0.323433 0.037490 0.169425 -0.315695
H78   H     H_    0.341100 0.083748 0.231009 0.164504
H79   H     H_    0.310947 0.985669 0.196594 0.232310
C114  C     C_3   0.382746 0.017773 0.165241 -0.756361
H80   H     H_    0.366100 0.971675 0.103784 0.279766
H81   H     H_    0.428885 0.997792 0.247103 0.234126
H82   H     H_    0.398844 0.069375 0.143641 0.268122
O7    O     O_3   0.226142 0.619983 0.988106 -0.671904
C115  C     C_3   0.243224 0.564104 0.941606 0.255656
H83   H     H_    0.266883 0.513644 0.997747 0.194435
H84   H     H_    0.282054 0.583789 0.930606 0.061552
C116  C     C_3   0.177100 0.537742 0.830187 -0.318219
H85   H     H_    0.159446 0.584048 0.768666 0.163941
H86   H     H_    0.189702 0.485979 0.803063 0.232782
C117  C     C_3   0.117698 0.517913 0.834086 -0.754053
H87   H     H_    0.134365 0.471929 0.895698 0.279884
H88   H     H_    0.071712 0.497769 0.752220 0.234503
H89   H     H_    0.101355 0.569501 0.855324 0.267708
O8    O     O_3   0.784659 0.614247 0.006929 -0.669581
C118  C     C_3   0.773109 0.547208 0.046011 0.254623
H90   H     H_    0.768174 0.497179 0.996933 0.197073
H91   H     H_    0.723812 0.548451 0.036125 0.080161
C119  C     C_3   0.834873 0.533022 0.166494 -0.328036
H92   H     H_    0.840138 0.582283 0.216847 0.172072
H93   H     H_    0.824097 0.480490 0.194810 0.233557
C120  C     C_3   0.903234 0.521883 0.183751 -0.792011
H94   H     H_    0.898635 0.472511 0.134116 0.256852
H95   H     H_    0.946326 0.510167 0.271584 0.247402
H96   H     H_    0.916679 0.574339 0.159339 0.268801
Cl5   Cl    Cl    0.235203 0.848784 0.019891 -0.716361
Cl6   Cl    Cl    0.757911 0.838876 0.988564 -0.742158
Cl7   Cl    Cl    0.734890 0.341458 0.020502 -0.735902
Cl8   Cl    Cl    0.264549 0.348919 0.980739 -0.715491
O9    O     O_3   0.849773 0.267256 0.052178 -0.626460
C121  C     C_3   0.917636 0.288702 0.146115 0.231955
H97   H     H_    0.934166 0.338207 0.121569 0.130858
H98   H     H_    0.957181 0.243591 0.171954 0.117870
C122  C     C_3   0.918754 0.316379 0.240834 -0.338465
H99   H     H_    0.882328 0.365641 0.212659 0.277654
H100  H     H_    0.901181 0.270397 0.268135 0.240252
C123  C     C_3   0.991968 0.341346 0.339287 -0.860253
H101  H     H_    0.027050 0.290257 0.375646 0.270172
H102  H     H_    0.989951 0.367443 0.402294 0.320021
H103  H     H_    0.013588 0.384747 0.315015 0.254310
O10   O     O_3   0.147681 0.271643 0.941887 -0.626920
C124  C     C_3   0.079933 0.292922 0.847337 0.229387
H104  H     H_    0.063340 0.342985 0.870997 0.135441
H105  H     H_    0.040429 0.247782 0.821796 0.115993
C125  C     C_3   0.078999 0.319374 0.752321 -0.353004
H106  H     H_    0.117041 0.366906 0.780552 0.282393
H107  H     H_    0.094600 0.272110 0.723681 0.239968
C126  C     C_3   0.006357 0.346538 0.654672 -0.853411
H108  H     H_    0.970067 0.296503 0.617619 0.273221
H109  H     H_    0.008817 0.372203 0.591913 0.319354
H110  H     H_    0.985894 0.390806 0.679879 0.251771
O11   O     O_3   0.352192 0.772077 0.058415 -0.626866
C127  C     C_3   0.420224 0.792964 0.152483 0.226735
H111  H     H_    0.436695 0.842966 0.128557 0.134938
H112  H     H_    0.459477 0.747648 0.177275 0.117073
C128  C     C_3   0.421947 0.819358 0.248272 -0.351410
H113  H     H_    0.384073 0.867020 0.220681 0.280434
H114  H     H_    0.406568 0.772128 0.277284 0.238984
C129  C     C_3   0.494892 0.846266 0.345303 -0.846743
H115  H     H_    0.531193 0.796186 0.381372 0.272332
H116  H     H_    0.493144 0.871523 0.408999 0.326254
H117  H     H_    0.514886 0.890793 0.319661 0.245957
O12   O     O_3   0.656193 0.739182 0.984814 -0.649221
C130  C     C_3   0.597785 0.780894 0.896946 0.276603
H118  H     H_    0.550002 0.744753 0.853382 0.130391
H119  H     H_    0.606132 0.801212 0.838027 0.135005
C131  C     C_3   0.586336 0.851267 0.943624 -0.252065
H120  H     H_    0.582604 0.831983 0.007838 0.215552
H121  H     H_    0.631804 0.891008 0.982497 0.244095
C132  C     C_3   0.519494 0.894701 0.854978 -1.007481
H122  H     H_    0.519379 0.910340 0.785856 0.281236
H123  H     H_    0.515756 0.948582 0.889916 0.286812
H124  H     H_    0.473106 0.858232 0.823790 0.269625
O13   O     O_3   0.009179 0.846479 0.777606 -0.682071
C133  C     C_3   0.036729 0.807355 0.876429 0.247136
H125  H     H_    0.013609 0.834295 0.912026 0.114892
H126  H     H_    0.093971 0.815201 0.940531 0.148328
C134  C     C_3   0.014309 0.722016 0.853247 -0.374053
H127  H     H_    0.958529 0.717659 0.818228 0.220091
H128  H     H_    0.018184 0.698107 0.791190 0.217044
C135  C     C_3   0.059024 0.672953 0.957005 -0.885439
H129  H     H_    0.114216 0.672061 0.988791 0.296396
H130  H     H_    0.038964 0.612631 0.938522 0.271676
H131  H     H_    0.057375 0.696585 0.021309 0.268025
O14   O     O_3   0.988670 0.844807 0.219826 -0.676577
C136  C     C_3   0.952670 0.835808 0.106147 0.225075
H132  H     H_    0.974435 0.878343 0.081047 0.133016
H133  H     H_    0.895564 0.848504 0.053713 0.148633
C137  C     C_3   0.965774 0.754349 0.083781 -0.335526
H134  H     H_    0.019969 0.751374 0.111393 0.199051
H135  H     H_    0.961325 0.710800 0.131466 0.229207
C138  C     C_3   0.913829 0.733736 0.962578 -0.896686
H136  H     H_    0.860212 0.730186 0.937370 0.294582
H137  H     H_    0.927391 0.676455 0.948088 0.296090
H138  H     H_    0.914929 0.778017 0.912069 0.240319
O15   O     O_3   0.509714 0.341473 0.775077 -0.678980
C139  C     C_3   0.542799 0.335673 0.888129 0.225102
H139  H     H_    0.516343 0.376503 0.906863 0.130064
H140  H     H_    0.598869 0.353026 0.942979 0.159296
C140  C     C_3   0.533768 0.253506 0.914403 -0.330640
H141  H     H_    0.479217 0.246528 0.884196 0.198671
H142  H     H_    0.542251 0.210142 0.871212 0.233396
C141  C     C_3   0.584918 0.237069 0.037048 -0.904930
H143  H     H_    0.639329 0.237029 0.065233 0.292386
H144  H     H_    0.573862 0.179210 0.054155 0.295304
H145  H     H_    0.580061 0.281651 0.083223 0.243321
O16   O     O_3   0.490663 0.346438 0.222138 -0.681862
C142  C     C_3   0.462738 0.307853 0.122826 0.248063
H146  H     H_    0.485623 0.335122 0.087082 0.114381
H147  H     H_    0.405472 0.315889 0.059104 0.148088
C143  C     C_3   0.484981 0.222434 0.145075 -0.374439
H148  H     H_    0.540713 0.218010 0.179888 0.220229
H149  H     H_    0.481214 0.198098 0.207042 0.217126
C144  C     C_3   0.440024 0.173935 0.040824 -0.886690
H150  H     H_    0.384948 0.172792 0.009570 0.296861
H151  H     H_    0.460140 0.113639 0.058448 0.271306
H152  H     H_    0.441296 0.198268 0.976461 0.267949
Cl9   Cl    Cl    0.739765 0.126583 0.289646 -0.759044
Cl10  Cl    Cl    0.261387 0.123481 0.708830 -0.740761
Cl11  Cl    Cl    0.238970 0.624841 0.291426 -0.741706
Cl12  Cl    Cl    0.761586 0.622735 0.708947 -0.749967
Cl13  Cl    Cl    0.962312 0.089873 0.137647 -0.720192
Cl14  Cl    Cl    0.038443 0.093807 0.862912 -0.699425
Cl15  Cl    Cl    0.461480 0.593771 0.137043 -0.698050
Cl16  Cl    Cl    0.538722 0.587601 0.863429 -0.699773

loop_
_geom_bond_atom_site_label_1
_geom_bond_atom_site_label_2
_ccdc_geom_bond_type
N32   Ni7   S    
C144  H150  S    
C55   C59   D    
C1    C77   A    
N6    N10   A    
C126  H108  S    
C76   C79   A    
N7    Ni7   S    
C3    C79   A    
C39   C41   S    
C104  H58   S    
C56   C79   S    
O10   C124  S    
C29   C33   A    
N3    N16   A    
C50   H14   S    
C69   N9    A    
C48   N8    A    
C121  H97   S    
C17   C39   A    
C18   C40   A    
C14   C90   A    
C117  H88   S    
C19   C37   A    
N22   Ni6   S    
N19   N31   A    
C135  H129  S    
C137  C138  S    
N3    Ni3   S    
C47   C83   A    
C64   O12   S    
N5    N9    A    
C102  H54   S    
O3    C103  S    
C72   H28   S    
C75   O15   S    
C41   C49   S    
C53   H17   S    
C98   H44   S    
C131  H121  S    
C23   C84   S    
C2    N2    A    
C125  C126  S    
C139  H139  S    
C48   H24   S    
C15   C96   A    
C138  H137  S    
C62   C66   D    
C105  H59   S    
C17   C21   A    
C19   C23   A    
C110  H71   S    
C2    C78   A    
C95   N27   A    
C93   N25   A    
C63   O11   S    
O12   C130  S    
C56   H20   S    
C65   O5    S    
C123  H101  S    
N27   Ni4   S    
C72   C84   A    
C127  H111  S    
N7    N11   A    
C144  H152  S    
C9    C34   S    
N9    Ni2   S    
N15   Ni8   S    
C133  C134  S    
C45   C81   A    
C62   O10   S    
C118  H91   S    
C89   N21   A    
C58   Cl6   S    
C99   H46   S    
C13   C94   A    
C92   N24   A    
C53   C78   S    
C108  H66   S    
C124  H105  S    
C55   C80   S    
N26   Ni1   S    
C135  H131  S    
C85   Cl9   S    
C54   H18   S    
C86   N18   A    
O16   C142  S    
C70   C82   A    
C15   C91   A    
C138  H136  S    
C32   H4    S    
C103  H56   S    
C134  H127  S    
C90   Cl14  S    
N21   N26   A    
C125  H107  S    
C25   C31   A    
C71   N11   A    
C26   C32   A    
C47   N7    A    
C27   C29   A    
C142  H146  S    
C139  C140  S    
C6    H34   S    
C97   H41   S    
C142  C143  S    
C96   H32   S    
C64   C68   D    
C71   H27   S    
C126  H109  S    
C4    C80   A    
C110  C111  S    
C107  H65   S    
C132  H123  S    
N20   N32   A    
C14   C62   S    
O6    C112  S    
C100  H49   S    
C133  H126  S    
C9    C85   A    
C46   C82   A    
C67   O7    S    
C127  C128  S    
C11   C87   A    
C74   C77   A    
C70   N10   A    
C8    N32   A    
C14   C93   A    
C54   C77   S    
C134  C135  S    
C40   C42   S    
C122  H99   S    
C136  H133  S    
O5    C109  S    
C71   C83   A    
N2    N13   A    
C129  H116  S    
C25   H37   S    
C30   C34   A    
C137  H134  S    
C17   C49   S    
C116  C117  S    
C117  H89   S    
N29   Ni6   S    
N20   Ni4   S    
C96   N28   A    
C101  H51   S    
C43   Cl3   S    
C5    C9    A    
C26   H38   S    
C61   C65   D    
C70   H26   S    
C141  H144  S    
C8    C12   A    
C114  H82   S    
N8    Ni8   S    
C12   C35   S    
C120  H95   S    
C42   C50   S    
C51   H11   S    
C140  H142  S    
N1    N14   A    
C3    N3    A    
C89   Cl13  S    
C1    N1    A    
N11   Ni4   S    
C141  H145  S    
C45   H21   S    
C21   C25   A    
C10   C86   A    
C76   O16   S    
C18   C22   A    
C91   N23   A    
C24   C28   A    
O14   C136  S    
C119  H92   S    
C30   H2    S    
C109  H70   S    
C99   H47   S    
C130  C131  S    
C27   H39   S    
C122  H100  S    
C101  C102  S    
C59   C65   S    
C127  H112  S    
C113  H78   S    
C10   C33   S    
C121  H98   S    
C128  C129  S    
C106  C107  S    
C21   C82   S    
C135  H130  S    
C109  H69   S    
C112  C113  S    
N23   N28   A    
C42   Cl2   S    
C102  H53   S    
C6    N30   A    
C121  C122  S    
C123  H103  S    
C140  H141  S    
C119  C120  S    
C116  H85   S    
C46   N6    A    
C98   H43   S    
C108  H68   S    
C88   N20   A    
C24   C83   S    
C139  H140  S    
C54   C58   D    
C105  H60   S    
C76   N16   A    
C91   Cl15  S    
C114  H80   S    
N12   Ni3   S    
C46   H22   S    
N13   Ni6   S    
C7    N31   A    
N22   N25   A    
N16   Ni7   S    
C115  H84   S    
C44   Cl4   S    
C31   H3    S    
C7    H35   S    
N17   N29   A    
C5    H33   S    
C60   C66   S    
C144  H151  S    
C45   N5    A    
C74   O14   S    
C104  C105  S    
C130  H118  S    
C22   C81   S    
N10   Ni1   S    
O11   C127  S    
C53   C57   D    
C49   H9    S    
C102  H52   S    
C113  C114  S    
C33   C37   A    
C56   C60   D    
C37   C43   S    
C35   C39   A    
C128  H113  S    
N24   N27   A    
C38   C44   S    
C117  H87   S    
O15   C139  S    
N4    N15   A    
C58   C68   S    
C16   C92   A    
C73   O13   S    
C88   Cl12  S    
C31   C35   A    
C143  C144  S    
C32   C36   A    
C115  H83   S    
C18   C50   S    
C98   C99   S    
C131  H120  S    
N30   Ni5   S    
C73   N13   A    
C28   H40   S    
C137  H135  S    
C6    C10   A    
C138  H138  S    
C97   H42   S    
C142  H147  S    
C143  H149  S    
C52   H16   S    
C110  H72   S    
C101  H50   S    
N18   Ni2   S    
C43   C51   S    
C132  H122  S    
C86   Cl10  S    
C55   H19   S    
C111  H73   S    
C41   H5    S    
O8    C118  S    
C100  H48   S    
C43   H7    S    
C97   C98   S    
C69   C81   A    
C95   H31   S    
O1    C97   S    
C22   C26   A    
N17   Ni1   S    
C50   H10   S    
C61   O9    S    
N18   N30   A    
C41   Cl1   S    
N21   Ni5   S    
C131  C132  S    
C104  H57   S    
N2    Ni2   S    
C136  H132  S    
N8    N12   A    
C118  C119  S    
C44   H8    S    
N6    Ni6   S    
C99   H45   S    
C7    C11   A    
C129  H117  S    
C124  H104  S    
C11   C36   S    
C123  H102  S    
C124  C125  S    
C116  H86   S    
C4    O4    S    
C1    O1    S    
C20   C24   A    
C103  H55   S    
C134  H128  S    
C8    H36   S    
C3    O3    S    
C73   C78   A    
C23   C27   A    
C120  H94   S    
C94   N26   A    
N1    Ni1   S    
C115  C116  S    
C47   H23   S    
N4    Ni4   S    
N23   Ni7   S    
N5    Ni5   S    
N24   Ni8   S    
C57   C67   S    
C42   H6    S    
C111  H74   S    
C94   H30   S    
C63   C67   D    
C36   C40   A    
C126  H110  S    
C87   Cl11  S    
C75   N15   A    
C107  H64   S    
C132  H124  S    
C119  H93   S    
C114  H81   S    
C72   N12   A    
C111  H75   S    
C48   C84   A    
C66   O6    S    
O2    C100  S    
C130  H119  S    
C90   N22   A    
C100  C101  S    
C106  H62   S    
C133  H125  S    
N19   Ni3   S    
C4    N4    A    
C20   C38   A    
C69   H25   S    
N14   Ni5   S    
C113  H79   S    
O9    C121  S    
C59   Cl7   S    
C85   N17   A    
C60   Cl8   S    
C128  H114  S    
N25   Ni2   S    
C106  H63   S    
C2    O2    S    
C57   Cl5   S    
C143  H148  S    
C5    N29   A    
C112  H77   S    
C136  C137  S    
C87   N19   A    
C122  C123  S    
C118  H90   S    
C49   H13   S    
C75   C80   A    
C129  H115  S    
C16   C95   A    
C51   H15   S    
C13   C89   A    
C34   C38   A    
C74   N14   A    
C107  C108  S    
O7    C115  S    
C108  H67   S    
C109  C110  S    
C29   H1    S    
C125  H106  S    
C28   C30   A    
C20   C52   S    
C68   O8    S    
C105  H61   S    
C44   C52   S    
C141  H143  S    
C103  C104  S    
C93   H29   S    
O13   C133  S    
C120  H96   S    
C19   C51   S    
C13   C61   S    
C52   H12   S    
O4    C106  S    
C140  C141  S    
C15   C63   S    
C92   Cl16  S    
N28   Ni3   S    
C16   C64   S    
C112  H76   S    
C12   C88   A    
N31   Ni8   S    
