data_mof_unit_7571.cif
_audit_creation_date              2013-03-05T15:43:51-0500
_audit_creation_method            fapswitch 2.2
_symmetry_space_group_name_H-M    P1
_symmetry_Int_Tables_number       1
_space_group_crystal_system       triclinic
_cell_length_a                    10.019682
_cell_length_b                    10.641071
_cell_length_c                    15.489533
_cell_angle_alpha                 89.659313
_cell_angle_beta                  68.294611
_cell_angle_gamma                 87.97726
_cell_volume                      1533.40054026

loop_
_atom_site_label
_atom_site_type_symbol
_atom_site_description
_atom_site_fract_x
_atom_site_fract_y
_atom_site_fract_z
_atom_type_partial_charge
O1    O     O_R   0.386950 0.680940 0.500010 -0.633927
O2    O     O_R   0.613110 0.680900 0.499990 -0.616165
C1    C     C_R   0.492221 0.737596 0.509352 0.849878
O3    O     O_R   0.322330 0.500030 0.632270 -0.558484
O4    O     O_R   0.548480 0.499990 0.632240 -0.564145
C2    C     C_R   0.410562 0.497758 0.676716 0.914822
Zn1   Zn    Zn3+2 0.349000 0.500030 0.500020 1.015970
Zn2   Zn    Zn3+2 0.651000 0.499970 0.499980 1.061536
O5    O     O_R   0.386890 0.319100 0.500010 -0.591151
O6    O     O_R   0.613050 0.319060 0.499990 -0.535758
O7    O     O_R   0.451520 0.500010 0.367760 -0.625108
O8    O     O_R   0.677670 0.499970 0.367730 -0.583764
C3    C     C_R   0.501705 0.262046 0.501572 0.990926
C4    C     C_R   0.589372 0.497176 0.324027 0.865216
C5    C     C_R   0.356224 0.481608 0.779146 -0.223692
C6    C     C_R   0.641134 0.468000 0.224757 -0.064076
C7    C     C_R   0.159575 0.477823 0.929870 -0.279193
C8    C     C_R   0.206382 0.484154 0.833212 0.312456
C9    C     C_R   0.455494 0.461825 0.824739 -0.083559
C10   C     C_R   0.404015 0.430743 0.919761 0.032865
C11   C     C_R   0.257005 0.453436 0.973448 0.103658
C12   C     C_R   0.497939 0.392107 0.965086 -0.001964
C13   C     C_R   0.457411 0.418199 0.059964 0.066871
C14   C     C_R   0.310462 0.444939 0.113088 -0.194348
C15   C     C_R   0.210531 0.456049 0.070280 -0.172083
C16   C     C_R   0.627996 0.324170 0.919032 -0.131046
C17   C     C_R   0.730020 0.303286 0.960342 -0.087967
C18   C     C_R   0.702813 0.357699 0.048795 0.077133
C19   C     C_R   0.565514 0.416092 0.097924 0.100810
C20   C     C_R   0.807301 0.356736 0.090115 -0.216935
C21   C     C_R   0.775905 0.410368 0.177726 -0.154291
C22   C     C_R   0.540941 0.476378 0.182235 -0.231793
H1    H     H_    0.098275 0.474057 0.112630 0.144807
H2    H     H_    0.441916 0.529969 0.216878 0.153952
H3    H     H_    0.855193 0.403113 0.209670 0.192457
H4    H     H_    0.046102 0.491347 0.970922 0.174258
H5    H     H_    0.269805 0.451940 0.188023 0.147220
H6    H     H_    0.647173 0.282857 0.851696 0.252549
H7    H     H_    0.913380 0.314521 0.056584 0.130071
C23   C     C_2   0.567770 0.064959 0.557152 0.398459
C24   C     C_2   0.508220 0.128579 0.504216 -0.372222
H8    H     H_    0.465285 0.080205 0.459047 0.118457
C25   C     C_2   0.576327 0.929076 0.548665 -0.217531
C26   C     C_2   0.465403 0.865299 0.544367 -0.269151
H9    H     H_    0.681785 0.884191 0.533227 0.194790
C27   C     C_2   0.102082 0.414163 0.459042 -0.163788
N1    N     N_2   0.148330 0.498670 0.499030 -0.192113
H10   H     H_    0.177931 0.341201 0.419281 0.189424
H11   H     H_    0.075485 0.562860 0.542007 0.183979
C28   C     C_2   0.948775 0.408057 0.465442 0.366379
N2    N     N_2   0.852680 0.498640 0.499000 -0.211249
H12   H     H_    0.883986 0.580779 0.519025 0.135159
N3    N     N_R   0.622429 0.124390 0.620076 0.250281
O9    O     O_R   0.727527 0.070020 0.638039 -0.314150
O10   O     O_R   0.549162 0.216357 0.673568 -0.360389
C29   C     C_2   0.312902 0.915193 0.582301 0.459502
H13   H     H_    0.233774 0.876296 0.558478 0.098599
O11   O     O_2   0.273080 0.996048 0.643043 -0.489905
N4    N     N_R   0.911806 0.296918 0.428983 0.229948
O12   O     O_R   0.950051 0.187225 0.451420 -0.358023
O13   O     O_R   0.873196 0.305177 0.357745 -0.423726
C30   C     C_2   0.862043 0.225154 0.909382 0.519039
H14   H     H_    0.935948 0.194387 0.942025 0.044523
O14   O     O_2   0.888997 0.191222 0.829308 -0.450225
N5    N     N_R   0.099732 0.499174 0.792367 0.208780
O15   O     O_R   0.003099 0.590200 0.820633 -0.388305
O16   O     O_R   0.078271 0.406700 0.745019 -0.298421
C31   C     C_2   0.605876 0.505143 0.783000 0.470073
H15   H     H_    0.631607 0.594977 0.804569 0.073541
O17   O     O_2   0.701745 0.439329 0.728015 -0.469743

loop_
_geom_bond_atom_site_label_1
_geom_bond_atom_site_label_2
_geom_bond_distance
_ccdc_geom_bond_type
O4    Zn2   1.922382 S    
Zn1   O7    1.922381 S    
C13   C14   1.415288 A    
C14   C15   1.392125 A    
C30   H14   1.081226 S    
C17   C30   1.490640 S    
C6    C22   1.389838 A    
Zn1   N1    2.016934 S    
C24   H8    1.087230 S    
C27   C28   1.505971 S    
C5    C8    1.422523 A    
C9    C10   1.409439 A    
Zn2   O8    1.965405 S    
C7    C11   1.394067 A    
C18   C20   1.414417 A    
C7    C8    1.395603 A    
N4    O12   1.300845 A    
N1    H11   1.026290 S    
N3    O9    1.301103 A    
C29   H13   1.085112 S    
C8    N5    1.433362 S    
C5    C9    1.426674 A    
C25   H9    1.086580 S    
Zn2   N2    2.014755 S    
C18   C19   1.424309 A    
C16   C17   1.403535 A    
O4    C2    1.297210 A    
C11   C15   1.396503 A    
O3    Zn1   1.965408 S    
C28   N4    1.431210 S    
C13   C19   1.410198 A    
C21   H3    1.080691 S    
C3    C24   1.420465 S    
C23   C24   1.346633 D    
C7    H4    1.082821 S    
O8    C4    1.298816 A    
C20   H7    1.077965 S    
C28   N2    1.302537 D    
C19   C22   1.392338 A    
O2    C1    1.292943 A    
C29   O11   1.221639 D    
C25   C26   1.344913 D    
C20   C21   1.395367 A    
Zn2   O6    1.975382 S    
O7    C4    1.293377 A    
C4    C6    1.460888 S    
C1    C26   1.445040 S    
N4    O13   1.298902 A    
N5    O15   1.301028 A    
C10   C12   1.416156 A    
N3    O10   1.300830 A    
N2    H12   1.026211 S    
C27   H10   1.085125 S    
C9    C31   1.491906 S    
O5    C3    1.289856 A    
C10   C11   1.410955 A    
O3    C2    1.305588 A    
C23   N3    1.440999 S    
C12   C16   1.407722 A    
C17   C18   1.417313 A    
Zn1   O5    1.949162 S    
C31   O17   1.221891 D    
C26   C29   1.498095 S    
C27   N1    1.286612 D    
C16   H6    1.081338 S    
C30   O14   1.221620 D    
C14   H5    1.080691 S    
O1    C1    1.286783 A    
C2    C5    1.485823 S    
O1    Zn1   1.975382 S    
C6    C21   1.396243 A    
C23   C25   1.449328 S    
O2    Zn2   1.949160 S    
C12   C13   1.399012 A    
C15   H1    1.082898 S    
C31   H15   1.084802 S    
N5    O16   1.300991 A    
O6    C3    1.280904 A    
C22   H2    1.080503 S    
