data_mof_unit_36213.cif
_audit_creation_date              2012-12-11T15:09:33-0500
_audit_creation_method            fapswitch 2.2
_symmetry_space_group_name_H-M    P1
_symmetry_Int_Tables_number       1
_space_group_crystal_system       triclinic
_cell_length_a                    20.949928
_cell_length_b                    7.126973
_cell_length_c                    14.061808
_cell_angle_alpha                 90.001334
_cell_angle_beta                  98.175342
_cell_angle_gamma                 90.000302
_cell_volume                      2078.22576326

loop_
_atom_site_label
_atom_site_type_symbol
_atom_type_description
_atom_site_fract_x
_atom_site_fract_y
_atom_site_fract_z
_atom_type_partial_charge
O1    O     O_R   0.447130 0.507140 0.597350 -0.545648
O2    O     O_R   0.552870 0.007140 0.402650 -0.545649
O3    O     O_R   0.578910 0.181280 0.586990 -0.542018
O4    O     O_R   0.421090 0.681280 0.413010 -0.542017
C1    C     C_R   0.604609 0.344469 0.607123 0.727077
C2    C     C_R   0.395391 0.844466 0.392876 0.727079
O5    O     O_R   0.449230 0.177860 0.608640 -0.529382
O6    O     O_R   0.550770 0.677860 0.391360 -0.529386
O7    O     O_R   0.422260 0.000770 0.424450 -0.539234
O8    O     O_R   0.577740 0.500770 0.575550 -0.539232
C3    C     C_R   0.432682 0.346362 0.634227 0.759964
C4    C     C_R   0.567317 0.846360 0.365772 0.759966
O9    O     O_3   0.491310 0.336980 0.439550 -0.377201
O10   O     O_3   0.508690 0.836980 0.560450 -0.377200
V1    V     V_3+5 0.501610 0.064760 0.511210 1.431271
V2    V     V_3+5 0.498390 0.564760 0.488790 1.431275
C5    C     C_R   0.620671 0.890149 0.124660 0.376147
C6    C     C_R   0.379325 0.390172 0.875339 0.376150
H1    H     H_    0.531804 0.920148 0.181513 0.150354
H2    H     H_    0.468191 0.420194 0.818485 0.150354
H3    H     H_    0.708040 0.891742 0.999009 0.131075
H4    H     H_    0.291955 0.391751 0.000989 0.131073
C7    C     C_R   0.610111 0.856306 0.292673 -0.135290
C8    C     C_R   0.389887 0.356309 0.707326 -0.135294
C9    C     C_R   0.923267 0.875520 0.307551 0.255910
C10   C     C_R   0.076729 0.375472 0.692439 0.255978
C11   C     C_R   0.885456 0.891280 0.381360 0.314697
C12   C     C_R   0.114545 0.391243 0.618632 0.314729
C13   C     C_R   0.818337 0.891718 0.359749 -0.321967
C14   C     C_R   0.181664 0.391673 0.640249 -0.322016
C15   C     C_R   0.786572 0.858536 0.266069 0.069097
C16   C     C_R   0.213425 0.358498 0.733929 0.069116
C17   C     C_R   0.824743 0.854794 0.190451 0.030925
C18   C     C_R   0.175253 0.354768 0.809545 0.030915
C19   C     C_R   0.717741 0.848206 0.244491 -0.008137
C20   C     C_R   0.282257 0.348181 0.755509 -0.008134
C21   C     C_R   0.688544 0.869255 0.146802 -0.002375
C22   C     C_R   0.311452 0.369252 0.853197 -0.002376
C23   C     C_R   0.727743 0.873865 0.073747 -0.170351
C24   C     C_R   0.272252 0.373862 0.926251 -0.170349
C25   C     C_R   0.794139 0.858164 0.094886 -0.153025
C26   C     C_R   0.205857 0.358151 0.905110 -0.153020
C27   C     C_R   0.676644 0.820479 0.316194 0.223387
C28   C     C_R   0.323356 0.320455 0.683807 0.223389
C29   C     C_R   0.583300 0.896601 0.198631 -0.226371
C30   C     C_R   0.416696 0.396627 0.801367 -0.226368
C31   C     C_R   0.892908 0.861055 0.211706 -0.203770
C32   C     C_R   0.107088 0.361030 0.788287 -0.203757
H5    H     H_    0.792113 0.929934 0.416882 0.171810
H6    H     H_    0.207890 0.429886 0.583120 0.171775
H7    H     H_    0.821463 0.859420 0.035072 0.116325
H8    H     H_    0.178532 0.359411 0.964923 0.116328
C33   C     C_1   0.166332 0.857066 0.169036 -0.193430
C34   C     C_1   0.833667 0.357060 0.830965 -0.193416
C35   C     C_1   0.218626 0.854815 0.220374 -0.000908
C36   C     C_1   0.781373 0.354812 0.779627 -0.000903
C37   C     C_1   0.280380 0.853389 0.280399 0.002266
C38   C     C_1   0.719619 0.353392 0.719601 0.002264
C39   C     C_1   0.332822 0.851066 0.331353 -0.194346
C40   C     C_1   0.667178 0.351072 0.668646 -0.194343
O11   O     O_R   0.922300 0.202240 0.924350 -0.534632
O12   O     O_R   0.077700 0.702240 0.075650 -0.534610
O13   O     O_R   0.050780 0.535130 0.891350 -0.544683
O14   O     O_R   0.949220 0.035130 0.108650 -0.544693
C41   C     C_R   0.067444 0.368181 0.865794 0.721891
C42   C     C_R   0.932553 0.868185 0.134201 0.721871
O15   O     O_R   0.921100 0.531560 0.912990 -0.539245
O16   O     O_R   0.078900 0.031560 0.087010 -0.539258
O17   O     O_R   0.947120 0.708470 0.097370 -0.539165
O18   O     O_R   0.052880 0.208470 0.902630 -0.539172
C43   C     C_R   0.895964 0.363524 0.893175 0.718815
C44   C     C_R   0.104036 0.863526 0.106827 0.718850
O19   O     O_3   0.008710 0.375800 0.060400 -0.377257
O20   O     O_3   0.991290 0.875800 0.939600 -0.377254
V3    V     V_3+5 0.998380 0.648080 0.988790 1.405042
V4    V     V_3+5 0.001620 0.148080 0.011210 1.405010
O21   O     O_3   0.589008 0.909593 0.032291 -0.629028
H9    H     H_    0.608541 0.821253 0.990432 0.286591
O22   O     O_3   0.410987 0.409641 0.967708 -0.629029
H10   H     H_    0.391457 0.321302 0.009569 0.286591
N1    N     N_2   0.698879 0.726186 0.404728 -0.530665
H11   H     H_    0.736349 0.632227 0.405045 0.263419
C45   C     C_3   0.695170 0.823441 0.494605 -0.535068
H12   H     H_    0.742245 0.815106 0.542037 0.172724
H13   H     H_    0.658546 0.755178 0.532503 0.221844
H14   H     H_    0.682542 0.973938 0.482578 0.188628
N2    N     N_2   0.301123 0.226138 0.595276 -0.530652
H15   H     H_    0.263655 0.132171 0.594964 0.263422
C46   C     C_3   0.304827 0.323378 0.505395 -0.535085
H16   H     H_    0.257751 0.315024 0.457967 0.172761
H17   H     H_    0.341452 0.255119 0.467497 0.221848
H18   H     H_    0.317451 0.473880 0.517417 0.188616
N3    N     N_2   0.991436 0.894849 0.329804 -0.504994
H19   H     H_    0.010589 0.996955 0.290269 0.243524
C47   C     C_3   0.026943 0.720763 0.332147 -0.545851
H20   H     H_    0.078375 0.747889 0.359996 0.188576
H21   H     H_    0.024230 0.660163 0.259050 0.192225
H22   H     H_    0.007364 0.617886 0.379528 0.225495
N4    N     N_2   0.008562 0.394848 0.670184 -0.504934
H23   H     H_    0.989434 0.497116 0.709655 0.243555
C48   C     C_3   0.973022 0.220837 0.667979 -0.546141
H24   H     H_    0.921604 0.247967 0.640048 0.188619
H25   H     H_    0.975680 0.160543 0.741125 0.192300
H26   H     H_    0.992608 0.117702 0.620742 0.225285
N5    N     N_2   0.914921 0.921548 0.477434 -0.502221
H27   H     H_    0.893909 0.030909 0.509589 0.243955
C49   C     C_3   0.919178 0.754774 0.536641 -0.513536
H28   H     H_    0.945549 0.787847 0.608841 0.190598
H29   H     H_    0.945749 0.642130 0.504484 0.238278
H30   H     H_    0.870156 0.703603 0.545055 0.177867
N6    N     N_2   0.085089 0.421547 0.522554 -0.502282
H31   H     H_    0.106202 0.530630 0.490333 0.243907
C50   C     C_3   0.080644 0.254668 0.463411 -0.513297
H32   H     H_    0.054325 0.287828 0.391189 0.190527
H33   H     H_    0.053930 0.142399 0.495596 0.238424
H34   H     H_    0.129607 0.202954 0.455038 0.177911

loop_
_geom_bond_atom_site_label_1
_geom_bond_atom_site_label_2
_ccdc_geom_bond_type
C14   C16   A    
N2    H15   S    
O13   C41   A    
C9    N3    S    
N3    H19   S    
C7    C29   A    
C11   C13   A    
O19   V3    S    
C47   H20   S    
O1    C3    A    
O2    C4    A    
C2    O7    A    
N1    H11   S    
C47   H22   S    
C23   C25   A    
C13   H5    S    
O21   H9    S    
O15   V3    S    
O5    C3    A    
N5    C49   S    
C4    C7    S    
C48   H24   S    
O20   V4    S    
C45   H12   S    
C16   C20   A    
C19   C21   A    
C5    C29   A    
C37   C39   T    
C42   O17   A    
C11   N5    S    
C38   C40   T    
C41   O18   A    
C3    C8    S    
C7    C27   A    
O6    V2    S    
C34   C43   S    
N6    H31   S    
C6    O22   S    
C18   C26   A    
C49   H28   S    
C15   C17   A    
C32   C41   S    
C46   H17   S    
C28   N2    S    
C19   C27   A    
C9    C31   A    
C31   C42   S    
C10   C32   A    
C10   N4    S    
C50   H34   S    
O11   C43   A    
C24   C26   A    
C14   H6    S    
C12   N6    S    
C13   C15   A    
C49   H29   S    
C6    C30   A    
N1    C45   S    
C33   C35   T    
O11   V4    S    
C34   C36   T    
O20   V3    S    
O4    C2    A    
H1    C29   S    
O14   C42   A    
O4    V2    S    
N4    H23   S    
H3    C23   S    
O16   C44   A    
H4    C24   S    
C5    O21   S    
O14   V4    S    
O12   C44   A    
N6    C50   S    
O1    V2    S    
C5    C21   A    
C46   H18   S    
O2    V1    S    
N4    C48   S    
C8    C28   A    
C48   H26   S    
C35   C37   S    
O18   V4    S    
C17   C31   A    
C49   H30   S    
C15   C19   A    
O12   V3    S    
C20   C28   A    
C9    C11   A    
C20   C22   A    
O3    V1    S    
C50   H32   S    
C48   H25   S    
C1    C40   S    
C45   H13   S    
C2    C39   S    
O3    C1    A    
C47   H21   S    
O16   V4    S    
N5    H27   S    
C10   C12   A    
C8    C30   A    
C12   C14   A    
C6    C22   A    
C17   C25   A    
C1    O8    A    
C21   C23   A    
O8    V2    S    
C22   C24   A    
O13   V3    S    
C27   N1    S    
O5    V1    S    
O19   V4    S    
C36   C38   S    
O17   V3    S    
O15   C43   A    
O7    V1    S    
O22   H10   S    
C45   H14   S    
C18   C32   A    
N3    C47   S    
O9    V2    S    
C26   H8    S    
N2    C46   S    
O10   V1    S    
C46   H16   S    
C33   C44   S    
C25   H7    S    
H2    C30   S    
O6    C4    A    
C16   C18   A    
C50   H33   S    
