data_mof_unit_43167.cif
_audit_creation_date              2012-12-11T16:17:54-0500
_audit_creation_method            fapswitch 2.2
_symmetry_space_group_name_H-M    P1
_symmetry_Int_Tables_number       1
_space_group_crystal_system       triclinic
_cell_length_a                    14.046771
_cell_length_b                    14.066397
_cell_length_c                    30.088829
_cell_angle_alpha                 97.105162
_cell_angle_beta                  97.00082
_cell_angle_gamma                 61.286291
_cell_volume                      5160.72259997

loop_
_atom_site_label
_atom_site_type_symbol
_atom_type_description
_atom_site_fract_x
_atom_site_fract_y
_atom_site_fract_z
_atom_type_partial_charge
C1    C     C_R   0.385621 0.711056 0.442223 0.566562
C2    C     C_R   0.371468 0.236855 0.222687 -0.105020
C3    C     C_R   0.379189 0.244203 0.269519 -0.101991
C4    C     C_R   0.326069 0.345552 0.293284 0.033325
C5    C     C_R   0.311109 0.330850 0.199462 0.034342
C6    C     C_1   0.300193 0.320467 0.151375 -0.035175
C7    C     C_1   0.343766 0.354210 0.341199 -0.053982
C8    C     C_1   0.290140 0.303043 0.111429 0.016698
C9    C     C_R   0.765568 0.368637 0.400532 0.017908
C10   C     C_R   0.769120 0.276809 0.374588 -0.123890
C11   C     C_R   0.795329 0.257562 0.330050 -0.105290
C12   C     C_R   0.398916 0.381225 0.426445 0.545712
C13   C     C_R   0.819031 0.329241 0.311411 0.038128
C14   C     C_R   0.824515 0.415481 0.337926 -0.108558
C15   C     C_R   0.798283 0.435013 0.382442 -0.117254
C16   C     C_R   0.805806 0.401230 0.154943 -0.098514
C17   C     C_R   0.829551 0.393753 0.110328 0.204504
C18   C     C_R   0.922817 0.196188 0.111309 -0.158384
C19   C     C_R   0.897549 0.205094 0.155255 -0.117050
C20   C     C_R   0.843015 0.307307 0.177527 -0.005974
C21   C     C_1   0.833179 0.315011 0.224557 -0.007968
C22   C     C_1   0.827672 0.320538 0.264248 -0.009456
C23   C     C_R   0.709983 0.405665 0.442456 0.534323
C24   C     C_R   0.894644 0.289653 0.089026 0.009250
C25   C     C_R   0.365419 0.764882 0.400320 0.001347
C26   C     C_R   0.433010 0.806246 0.388663 0.047277
C27   C     C_R   0.431452 0.823481 0.343491 -0.121162
C28   C     C_R   0.361296 0.804472 0.311022 0.007801
C29   C     C_R   0.287688 0.774464 0.323302 -0.101652
C30   C     C_R   0.289380 0.755117 0.367531 -0.153012
C31   C     C_R   0.263988 0.821958 0.150916 0.288528
C32   C     C_R   0.240273 0.854961 0.107161 -0.094490
C33   C     C_R   0.391654 0.894989 0.116031 -0.110079
C34   C     C_R   0.389706 0.711435 0.568286 0.563658
C35   C     C_R   0.415019 0.863428 0.159752 -0.146996
C36   C     C_R   0.349126 0.831047 0.177816 0.025036
C37   C     C_1   0.361360 0.819883 0.225054 0.054732
C38   C     C_1   0.364525 0.813400 0.264586 0.027041
C39   C     C_R   0.300966 0.895873 0.090121 -0.027166
C40   C     C_R   0.360258 0.363239 0.590741 0.032588
C41   C     C_R   0.417386 0.263700 0.610571 -0.071837
C42   C     C_R   0.392022 0.254059 0.652618 -0.036137
C43   C     C_R   0.309321 0.343514 0.674858 0.048305
C44   C     C_R   0.246532 0.439956 0.653870 -0.118705
C45   C     C_R   0.401634 0.383172 0.552176 0.560875
C46   C     C_R   0.271283 0.449659 0.611812 -0.114431
C47   C     C_R   0.233628 0.411829 0.834906 -0.141933
C48   C     C_R   0.228724 0.400201 0.879997 0.199369
C49   C     C_R   0.376188 0.214997 0.871077 -0.166482
C50   C     C_R   0.382731 0.227133 0.826392 0.044824
C51   C     C_R   0.306822 0.325346 0.807876 -0.036624
C52   C     C_1   0.299911 0.336711 0.760816 0.030414
C53   C     C_1   0.300042 0.341086 0.721313 0.035965
C54   C     C_R   0.296366 0.297872 0.897647 -0.018177
C55   C     C_1   0.761409 0.376987 0.612546 0.040162
C56   C     C_R   0.713077 0.407781 0.568476 0.553388
C57   C     C_R   0.911324 0.323267 0.719604 -0.153704
C58   C     C_R   0.932825 0.308639 0.765470 -0.109804
C59   C     C_R   0.756678 0.318585 0.768759 -0.087860
C60   C     C_R   0.734061 0.333557 0.722669 0.264499
C61   C     C_R   0.812319 0.335981 0.697993 0.029301
C62   C     C_R   0.855476 0.306719 0.790118 -0.002191
C63   C     C_1   0.878644 0.293619 0.837476 -0.026974
C64   C     C_1   0.789647 0.356042 0.651096 0.019369
C65   C     C_1   0.906158 0.282654 0.876793 0.021769
C66   C     C_1   0.376124 0.757763 0.613692 0.010149
C67   C     C_1   0.365086 0.363948 0.380851 -0.007024
C68   C     C_R   0.364019 0.726812 0.726239 -0.092242
C69   C     C_R   0.352637 0.747357 0.772459 -0.101520
C70   C     C_R   0.331693 0.927647 0.768325 -0.085112
C71   C     C_R   0.343210 0.907045 0.722076 -0.100723
C72   C     C_R   0.358562 0.806819 0.700903 0.037592
C73   C     C_R   0.335881 0.848040 0.793552 0.044377
C74   C     C_1   0.316094 0.873282 0.840406 -0.033483
C75   C     C_1   0.367437 0.784815 0.653196 -0.036016
C76   C     C_1   0.294435 0.902574 0.878897 0.009459
C77   C     C_R   0.949616 0.273374 0.047865 0.564340
C78   C     C_R   0.264954 0.439660 0.270099 -0.096302
C79   C     C_R   0.275231 0.270136 0.065453 0.554772
C80   C     C_R   0.260864 0.954005 0.048849 0.548560
C81   C     C_R   0.952334 0.269146 0.922113 0.551398
C82   C     C_R   0.276717 0.266198 0.939415 0.569027
C83   C     C_R   0.261630 0.950887 0.922882 0.553673
C84   C     C_R   0.256916 0.432232 0.223154 -0.079360
Cr1   Cr    Cr6+3 0.581000 0.584320 0.508140 1.082924
Cr2   Cr    Cr6+3 0.339110 0.576430 0.496080 1.032532
Cr3   Cr    Cr6+3 0.579910 0.339270 0.495810 1.053533
Cr4   Cr    Cr6+3 0.082090 0.079210 0.982490 1.065347
Cr5   Cr    Cr6+3 0.082460 0.324610 0.994920 1.189384
Cr6   Cr    Cr6+3 0.323630 0.087860 0.996130 1.061413
H1    H     H_    0.224906 0.518647 0.288283 0.121889
H2    H     H_    0.925712 0.132089 0.172603 0.160973
H3    H     H_    0.971639 0.115306 0.096029 0.159369
H4    H     H_    0.791544 0.190282 0.309565 0.125927
H5    H     H_    0.170882 0.854322 0.087313 0.192496
H6    H     H_    0.231932 0.761359 0.298257 0.173679
H7    H     H_    0.235902 0.724833 0.375209 0.144779
H8    H     H_    0.480923 0.869957 0.180268 0.129663
H9    H     H_    0.440337 0.925499 0.103694 0.161501
H10   H     H_    0.208757 0.505053 0.205415 0.164970
H11   H     H_    0.484939 0.851300 0.333467 0.149997
H12   H     H_    0.178301 0.487947 0.820381 0.159493
H13   H     H_    0.182690 0.509575 0.671053 0.114449
H14   H     H_    0.225285 0.527340 0.597306 0.137366
H15   H     H_    0.485786 0.195752 0.594999 0.152665
H16   H     H_    0.431048 0.137477 0.884548 0.197948
H17   H     H_    0.441240 0.179165 0.668935 0.166718
H18   H     H_    0.971535 0.325662 0.701072 0.118135
H19   H     H_    0.412524 0.157899 0.204565 0.114489
H20   H     H_    0.009590 0.299567 0.781819 0.128538
H21   H     H_    0.697616 0.316527 0.788100 0.157511
H22   H     H_    0.375727 0.649015 0.710149 0.154698
H23   H     H_    0.355188 0.685595 0.791537 0.117095
H24   H     H_    0.317790 0.006210 0.784299 0.135838
H25   H     H_    0.338879 0.969422 0.702852 0.118032
H26   H     H_    0.427818 0.171256 0.287165 0.118144
H27   H     H_    0.761366 0.480196 0.172604 0.150806
H28   H     H_    0.843450 0.470865 0.323571 0.121387
H29   H     H_    0.796764 0.506051 0.401667 0.148669
H30   H     H_    0.744575 0.224116 0.387637 0.136770
O1    O     O_R   0.688580 0.499770 0.460490 -0.512123
O2    O     O_R   0.348600 0.476260 0.536540 -0.506790
O3    O     O_R   0.494840 0.313840 0.539010 -0.493208
O4    O     O_R   0.672120 0.351750 0.545910 -0.477064
O5    O     O_3   0.500010 0.500010 0.500010 -0.257732
O6    O     O_R   0.167510 0.972920 0.030390 -0.508977
O7    O     O_R   0.990840 0.178580 0.027590 -0.517077
O8    O     O_R   0.972840 0.345510 0.038590 -0.428477
O9    O     O_R   0.181550 0.320660 0.045200 -0.475314
O10   O     O_R   0.346150 0.177650 0.050510 -0.508648
O11   O     O_R   0.314200 0.996600 0.036060 -0.496446
O12   O     O_R   0.480400 0.672610 0.462660 -0.461698
O13   O     O_R   0.168690 0.969990 0.933130 -0.490005
O14   O     O_R   0.991920 0.175870 0.937430 -0.498842
O15   O     O_R   0.974010 0.342590 0.941330 -0.451423
O16   O     O_R   0.182630 0.317940 0.955040 -0.429530
O17   O     O_R   0.347320 0.174720 0.953250 -0.521968
O18   O     O_R   0.315290 0.993890 0.945900 -0.488079
O19   O     O_3   0.162730 0.163890 0.991180 -0.291579
O20   O     O_R   0.315310 0.685650 0.451800 -0.522881
O21   O     O_R   0.346220 0.474990 0.446280 -0.500343
O22   O     O_R   0.492270 0.312460 0.441630 -0.506976
O23   O     O_R   0.669740 0.350480 0.455640 -0.507625
O24   O     O_R   0.691150 0.501150 0.557860 -0.507360
O25   O     O_R   0.482790 0.673890 0.552920 -0.475660
O26   O     O_R   0.317880 0.687030 0.549170 -0.509212
S1    S     S_3+6 0.181439 0.777289 0.172218 -0.009853
O27   O     O_2   0.252634 0.675635 0.195958 -0.306877
O28   O     O_2   0.109021 0.864458 0.205012 -0.306265
O29   O     O_3   0.104232 0.751510 0.130306 -0.506846
H31   H     H_    0.063916 0.723883 0.144975 0.373146
C85   C     C_2   0.504547 0.833409 0.422276 0.581270
O30   O     O_2   0.478723 0.864715 0.460859 -0.509634
O31   O     O_R   0.599857 0.827107 0.409343 -0.713945
H32   H     H_    0.641161 0.848695 0.435027 0.340687
S2    S     S_3+6 0.138004 0.515653 0.912423 0.050476
O32   O     O_2   0.032789 0.512289 0.912734 -0.205657
O33   O     O_2   0.185767 0.516988 0.959871 -0.254160
O34   O     O_3   0.112008 0.630201 0.889975 -0.494635
H33   H     H_    0.182826 0.630574 0.892640 0.340484
C86   C     C_2   0.466832 0.133977 0.799977 0.572819
O35   O     O_2   0.497936 0.148632 0.766474 -0.477421
O36   O     O_R   0.512451 0.028841 0.814133 -0.709927
H34   H     H_    0.568367 0.972443 0.793553 0.353659
S3    S     S_3+6 0.608510 0.347643 0.696581 0.002463
O37   O     O_2   0.549592 0.451799 0.673492 -0.321844
O38   O     O_2   0.630885 0.254052 0.662030 -0.252026
O39   O     O_3   0.529690 0.347417 0.734359 -0.494918
H35   H     H_    0.497423 0.421753 0.749412 0.331636
S4    S     S_3+6 0.777263 0.515655 0.083140 0.049441
O40   O     O_2   0.745198 0.497133 0.034637 -0.213259
O41   O     O_2   0.679057 0.603932 0.105252 -0.279887
O42   O     O_3   0.873161 0.555715 0.086138 -0.460182
H36   H     H_    0.894417 0.561058 0.118603 0.326524

loop_
_geom_bond_atom_site_label_1
_geom_bond_atom_site_label_2
_ccdc_geom_bond_type
C58   C62   A    
C55   C56   S    
C63   C65   T    
C2    H19   S    
S3    O37   D    
Cr5   O15   S    
C11   C13   A    
C41   C42   A    
Cr1   O5    S    
C35   C36   A    
Cr3   O5    S    
C1    O12   A    
C34   C66   S    
Cr6   O19   S    
C81   O14   A    
C23   O1    A    
O42   H36   S    
C70   H24   S    
C40   C46   A    
C30   H7    S    
C69   H23   S    
C26   C27   A    
C33   C39   A    
C41   H15   S    
C18   C24   A    
C56   O4    A    
C28   C29   A    
S1    O28   D    
Cr1   O25   S    
Cr4   O13   S    
Cr4   O7    S    
C3    H26   S    
C4    C7    S    
Cr1   O12   S    
C68   H22   S    
Cr3   O4    S    
C34   O25   A    
S4    O40   D    
C49   C54   A    
C79   O9    A    
Cr5   O9    S    
C12   O21   A    
Cr1   O24   S    
C7    C67   T    
C18   C19   A    
C73   C74   S    
C32   C39   A    
Cr4   O6    S    
C19   H2    S    
S1    O27   D    
Cr6   O18   S    
C43   C53   S    
C31   C32   A    
C15   H29   S    
C16   C17   A    
Cr5   O19   S    
Cr2   O2    S    
C8    C79   S    
C59   H21   S    
Cr1   O1    S    
C70   C71   A    
C35   H8    S    
C42   H17   S    
C31   C36   A    
C77   O7    A    
C68   C72   A    
C31   S1    S    
C48   S2    S    
C59   C60   A    
S3    O38   D    
C47   H12   S    
C21   C22   T    
Cr2   O5    S    
C1    C25   S    
C23   O23   A    
C70   C73   A    
C72   C75   S    
Cr2   O26   S    
C76   C83   S    
C86   O36   S    
C44   H13   S    
C44   C46   A    
C81   O15   A    
C40   C45   S    
C12   C67   S    
C17   C24   A    
C51   C52   S    
C84   H10   S    
C47   C48   A    
O39   H35   S    
S1    O29   S    
C80   O11   A    
C5    C84   A    
C17   S4    S    
C68   C69   A    
C47   C51   A    
C14   H28   S    
C25   C26   A    
C79   O10   A    
C46   H14   S    
C27   H11   S    
C45   O3    A    
C60   C61   A    
C33   H9    S    
Cr6   O10   S    
C61   C64   S    
C48   C54   A    
C43   C44   A    
Cr4   O19   S    
C4    C78   A    
C37   C38   T    
C65   C81   S    
O34   H33   S    
C28   C38   S    
C16   C20   A    
C55   C64   T    
C57   H18   S    
C62   C63   S    
C50   C51   A    
C71   H25   S    
C20   C21   S    
C69   C73   A    
C1    O20   A    
O31   H32   S    
C77   O8    A    
C74   C76   T    
Cr6   O11   S    
C11   H4    S    
C40   C41   A    
C85   O31   S    
S3    O39   S    
C45   O2    A    
C2    C5    A    
C42   C43   A    
C3    C4    A    
C54   C82   S    
Cr6   O17   S    
C52   C53   T    
C9    C10   A    
C25   C30   A    
S2    O32   D    
C59   C62   A    
C58   H20   S    
S2    O34   S    
C9    C23   S    
C29   H6    S    
C6    C8    T    
C57   C61   A    
C49   H16   S    
Cr2   O20   S    
C78   H1    S    
C82   O17   A    
C60   S3    S    
O29   H31   S    
C39   C80   S    
C19   C20   A    
S2    O33   D    
C2    C3    A    
C9    C15   A    
Cr4   O14   S    
C71   C72   A    
C86   O35   D    
C16   H27   S    
Cr3   O3    S    
C34   O26   A    
C57   C58   A    
C5    C6    S    
C80   O6    A    
C66   C75   T    
C26   C85   S    
C33   C35   A    
C12   O22   A    
C13   C22   S    
Cr3   O22   S    
C82   O16   A    
C83   O13   A    
O36   H34   S    
C10   H30   S    
C10   C11   A    
C29   C30   A    
C56   O24   A    
C78   C84   A    
C24   C77   S    
C32   H5    S    
C85   O30   D    
C36   C37   S    
C49   C50   A    
C27   C28   A    
Cr5   O16   S    
C18   H3    S    
C14   C15   A    
S4    O41   D    
Cr3   O23   S    
C13   C14   A    
Cr5   O8    S    
C83   O18   A    
Cr2   O21   S    
C50   C86   S    
S4    O42   S    
