data_mof_unit_28196.cif
_audit_creation_date              2013-03-05T15:42:04-0500
_audit_creation_method            fapswitch 2.2
_symmetry_space_group_name_H-M    P1
_symmetry_Int_Tables_number       1
_space_group_crystal_system       triclinic
_cell_length_a                    7.757534
_cell_length_b                    8.615282
_cell_length_c                    15.621456
_cell_angle_alpha                 88.600539
_cell_angle_beta                  90.713063
_cell_angle_gamma                 93.426438
_cell_volume                      1041.79377895

loop_
_atom_site_label
_atom_site_type_symbol
_atom_site_description
_atom_site_fract_x
_atom_site_fract_y
_atom_site_fract_z
_atom_type_partial_charge
O1    O     O_R   0.389250 0.738570 0.505570 -0.610288
O2    O     O_R   0.610750 0.261430 0.494430 -0.611311
O3    O     O_R   0.678390 0.711630 0.491020 -0.629746
O4    O     O_R   0.321610 0.288370 0.508980 -0.631389
C1    C     C_R   0.545573 0.794505 0.497720 0.962271
C2    C     C_R   0.454431 0.205495 0.502304 0.960760
O5    O     O_R   0.355460 0.513480 0.630490 -0.611540
O6    O     O_R   0.644540 0.486520 0.369510 -0.607957
O7    O     O_R   0.644600 0.486540 0.615950 -0.618453
O8    O     O_R   0.355400 0.513460 0.384050 -0.617066
C3    C     C_R   0.509375 0.496049 0.662055 0.891747
C4    C     C_R   0.490623 0.503894 0.337936 0.900538
Zn1   Zn    Zn3+2 0.306940 0.517990 0.509710 0.959822
Zn2   Zn    Zn3+2 0.693060 0.482010 0.490290 0.962009
C5    C     C_2   0.569311 0.958062 0.496538 -0.361928
C6    C     C_2   0.430698 0.041938 0.503519 -0.361827
C7    C     C_3   0.433130 0.635099 0.008909 0.027931
C8    C     C_3   0.569317 0.358926 0.991490 0.049365
C9    C     C_3   0.613836 0.611834 0.974448 0.295327
C10   C     C_3   0.388160 0.381202 0.026059 0.282927
C11   C     C_1   0.533866 0.483083 0.750936 -0.146142
C12   C     C_1   0.466001 0.515217 0.248997 -0.146405
C13   C     C_3   0.356501 0.501281 0.953368 0.077122
C14   C     C_3   0.644246 0.492616 0.046917 0.097200
C15   C     C_3   0.539141 0.478509 0.917972 -0.108006
C16   C     C_3   0.462167 0.515329 0.081988 -0.131239
N1    N     N_2   0.950320 0.457950 0.477300 -0.173728
N2    N     N_2   0.049680 0.542050 0.522700 -0.175050
H1    H     H_    0.700295 0.008993 0.489941 0.183688
H2    H     H_    0.299715 0.991007 0.510122 0.183746
C17   C     C_1   0.549002 0.474904 0.826520 0.079948
C18   C     C_1   0.451130 0.521371 0.173366 0.044212
H3    H     H_    0.011780 0.386098 0.437459 0.203487
H4    H     H_    0.988223 0.613866 0.562563 0.202895
N3    N     N_R   0.742140 0.733205 0.947345 0.203955
O9    O     O_R   0.817730 0.823228 0.003738 -0.423216
O10   O     O_R   0.792562 0.743571 0.868236 -0.424444
N4    N     N_R   0.271211 0.253975 0.057595 0.201048
O11   O     O_R   0.155711 0.188398 0.007164 -0.440757
O12   O     O_R   0.294510 0.193999 0.133752 -0.412783
N5    N     N_2   0.362349 0.785114 0.018451 -0.293921
H5    H     H_    0.258454 0.784268 0.058932 0.260406
C19   C     C_3   0.340792 0.874815 0.939853 -0.596714
H6    H     H_    0.356408 0.000043 0.953640 0.283627
H7    H     H_    0.210120 0.849223 0.912081 0.249370
H8    H     H_    0.439437 0.850480 0.891839 0.241501
N6    N     N_2   0.643689 0.210266 0.983245 -0.308717
H9    H     H_    0.739615 0.209164 0.938257 0.245373
C20   C     C_3   0.680712 0.128592 0.062988 -0.504756
H10   H     H_    0.822184 0.119034 0.070954 0.271135
H11   H     H_    0.615590 0.010768 0.062325 0.273293
H12   H     H_    0.633424 0.188244 0.119642 0.240284
N7    N     N_2   0.790700 0.490886 0.105561 -0.293970
H13   H     H_    0.790895 0.574946 0.151430 0.251402
C21   C     C_3   0.957690 0.481165 0.068414 -0.668303
H14   H     H_    0.008938 0.598677 0.047928 0.240995
H15   H     H_    0.949816 0.402288 0.013547 0.270084
H16   H     H_    0.046708 0.436114 0.117895 0.262760
N8    N     N_2   0.205908 0.513242 0.897754 -0.299151
H17   H     H_    0.112075 0.584488 0.915985 0.257966
C22   C     C_3   0.147473 0.380788 0.847570 -0.632139
H18   H     H_    0.026010 0.326179 0.874172 0.239841
H19   H     H_    0.245709 0.292257 0.845992 0.246475
H20   H     H_    0.120615 0.420997 0.780984 0.236434

loop_
_geom_bond_atom_site_label_1
_geom_bond_atom_site_label_2
_geom_bond_distance
_ccdc_geom_bond_type
C10   N4    1.460510 S    
C15   C17   1.432798 S    
C22   H20   1.109501 S    
N4    O12   1.300290 A    
O7    Zn2   2.005006 S    
Zn1   N2    2.031885 S    
C16   C18   1.433488 S    
Zn2   N1    2.031885 S    
O7    C3    1.287569 A    
N5    H5    1.030190 S    
O5    C3    1.301728 A    
N3    O9    1.299076 A    
C10   C13   1.544684 S    
O6    C4    1.301713 A    
C20   H12   1.111203 S    
C8    N6    1.444994 S    
C11   C17   1.185908 T    
C21   H14   1.106646 S    
C21   H15   1.105595 S    
C9    C14   1.535471 S    
N2    H4    1.029248 S    
N8    H17   1.027051 S    
N6    C20   1.449760 S    
C8    C15   1.549031 S    
N7    H13   1.031070 S    
N1    H3    1.029243 S    
C13   N8    1.454266 S    
C19   H7    1.109692 S    
N5    C19   1.448002 S    
C7    C13   1.545773 S    
O3    Zn2   1.988608 S    
C12   C18   1.185863 T    
O2    C2    1.284072 A    
C8    C14   1.539587 S    
C7    C16   1.543558 S    
O8    C4    1.287700 A    
C7    C9    1.533871 S    
C14   C16   1.546318 S    
C5    H1    1.087545 S    
C8    C10   1.536101 S    
N7    C21   1.433848 S    
C19   H6    1.104584 S    
N4    O11   1.298569 A    
O2    Zn2   1.968053 S    
C19   H8    1.110517 S    
O1    C1    1.284066 A    
C1    C5    1.409815 S    
C7    N5    1.445798 S    
N8    C22   1.447506 S    
C22   H18   1.108638 S    
C9    C15   1.546182 S    
C2    C6    1.409807 S    
C5    C6    1.337897 D    
C4    C12   1.401886 S    
O5    Zn1   1.919254 S    
C13   C15   1.552310 S    
O1    Zn1   1.968055 S    
O4    C2    1.294819 A    
C20   H10   1.110686 S    
C21   H16   1.108637 S    
N1    N2    1.251720 D    
C22   H19   1.110843 S    
C20   H11   1.106711 S    
C9    N3    1.458683 S    
O6    Zn2   1.919254 S    
N3    O10   1.300234 A    
C14   N7    1.451098 S    
C6    H2    1.087545 S    
C3    C11   1.401690 S    
N6    H9    1.030502 S    
O4    Zn1   1.988608 S    
C10   C16   1.544581 S    
O3    C1    1.294831 A    
O8    Zn1   2.005006 S    
