data_mof_unit_62416.cif
_audit_creation_date              2012-10-26T17:21:03-0400
_audit_creation_method            fapswitch 2.2
_symmetry_space_group_name_H-M    P1
_symmetry_Int_Tables_number       1
_space_group_crystal_system       triclinic
_cell_length_a                    18.796931
_cell_length_b                    18.837763
_cell_length_c                    18.884892
_cell_angle_alpha                 109.69744
_cell_angle_beta                  109.68697
_cell_angle_gamma                 109.478716
_cell_volume                      5118.87779843

loop_
_atom_site_label
_atom_site_type_symbol
_atom_type_description
_atom_site_fract_x
_atom_site_fract_y
_atom_site_fract_z
_atom_type_partial_charge
C1    C     C_R   0.117601 0.119033 0.499135 0.638189
C2    C     C_R   0.322006 0.320933 0.579124 0.195167
C3    C     C_R   0.256424 0.257345 0.578040 -0.158757
C4    C     C_R   0.119336 0.000395 0.618735 0.620932
C5    C     C_R   0.183007 0.186692 0.498775 -0.046710
C6    C     C_R   0.736107 0.920492 0.247751 0.264539
C7    C     C_R   0.672541 0.921237 0.183485 -0.095954
C8    C     C_R   0.686407 0.999846 0.185380 -0.013582
C9    C     C_R   0.764104 0.078059 0.251574 -0.156749
C10   C     C_R   0.827253 0.077921 0.316386 -0.175277
C11   C     C_R   0.813971 0.999319 0.314026 0.039453
C12   C     C_R   0.274446 0.077563 0.739319 -0.014490
C13   C     C_R   0.826107 0.743135 0.503389 0.284398
C14   C     C_R   0.760119 0.676557 0.500179 0.284146
C15   C     C_R   0.686375 0.682775 0.497258 -0.016243
C16   C     C_R   0.882033 0.880944 0.500661 0.579730
C17   C     C_R   0.677140 0.752271 0.493357 -0.203697
C18   C     C_R   0.741882 0.817344 0.495576 -0.214446
C19   C     C_R   0.816097 0.813123 0.500650 -0.006461
C20   C     C_R   0.500208 0.881216 0.881669 0.618705
C21   C     C_R   0.381073 0.005205 0.886584 0.603540
C22   C     C_R   0.500261 0.118727 0.118839 0.599122
C23   C     C_R   0.189442 0.003279 0.685490 0.015272
C24   C     C_R   0.619180 0.000063 0.118800 0.559623
C25   C     C_R   0.499802 0.618869 0.619188 0.542327
C26   C     C_R   0.380495 0.381590 0.500099 0.582821
C27   C     C_R   0.498408 0.379521 0.380719 0.534935
C28   C     C_R   0.881313 0.000052 0.381090 0.576362
C29   C     C_R   0.619150 0.618271 0.499534 0.555609
C30   C     C_R   0.576677 0.809720 0.832870 0.213922
C31   C     C_R   0.575261 0.743580 0.768896 -0.135965
C32   C     C_R   0.499846 0.685984 0.686375 -0.076444
C33   C     C_R   0.424436 0.692615 0.668328 -0.139428
C34   C     C_R   0.168106 0.933851 0.700815 -0.176804
C35   C     C_R   0.424112 0.756729 0.732296 0.213598
C36   C     C_R   0.500051 0.814366 0.814912 0.045242
C37   C     C_R   0.424306 0.193509 0.162468 0.273600
C38   C     C_R   0.422018 0.255371 0.227114 0.274207
C39   C     C_R   0.495873 0.310013 0.312678 -0.035494
C40   C     C_R   0.304223 0.140723 0.715984 0.263580
C41   C     C_R   0.568978 0.299003 0.332831 -0.212923
C42   C     C_R   0.570405 0.236772 0.268827 -0.219094
C43   C     C_R   0.498729 0.184728 0.184159 -0.014578
C44   C     C_R   0.381975 0.219897 0.777025 -0.147424
C45   C     C_R   0.230596 0.936764 0.768499 -0.180864
C46   C     C_R   0.431187 0.236747 0.860451 -0.171503
C47   C     C_R   0.406438 0.172100 0.883629 0.298939
C48   C     C_R   0.332728 0.087473 0.817558 0.008937
C49   C     C_3   0.676425 0.824770 0.286310 -0.118764
C50   C     C_3   0.897378 0.689280 0.443420 -0.083330
C51   C     C_3   0.718240 0.533817 0.420244 -0.111682
C52   C     C_3   0.717315 0.922499 0.912465 -0.102034
C53   C     C_3   0.297582 0.088007 0.585748 -0.121452
C54   C     C_3   0.345115 0.812475 0.676963 -0.122268
C55   C     C_3   0.291383 0.070747 0.054980 -0.071665
C56   C     C_R   0.313590 0.011956 0.826214 0.013281
C57   C     C_3   0.295594 0.217300 0.229547 -0.069676
C58   C     C_3   0.496519 0.277462 0.033341 -0.068982
C59   C     C_3   0.118737 0.056775 0.295512 -0.087365
C60   C     C_3   0.156699 0.282408 0.326098 -0.094931
C61   C     C_3   0.382524 0.456132 0.692988 -0.099455
C62   C     C_R   0.171605 0.181584 0.419672 0.235502
C63   C     C_R   0.232259 0.250904 0.421157 0.208444
C64   C     C_R   0.311396 0.316213 0.499988 -0.013493
Cu1   Cu    Cu3+1 0.999980 0.061790 0.561790 0.956465
Cu2   Cu    Cu3+1 0.000020 0.938210 0.438210 0.966384
Cu3   Cu    Cu3+1 0.438200 0.938230 0.000040 0.951294
Cu4   Cu    Cu3+1 0.561800 0.061850 0.000040 0.958478
Cu5   Cu    Cu3+1 0.438190 0.500100 0.438300 0.945037
Cu6   Cu    Cu3+1 0.561810 0.500080 0.561880 0.987736
H1    H     H_    0.103224 0.876502 0.659150 0.159988
H2    H     H_    0.612904 0.860395 0.131829 0.143459
H3    H     H_    0.887073 0.138794 0.367586 0.129630
H4    H     H_    0.847459 0.679342 0.382628 0.097073
H5    H     H_    0.883201 0.625615 0.439577 0.142041
H6    H     H_    0.961311 0.717588 0.446792 0.133490
H7    H     H_    0.726595 0.547819 0.369920 0.073363
H8    H     H_    0.648135 0.504378 0.400695 0.129851
H9    H     H_    0.737651 0.484484 0.421151 0.136415
H10   H     H_    0.620520 0.757155 0.490530 0.142267
H11   H     H_    0.734012 0.871036 0.493125 0.129493
H12   H     H_    0.775206 0.139228 0.253822 0.129593
H13   H     H_    0.695353 0.957679 0.881150 0.118811
H14   H     H_    0.743797 0.887942 0.878376 0.108237
H15   H     H_    0.771589 0.972318 0.980193 0.148776
H16   H     H_    0.291035 0.026443 0.584179 0.113133
H17   H     H_    0.367396 0.136183 0.613894 0.116936
H18   H     H_    0.261767 0.071993 0.517333 0.140171
H19   H     H_    0.401690 0.880388 0.721558 0.112701
H20   H     H_    0.284705 0.816116 0.664153 0.144523
H21   H     H_    0.342338 0.783500 0.613387 0.108064
H22   H     H_    0.234335 0.078222 0.051174 0.131243
H23   H     H_    0.633138 0.737575 0.783569 0.149172
H24   H     H_    0.310103 0.046714 0.100898 0.087541
H25   H     H_    0.270059 0.019506 0.989304 0.152522
H26   H     H_    0.233628 0.218401 0.205703 0.175011
H27   H     H_    0.328181 0.247938 0.301583 0.165172
H28   H     H_    0.278443 0.147782 0.200680 0.063008
H29   H     H_    0.627407 0.229105 0.285235 0.126715
H30   H     H_    0.404127 0.268765 0.759485 0.155037
H31   H     H_    0.489499 0.300214 0.905725 0.107134
H32   H     H_    0.558757 0.312349 0.035754 0.091467
H33   H     H_    0.514697 0.282808 0.097847 0.156301
H34   H     H_    0.365363 0.647393 0.605122 0.146639
H35   H     H_    0.456265 0.309079 0.024141 0.122096
H36   H     H_    0.214112 0.879262 0.774898 0.153372
H37   H     H_    0.057466 0.997765 0.238083 0.137709
H38   H     H_    0.154029 0.034828 0.335661 0.104196
H39   H     H_    0.158262 0.087648 0.270838 0.137897
H40   H     H_    0.150263 0.291068 0.269429 0.125566
H41   H     H_    0.180416 0.346923 0.381690 0.117229
H42   H     H_    0.090628 0.234201 0.307922 0.157634
H43   H     H_    0.367603 0.482475 0.648659 0.112472
H44   H     H_    0.443231 0.509982 0.755066 0.153886
H45   H     H_    0.625809 0.339556 0.397888 0.152624
H46   H     H_    0.329262 0.435621 0.707996 0.109970
H47   H     H_    0.264078 0.262285 0.639268 0.184163
H48   H     H_    0.609432 0.813595 0.250848 0.109750
H49   H     H_    0.711795 0.878210 0.355336 0.104309
H50   H     H_    0.669654 0.764254 0.287034 0.146501
O1    O     O_R   0.090150 0.142360 0.552170 -0.511950
O2    O     O_R   0.552200 0.590240 0.642450 -0.507406
O3    O     O_R   0.357640 0.409920 0.447920 -0.496948
O4    O     O_R   0.090180 0.037990 0.447810 -0.490661
O5    O     O_R   0.462030 0.409900 0.552280 -0.469920
O6    O     O_R   0.447800 0.409940 0.357730 -0.464255
O7    O     O_R   0.552190 0.409920 0.462090 -0.524267
O8    O     O_R   0.537970 0.590270 0.447900 -0.526204
O9    O     O_R   0.642360 0.590260 0.552260 -0.468743
O10   O     O_R   0.090170 0.052200 0.642360 -0.491504
O11   O     O_R   0.090200 0.947840 0.538010 -0.512254
O12   O     O_R   0.552230 0.962090 0.909900 -0.521002
O13   O     O_R   0.909820 0.962010 0.552190 -0.519010
O14   O     O_R   0.909850 0.857640 0.447830 -0.500184
O15   O     O_R   0.909800 0.052160 0.461990 -0.535985
O16   O     O_R   0.909830 0.947800 0.357640 -0.465088
O17   O     O_R   0.447850 0.857690 0.909890 -0.479052
O18   O     O_3   0.723343 0.842352 0.243938 -0.550432
O19   O     O_3   0.905197 0.746395 0.520500 -0.548080
O20   O     O_3   0.770860 0.608666 0.504567 -0.528913
O21   O     O_3   0.649599 0.864571 0.915802 -0.554352
O22   O     O_3   0.260732 0.123094 0.631669 -0.577151
O23   O     O_R   0.357630 0.947820 0.909860 -0.522912
O24   O     O_3   0.348183 0.760194 0.715292 -0.554068
O25   O     O_3   0.359069 0.149888 0.076000 -0.522332
O26   O     O_3   0.348520 0.263728 0.204607 -0.530005
O27   O     O_3   0.449514 0.188269 0.968645 -0.513384
O28   O     O_3   0.096610 0.113336 0.342046 -0.553599
O29   O     O_3   0.216215 0.252251 0.344797 -0.588913
O30   O     O_3   0.396901 0.386887 0.657736 -0.546262
O31   O     O_R   0.462000 0.052220 0.909860 -0.475515
O32   O     O_R   0.447770 0.037990 0.090190 -0.523328
O33   O     O_R   0.552150 0.142390 0.090190 -0.493206
O34   O     O_R   0.538000 0.947860 0.090220 -0.523770
O35   O     O_R   0.642370 0.052260 0.090230 -0.510707
O36   O     O_R   0.447810 0.590260 0.538090 -0.524518

loop_
_geom_bond_atom_site_label_1
_geom_bond_atom_site_label_2
_ccdc_geom_bond_type
Cu6   O7    S    
C2    O30   S    
C54   O24   S    
C12   C40   A    
C42   C43   A    
C40   O22   S    
C28   O15   A    
C41   C42   A    
C35   C36   A    
C12   C48   A    
Cu4   O35   S    
Cu3   O23   S    
Cu1   O10   S    
C7    C8    A    
C39   C41   A    
C49   H49   S    
C12   C23   A    
C37   C38   A    
C30   O21   S    
Cu3   O34   S    
C1    C5    S    
C13   O19   S    
C52   H15   S    
C41   H45   S    
C54   H20   S    
C50   H4    S    
C30   C31   A    
C27   O6    A    
C55   O25   S    
C49   H50   S    
Cu5   O3    S    
C33   H34   S    
C18   H11   S    
Cu4   O12   S    
C53   O22   S    
C52   H14   S    
C26   C64   S    
C38   O26   S    
C3    H47   S    
C8    C24   S    
Cu2   O14   S    
C27   O7    A    
C29   O9    A    
C49   H48   S    
C45   C56   A    
C44   C46   A    
C8    C9    A    
C57   H26   S    
C53   H16   S    
C58   H32   S    
Cu1   O1    S    
C61   O30   S    
C9    C10   A    
C24   O35   A    
C9    H12   S    
C59   O28   S    
C25   C32   S    
C16   O14   A    
C62   O28   S    
C13   C14   A    
C25   O36   A    
C20   O12   A    
C55   H24   S    
C16   O13   A    
C2    C64   A    
C15   C29   S    
C4    O11   A    
C47   O27   S    
C46   H31   S    
C22   O32   A    
Cu5   O36   S    
C13   C19   A    
Cu3   Cu4   S    
C50   H5    S    
C21   O23   A    
C54   H19   S    
C55   H25   S    
Cu4   O33   S    
C27   C39   S    
C6    C11   A    
C4    C23   S    
C50   O19   S    
C18   C19   A    
C4    O10   A    
C24   O34   A    
C31   H23   S    
C17   H10   S    
C59   H37   S    
C59   H39   S    
C26   O5    A    
C20   O17   A    
C6    O18   S    
C52   H13   S    
C51   H7    S    
C55   H22   S    
C60   H42   S    
C50   H6    S    
C58   O27   S    
Cu6   O2    S    
C47   C48   A    
C23   C34   A    
C57   H27   S    
C62   C63   A    
C17   C18   A    
C53   H17   S    
C34   C45   A    
C51   H9    S    
Cu1   O15   S    
Cu2   O16   S    
C10   H3    S    
Cu6   O5    S    
C14   O20   S    
Cu5   O6    S    
C61   H43   S    
Cu2   O4    S    
C37   C43   A    
C26   O3    A    
C7    H2    S    
C45   H36   S    
Cu2   O11   S    
C25   O2    A    
C48   C56   A    
C46   C47   A    
Cu3   O32   S    
C28   O16   A    
C61   H46   S    
C31   C32   A    
C52   O21   S    
C3    C5    A    
C21   C56   S    
C15   C17   A    
C6    C7    A    
C35   O24   S    
C59   H38   S    
C30   C36   A    
C58   H35   S    
C32   C33   A    
C2    C3    A    
C51   H8    S    
C54   H21   S    
Cu5   O8    S    
C60   H41   S    
C42   H29   S    
C51   O20   S    
C44   H30   S    
C38   C39   A    
C11   C28   S    
C16   C19   S    
C57   H28   S    
C33   C35   A    
C5    C62   A    
C53   H18   S    
C60   O29   S    
C21   O31   A    
C63   O29   S    
Cu5   Cu6   S    
Cu3   O17   S    
C1    O1    A    
C1    O4    A    
C60   H40   S    
C10   C11   A    
C63   C64   A    
C20   C36   S    
C40   C44   A    
Cu1   Cu2   S    
Cu6   O9    S    
C29   O8    A    
C61   H44   S    
Cu4   O31   S    
C14   C15   A    
C49   O18   S    
C58   H33   S    
C37   O25   S    
C57   O26   S    
C34   H1    S    
C22   C43   S    
Cu1   O13   S    
C22   O33   A    
