data_mof_unit_50961.cif
_audit_creation_date              2013-03-05T15:40:18-0500
_audit_creation_method            fapswitch 2.2
_symmetry_space_group_name_H-M    P1
_symmetry_Int_Tables_number       1
_space_group_crystal_system       triclinic
_cell_length_a                    7.834407
_cell_length_b                    8.579205
_cell_length_c                    12.833508
_cell_angle_alpha                 89.134841
_cell_angle_beta                  88.167998
_cell_angle_gamma                 92.869807
_cell_volume                      860.935740054

loop_
_atom_site_label
_atom_site_type_symbol
_atom_site_description
_atom_site_fract_x
_atom_site_fract_y
_atom_site_fract_z
_atom_type_partial_charge
O1    O     O_R   0.609680 0.261530 0.506880 -0.577399
O2    O     O_R   0.390320 0.738470 0.493120 -0.577398
O3    O     O_R   0.323330 0.288220 0.488910 -0.577693
O4    O     O_R   0.676670 0.711780 0.511090 -0.577696
C1    C     C_R   0.455904 0.205980 0.498234 0.858362
C2    C     C_R   0.544096 0.794020 0.501767 0.858364
O5    O     O_R   0.619510 0.488830 0.661140 -0.569741
O6    O     O_R   0.380490 0.511170 0.338860 -0.569743
O7    O     O_R   0.333160 0.515520 0.643180 -0.609990
O8    O     O_R   0.666840 0.484480 0.356820 -0.609977
C3    C     C_R   0.465776 0.500164 0.699382 0.948934
C4    C     C_R   0.534223 0.499836 0.300618 0.948940
Zn1   Zn    Zn3+2 0.691200 0.482180 0.511990 1.160801
Zn2   Zn    Zn3+2 0.308800 0.517820 0.488010 1.160798
N1    N     N_2   0.054030 0.541640 0.471970 0.014854
N2    N     N_2   0.945970 0.458360 0.528030 0.014854
C5    C     C_R   0.555252 0.496295 0.189698 -0.283560
C6    C     C_R   0.444748 0.503704 0.810302 -0.283562
C7    C     C_R   0.316729 0.617474 0.961489 0.790115
C8    C     C_R   0.683270 0.382525 0.038511 0.790113
C9    C     C_R   0.320538 0.594915 0.855233 -0.306013
C10   C     C_R   0.679462 0.405085 0.144767 -0.306008
C11   C     C_R   0.560312 0.426970 0.870822 0.704579
C12   C     C_R   0.439688 0.573030 0.129178 0.704578
C13   C     C_R   0.561258 0.451377 0.977120 -0.287515
C14   C     C_R   0.438742 0.548623 0.022880 -0.287514
H1    H     H_    0.769207 0.346405 0.192379 0.234357
H2    H     H_    0.230793 0.653595 0.807621 0.234356
C15   C     C_2   0.432888 0.043740 0.509041 0.337336
C16   C     C_2   0.567113 0.956260 0.490961 0.337330
F1    F     F_    0.327689 0.669789 0.174622 -0.549923
F2    F     F_    0.672311 0.330210 0.825378 -0.549921
F3    F     F_    0.195976 0.708647 0.002988 -0.545965
F4    F     F_    0.804023 0.291352 0.997012 -0.545964
N3    N     N_R   0.992299 0.674185 0.426933 0.316285
O9    O     O_R   0.014947 0.806808 0.473357 -0.200558
O10   O     O_R   0.963209 0.675179 0.327773 -0.285065
N4    N     N_R   0.007698 0.325811 0.573064 0.316282
O11   O     O_R   0.985082 0.193199 0.526625 -0.200564
O12   O     O_R   0.036750 0.324798 0.672228 -0.285046
F5    F     F_    0.279080 0.985339 0.548807 -0.572211
F6    F     F_    0.720922 0.014662 0.451197 -0.572210

loop_
_geom_bond_atom_site_label_1
_geom_bond_atom_site_label_2
_geom_bond_distance
_ccdc_geom_bond_type
C4    C5    1.428713 S    
N4    O12   1.299940 A    
O7    Zn2   2.006459 S    
C3    C6    1.428713 S    
C15   C16   1.338503 D    
C5    C10   1.394908 A    
C6    C9    1.394909 A    
N3    O9    1.299240 A    
O6    C4    1.294718 A    
C8    F4    1.358274 S    
C11   F2    1.361608 S    
C12   F1    1.361608 S    
O5    C3    1.294718 A    
O7    C3    1.294524 A    
O2    C2    1.281988 A    
O3    Zn2   1.978636 S    
O8    C4    1.294523 A    
O1    C1    1.281987 A    
N1    N3    1.383517 S    
C2    C16   1.398766 S    
C9    H2    1.083865 S    
C12   C14   1.383465 A    
C1    C15   1.398767 S    
C10   H1    1.083865 S    
C11   C13   1.383465 A    
N4    O11   1.299233 A    
O2    Zn2   1.970028 S    
C5    C12   1.394821 A    
O1    Zn1   1.970029 S    
C8    C13   1.404999 A    
C6    C11   1.394820 A    
O3    C1    1.292157 A    
O5    Zn1   1.979980 S    
N3    O10   1.299947 A    
O4    C2    1.292157 A    
C7    F3    1.358274 S    
Zn1   N2    2.033196 S    
N2    N4    1.383515 S    
O4    Zn1   1.978634 S    
C7    C14   1.404999 A    
Zn2   N1    2.033194 S    
C16   F6    1.362350 S    
O6    Zn2   1.979980 S    
C15   F5    1.362349 S    
C13   C14   1.421678 A    
N1    N2    1.276618 D    
C8    C10   1.379786 A    
C7    C9    1.379785 A    
O8    Zn1   2.006458 S    
