data_mof_unit_8849.cif
_audit_creation_date              2012-12-10T19:00:11-0500
_audit_creation_method            fapswitch 2.2
_symmetry_space_group_name_H-M    P1
_symmetry_Int_Tables_number       1
_space_group_crystal_system       triclinic
_cell_length_a                    9.573949
_cell_length_b                    10.832931
_cell_length_c                    13.451705
_cell_angle_alpha                 90.746361
_cell_angle_beta                  73.695212
_cell_angle_gamma                 90.065811
_cell_volume                      1338.90145975

loop_
_atom_site_label
_atom_site_type_symbol
_atom_type_description
_atom_site_fract_x
_atom_site_fract_y
_atom_site_fract_z
_atom_type_partial_charge
C1    C     C_R   0.499363 0.737575 0.501360 0.846989
C2    C     C_R   0.448580 0.430019 0.973098 0.083148
C3    C     C_R   0.493320 0.432893 0.863322 0.085475
C4    C     C_R   0.554964 0.448782 0.027556 0.075704
C5    C     C_R   0.703088 0.463479 0.971422 0.163200
C6    C     C_R   0.746928 0.440485 0.865443 -0.203741
C7    C     C_R   0.643728 0.419207 0.812965 -0.127512
C8    C     C_R   0.518334 0.459673 0.135637 -0.249089
C9    C     C_R   0.765780 0.513513 0.129267 -0.188821
C10   C     C_R   0.386007 0.448873 0.808895 -0.098194
C11   C     C_R   0.374069 0.936943 0.503130 0.129747
C12   C     C_R   0.424488 0.484347 0.698354 0.809613
C13   C     C_R   0.494683 0.870724 0.511807 -0.166545
C14   C     C_R   0.606783 0.934474 0.538486 -0.197180
C15   C     C_R   0.606955 0.063110 0.543204 0.268368
C16   C     C_R   0.494912 0.129518 0.516707 -0.172658
C17   C     C_R   0.374814 0.063907 0.504732 0.092739
C18   C     C_3   0.296702 0.071640 0.423190 -0.422364
C19   C     C_3   0.295974 0.931356 0.421397 -0.436249
C20   C     C_R   0.947919 0.413231 0.444033 0.321555
C21   C     C_R   0.902241 0.575905 0.564955 0.297570
C22   C     C_R   0.050586 0.575801 0.564107 -0.113652
C23   C     C_R   0.498850 0.262502 0.504156 0.826106
C24   C     C_R   0.095490 0.413839 0.443550 0.208723
C25   C     C_3   0.144671 0.397186 0.329029 -0.577585
C26   C     C_3   0.986186 0.393825 0.329966 0.160927
C27   C     C_R   0.577433 0.499224 0.300275 0.794481
C28   C     C_R   0.806149 0.498888 0.022127 -0.187778
C29   C     C_R   0.621893 0.491406 0.186786 -0.038276
C30   C     C_R   0.238771 0.432354 0.862297 -0.179744
C31   C     C_R   0.197591 0.407306 0.967560 -0.148690
C32   C     C_R   0.299499 0.410753 0.023362 -0.176565
Cu1   Cu    Cu3+1 0.359330 0.500020 0.500010 0.956766
Cu2   Cu    Cu3+1 0.640670 0.499980 0.499990 1.014142
H1    H     H_    0.846811 0.542394 0.166667 0.141074
H2    H     H_    0.186248 0.112677 0.453564 0.235034
H3    H     H_    0.364767 0.112362 0.350076 0.190328
H4    H     H_    0.185116 0.891567 0.450763 0.220164
H5    H     H_    0.363590 0.890406 0.347254 0.193963
H6    H     H_    0.087773 0.638559 0.614472 0.180113
H7    H     H_    0.198734 0.481617 0.290942 0.177803
H8    H     H_    0.204365 0.308892 0.304773 0.215298
H9    H     H_    0.953024 0.470967 0.287984 0.108061
H10   H     H_    0.861350 0.439163 0.822815 0.149946
H11   H     H_    0.917065 0.517837 0.978273 0.135686
H12   H     H_    0.409771 0.443935 0.181754 0.143749
H13   H     H_    0.155106 0.437290 0.822476 0.152969
H14   H     H_    0.258098 0.395462 0.105214 0.125375
H15   H     H_    0.085231 0.388152 0.007443 0.137405
H16   H     H_    0.685678 0.389778 0.733385 0.207109
H17   H     H_    0.697353 0.885209 0.552298 0.229768
N1    N     N_R   0.852320 0.499070 0.499340 -0.255468
N2    N     N_R   0.148230 0.499110 0.499340 -0.211665
O1    O     O_R   0.381190 0.680360 0.500000 -0.581574
O2    O     O_R   0.618780 0.680320 0.499990 -0.550013
O3    O     O_R   0.323230 0.500000 0.650990 -0.588233
O4    O     O_R   0.560820 0.499960 0.650980 -0.555046
O5    O     O_R   0.381220 0.319680 0.500010 -0.583375
O6    O     O_R   0.618810 0.319640 0.500000 -0.524904
O7    O     O_R   0.439180 0.500040 0.349020 -0.586651
O8    O     O_R   0.676770 0.500000 0.349010 -0.586871
Br1   Br    Br    0.765846 0.137130 0.583941 -0.507272
Br2   Br    Br    0.779217 0.687927 0.661753 -0.515263
O9    O     O_3   0.942546 0.276883 0.304803 -0.672742
H18   H     H_    0.970816 0.272382 0.228025 0.324624

loop_
_geom_bond_atom_site_label_1
_geom_bond_atom_site_label_2
_ccdc_geom_bond_type
C25   H8    S    
C23   O5    A    
C2    C4    A    
C1    O1    A    
C6    C7    A    
C19   H4    S    
C27   C29   S    
C5    C28   A    
C11   C13   A    
C10   C30   A    
Cu2   N1    S    
C14   H17   S    
C9    C29   A    
C30   C31   A    
C4    C8    A    
C22   H6    S    
O9    H18   S    
Cu1   O3    S    
C2    C3    A    
C1    O2    A    
C16   C23   S    
Cu2   O2    S    
C20   N1    A    
C3    C10   A    
C6    H10   S    
C13   C14   A    
C23   O6    A    
Cu1   O7    S    
C32   H14   S    
C11   C19   S    
Cu1   O5    S    
C19   H5    S    
C31   H15   S    
Cu2   O4    S    
C12   O4    A    
C10   C12   S    
C2    C32   A    
C12   O3    A    
C18   H3    S    
C26   H9    S    
Cu1   Cu2   S    
C22   N2    A    
C3    C7    A    
C27   O7    A    
C21   N1    A    
Cu1   N2    S    
C5    C6    A    
C31   C32   A    
C8    H12   S    
C28   H11   S    
C21   Br2   S    
C1    C13   S    
C8    C29   A    
C15   C16   A    
C16   C17   A    
C30   H13   S    
C24   C25   S    
C24   N2    A    
C17   C18   S    
C18   C19   S    
C25   H7    S    
Cu1   O1    S    
C9    H1    S    
C26   O9    S    
C14   C15   A    
C11   C17   A    
C27   O8    A    
C25   C26   S    
C21   C22   A    
Cu2   O6    S    
C18   H2    S    
C9    C28   A    
C15   Br1   S    
Cu2   O8    S    
C20   C24   A    
C7    H16   S    
C4    C5    A    
C20   C26   S    
