data_mof_unit_53675.cif
_audit_creation_date              2012-12-11T15:27:00-0500
_audit_creation_method            fapswitch 2.2
_symmetry_space_group_name_H-M    P1
_symmetry_Int_Tables_number       1
_space_group_crystal_system       triclinic
_cell_length_a                    13.816308
_cell_length_b                    13.86801
_cell_length_c                    27.374366
_cell_angle_alpha                 90.219297
_cell_angle_beta                  89.773924
_cell_angle_gamma                 119.848473
_cell_volume                      4549.2265564

loop_
_atom_site_label
_atom_site_type_symbol
_atom_type_description
_atom_site_fract_x
_atom_site_fract_y
_atom_site_fract_z
_atom_type_partial_charge
C1    C     C_R   0.233672 0.787583 0.568378 0.544411
C2    C     C_R   0.212364 0.446313 0.568461 0.546165
C3    C     C_R   0.553577 0.766065 0.568457 0.553461
C4    C     C_3   0.694981 0.747264 0.784014 -0.237959
C5    C     C_3   0.252961 0.947643 0.784116 -0.237932
C6    C     C_3   0.051691 0.304326 0.784381 -0.237762
C7    C     C_3   0.664438 0.731167 0.729100 -0.220107
C8    C     C_3   0.268988 0.933168 0.729121 -0.220228
C9    C     C_3   0.066088 0.335367 0.729524 -0.220165
C10   C     C_1   0.755941 0.880047 0.852475 -0.040729
C11   C     C_1   0.119653 0.876294 0.852456 -0.040274
C12   C     C_1   0.123773 0.242308 0.852213 -0.040992
C13   C     C_1   0.636498 0.818897 0.656528 -0.070423
C14   C     C_1   0.180448 0.818172 0.656385 -0.070111
C15   C     C_1   0.181565 0.362831 0.656390 -0.070182
C16   C     C_1   0.604616 0.798883 0.615119 -0.010923
C17   C     C_1   0.200540 0.806089 0.614975 -0.009904
C18   C     C_1   0.193691 0.395033 0.615046 -0.010397
C19   C     C_R   0.071944 0.164017 0.941432 0.506588
C20   C     C_R   0.835386 0.907279 0.941483 0.503951
C21   C     C_R   0.092256 0.928116 0.941603 0.506374
C22   C     C_R   0.528523 0.758135 0.374063 0.030840
C23   C     C_R   0.193664 0.817707 0.387480 0.025875
C24   C     C_R   0.183932 0.370534 0.388775 0.020059
C25   C     C_R   0.604852 0.865035 0.357270 -0.115923
C26   C     C_R   0.081898 0.758199 0.372608 -0.124348
C27   C     C_R   0.265971 0.354289 0.365965 -0.137711
C28   C     C_R   0.627356 0.883744 0.307619 -0.123142
C29   C     C_R   0.050169 0.784091 0.328284 -0.114654
C30   C     C_R   0.245156 0.302104 0.320507 -0.126030
C31   C     C_R   0.572610 0.796207 0.274105 0.035025
C32   C     C_R   0.130485 0.868138 0.298079 0.037087
C33   C     C_R   0.141746 0.264502 0.297588 0.032955
C34   C     C_R   0.233617 0.788220 0.431382 0.534744
C35   C     C_R   0.211626 0.444033 0.431621 0.531884
C36   C     C_R   0.501550 0.737245 0.425797 0.553025
C37   C     C_R   0.493657 0.690025 0.291008 -0.108533
C38   C     C_R   0.241209 0.929191 0.314189 -0.112853
C39   C     C_R   0.056618 0.271765 0.322364 -0.110362
C40   C     C_R   0.472539 0.671067 0.340780 -0.135156
C41   C     C_R   0.272040 0.905080 0.358381 -0.118715
C42   C     C_R   0.077554 0.324469 0.367575 -0.119753
C43   C     C_R   0.621679 0.733507 0.197956 -0.103617
C44   C     C_R   0.165194 0.989094 0.225454 -0.115547
C45   C     C_R   0.027485 0.142335 0.229039 -0.103757
C46   C     C_R   0.670108 0.755816 0.152071 -0.113620
C47   C     C_R   0.161287 0.000071 0.175332 -0.148876
C48   C     C_R   0.009849 0.120753 0.179259 -0.144725
C49   C     C_R   0.681424 0.936938 0.152136 0.033705
C50   C     C_R   0.025800 0.802743 0.168322 0.054525
C51   C     C_R   0.191596 0.282368 0.161551 0.054437
C52   C     C_R   0.633273 0.913526 0.198883 -0.119047
C53   C     C_R   0.033021 0.792439 0.218836 -0.113119
C54   C     C_R   0.209142 0.301303 0.211883 -0.124549
C55   C     C_R   0.606522 0.813575 0.222470 0.001391
C56   C     C_R   0.104691 0.884425 0.247505 0.006518
C57   C     C_R   0.127283 0.232649 0.245673 -0.001793
C58   C     C_R   0.705720 0.859117 0.129618 -0.012269
C59   C     C_R   0.092326 0.908397 0.146046 -0.009274
C60   C     C_R   0.091028 0.189242 0.145243 -0.005829
C61   C     C_R   0.067584 0.155860 0.093914 0.532536
C62   C     C_R   0.777831 0.884741 0.086311 0.565839
C63   C     C_R   0.087222 0.931201 0.093904 0.526262
C64   C     C_3   0.582785 0.857634 0.737564 -0.216351
C65   C     C_3   0.141414 0.725985 0.736976 -0.216316
C66   C     C_3   0.274076 0.414919 0.737135 -0.216132
C67   C     C_3   0.784865 0.937025 0.714840 -0.212458
C68   C     C_3   0.062391 0.848959 0.715000 -0.212769
C69   C     C_3   0.151117 0.214013 0.714239 -0.212524
C70   C     C_3   0.817503 0.951238 0.769355 -0.216267
C71   C     C_3   0.048292 0.867243 0.769619 -0.216474
C72   C     C_3   0.132767 0.181028 0.768718 -0.216335
C73   C     C_1   0.790583 0.892950 0.893505 0.008067
C74   C     C_1   0.106633 0.897900 0.893541 0.007839
C75   C     C_1   0.102352 0.208066 0.893316 0.005905
C76   C     C_3   0.666678 0.836050 0.708195 0.044400
C77   C     C_3   0.163427 0.831255 0.708062 0.044355
C78   C     C_3   0.168515 0.332250 0.708006 0.044132
C79   C     C_3   0.612743 0.872173 0.793042 -0.017663
C80   C     C_3   0.127080 0.741375 0.792541 -0.017719
C81   C     C_3   0.258787 0.384615 0.792560 -0.017606
C82   C     C_3   0.720553 0.864352 0.801268 0.034429
C83   C     C_3   0.135352 0.856731 0.801218 0.034549
C84   C     C_3   0.143159 0.277754 0.801002 0.034588
Cr1   Cr    Cr6+3 0.164410 0.584450 0.499910 1.020030
Cr2   Cr    Cr6+3 0.415550 0.579960 0.499910 1.020330
Cr3   Cr    Cr6+3 0.420040 0.835590 0.499910 1.021905
Cr4   Cr    Cr6+3 0.156760 0.076070 0.017830 1.070184
Cr5   Cr    Cr6+3 0.923930 0.080690 0.017830 1.081249
Cr6   Cr    Cr6+3 0.919310 0.843240 0.017830 1.070739
H1    H     H_    0.496631 0.786391 0.732704 0.090701
H2    H     H_    0.212686 0.710722 0.731841 0.090843
H3    H     H_    0.289124 0.501084 0.732570 0.090970
H4    H     H_    0.543190 0.801230 0.812768 0.127288
H5    H     H_    0.198238 0.742461 0.812069 0.127776
H6    H     H_    0.257577 0.454109 0.812597 0.127738
H7    H     H_    0.768263 0.736073 0.790172 0.144085
H8    H     H_    0.264358 0.031870 0.790592 0.144193
H9    H     H_    0.967252 0.231592 0.790650 0.143460
H10   H     H_    0.648754 0.933483 0.382556 0.130012
H11   H     H_    0.019944 0.691059 0.394716 0.125503
H12   H     H_    0.348188 0.387398 0.381819 0.127936
H13   H     H_    0.602476 0.655980 0.215381 0.140067
H14   H     H_    0.218782 0.062494 0.246737 0.120086
H15   H     H_    0.963172 0.088615 0.254578 0.119495
H16   H     H_    0.685286 0.693682 0.135298 0.193380
H17   H     H_    0.212382 0.081405 0.159289 0.132194
H18   H     H_    0.932934 0.049218 0.167191 0.101397
H19   H     H_    0.690295 0.965756 0.295659 0.108540
H20   H     H_    0.963753 0.736540 0.317101 0.113761
H21   H     H_    0.311404 0.295754 0.302180 0.110916
H22   H     H_    0.617118 0.973622 0.217135 0.140821
H23   H     H_    0.988138 0.710508 0.235100 0.131644
H24   H     H_    0.284247 0.373980 0.224753 0.136675
H25   H     H_    0.449223 0.621506 0.265812 0.121469
H26   H     H_    0.306339 0.991925 0.291550 0.113797
H27   H     H_    0.976322 0.243737 0.305308 0.119096
H28   H     H_    0.582742 0.932138 0.722559 0.147206
H29   H     H_    0.066416 0.651982 0.721840 0.147568
H30   H     H_    0.348475 0.414327 0.721699 0.147537
H31   H     H_    0.411663 0.588908 0.353330 0.112306
H32   H     H_    0.359307 0.952023 0.368469 0.138528
H33   H     H_    0.012060 0.334209 0.384626 0.135190
H34   H     H_    0.846617 0.925283 0.693164 0.108803
H35   H     H_    0.074501 0.922365 0.693649 0.108745
H36   H     H_    0.077565 0.153117 0.692704 0.108770
H37   H     H_    0.787477 0.013887 0.701319 0.138194
H38   H     H_    0.985075 0.775277 0.701319 0.137852
H39   H     H_    0.225227 0.210757 0.700289 0.138135
H40   H     H_    0.843673 0.037077 0.781558 0.157316
H41   H     H_    0.962142 0.807973 0.781773 0.157061
H42   H     H_    0.192324 0.154108 0.780456 0.157002
H43   H     H_    0.890421 0.939459 0.773793 0.087392
H44   H     H_    0.060382 0.951701 0.774469 0.087186
H45   H     H_    0.047997 0.108875 0.773306 0.087583
H46   H     H_    0.579967 0.657180 0.724349 0.128681
H47   H     H_    0.343016 0.922269 0.724160 0.128442
H48   H     H_    0.076757 0.419916 0.725124 0.128938
H49   H     H_    0.724677 0.714579 0.708823 0.134758
H50   H     H_    0.285949 0.009804 0.709121 0.135103
H51   H     H_    0.989207 0.276076 0.709398 0.134750
H52   H     H_    0.624661 0.681840 0.805639 0.153200
H53   H     H_    0.318538 0.942513 0.805575 0.153921
H54   H     H_    0.056611 0.374400 0.806317 0.153666
O1    O     O_R   0.137310 0.468260 0.552980 -0.506121
O2    O     O_R   0.531740 0.669050 0.552980 -0.502273
O3    O     O_R   0.330950 0.862690 0.552980 -0.505421
O4    O     O_R   0.180530 0.983530 0.965090 -0.466611
O5    O     O_R   0.016470 0.197000 0.965090 -0.462688
O6    O     O_R   0.803000 0.819470 0.965090 -0.475869
O7    O     O_R   0.174120 0.688790 0.549730 -0.496254
O8    O     O_R   0.311210 0.485330 0.549730 -0.496320
O9    O     O_R   0.514670 0.825880 0.549730 -0.492258
O10   O     O_R   0.139940 0.470480 0.446230 -0.515783
O11   O     O_R   0.529520 0.669460 0.446230 -0.505667
O12   O     O_R   0.330540 0.860060 0.446230 -0.526633
O13   O     O_R   0.176560 0.690850 0.450770 -0.501571
O14   O     O_R   0.309150 0.485710 0.450770 -0.522019
O15   O     O_R   0.514290 0.823440 0.450770 -0.504306
O16   O     O_3   0.333333 0.666667 0.499990 -0.285376
O17   O     O_3   0.000000 0.000000 0.017910 -0.364215
O18   O     O_R   0.149710 0.171070 0.967700 -0.472612
O19   O     O_R   0.828930 0.978640 0.967700 -0.474690
O20   O     O_R   0.021360 0.850290 0.967700 -0.469756
O21   O     O_R   0.178510 0.985930 0.071830 -0.472523
O22   O     O_R   0.014070 0.192580 0.071830 -0.425612
O23   O     O_R   0.807420 0.821490 0.071830 -0.515804
O24   O     O_R   0.147830 0.173300 0.066650 -0.467497
O25   O     O_R   0.826700 0.974530 0.066650 -0.479341
O26   O     O_R   0.025470 0.852170 0.066650 -0.430215
C85   C     C_2   0.619600 0.976880 0.813724 0.560204
O27   O     O_2   0.683496 0.067833 0.796109 -0.535003
O28   O     O_R   0.550639 0.968550 0.852887 -0.685590
H55   H     H_    0.561602 0.043472 0.863476 0.353051
C86   C     C_2   0.021876 0.644159 0.813090 0.560413
O29   O     O_2   0.930592 0.617580 0.795625 -0.535565
O30   O     O_R   0.030129 0.583570 0.851950 -0.685913
H56   H     H_    0.954865 0.520066 0.862473 0.352556
C87   C     C_2   0.356563 0.376598 0.812640 0.560444
O31   O     O_2   0.383379 0.312452 0.794601 -0.535151
O32   O     O_R   0.417383 0.444742 0.851742 -0.687832
H57   H     H_    0.481246 0.433007 0.861919 0.352372
C88   C     C_2   0.704794 0.042382 0.128518 0.584395
O33   O     O_2   0.741939 0.127767 0.152719 -0.514227
O34   O     O_R   0.679899 0.043398 0.079130 -0.650933
H58   H     H_    0.698848 0.120106 0.067407 0.344225
C89   C     C_2   0.954572 0.699465 0.140660 0.594726
O35   O     O_2   0.856546 0.641004 0.152085 -0.533265
O36   O     O_R   0.000879 0.665585 0.103505 -0.632735
H59   H     H_    0.944109 0.592822 0.087881 0.349473
C90   C     C_2   0.276690 0.364644 0.127712 0.597182
O37   O     O_2   0.375620 0.410069 0.138486 -0.527544
O38   O     O_R   0.243985 0.393962 0.084563 -0.619248
H60   H     H_    0.309729 0.451605 0.064987 0.353262

loop_
_geom_bond_atom_site_label_1
_geom_bond_atom_site_label_2
_ccdc_geom_bond_type
C58   C62   S    
C65   H2    S    
C85   O27   D    
Cr6   O23   S    
C2    C18   S    
C24   C42   A    
C15   C18   T    
C35   O10   A    
C70   H40   S    
Cr6   O6    S    
C67   H34   S    
C6    C9    S    
Cr1   O7    S    
C44   H14   S    
C86   O30   S    
O28   H55   S    
C2    O1    A    
C40   H31   S    
C85   O28   S    
C45   C57   A    
C33   C39   A    
Cr3   O3    S    
C50   C59   A    
Cr1   O1    S    
C37   C40   A    
Cr2   O8    S    
C88   O34   S    
C26   H11   S    
C4    H52   S    
C5    C83   S    
C10   C73   T    
C14   C77   S    
C15   C78   S    
C52   H22   S    
Cr4   O17   S    
C54   H24   S    
C3    O9    A    
C64   H28   S    
Cr3   O16   S    
C12   C84   S    
C61   O22   A    
C23   C26   A    
C79   C85   S    
C36   O15   A    
C49   C88   S    
C45   H15   S    
Cr4   O24   S    
C22   C25   A    
C70   H43   S    
C24   C27   A    
C48   C60   A    
C26   C29   A    
Cr1   O16   S    
C32   C38   A    
C68   H38   S    
C44   C47   A    
Cr1   O10   S    
C49   C52   A    
Cr5   O5    S    
C62   O23   A    
C21   O20   A    
C66   H30   S    
C4    H7    S    
C46   C58   A    
C27   C30   A    
C32   C56   S    
C14   C17   T    
C69   C78   S    
Cr1   O13   S    
C71   H44   S    
C4    C7    S    
C50   C89   S    
Cr2   O2    S    
Cr5   O17   S    
C68   H35   S    
C53   H23   S    
C42   H33   S    
C72   H42   S    
C39   C42   A    
C71   C83   S    
C2    O8    A    
C66   C78   S    
C24   C35   S    
C6    C84   S    
Cr6   O17   S    
C90   O37   D    
C50   C53   A    
C21   O4    A    
C29   H20   S    
C65   C77   S    
C81   C87   S    
C79   H4    S    
C81   H6    S    
C9    H51   S    
C72   H45   S    
C11   C83   S    
O32   H57   S    
C20   O19   A    
C47   C59   A    
C21   C74   S    
C10   C82   S    
C49   C58   A    
C31   C37   A    
Cr6   O20   S    
C60   C61   S    
C25   C28   A    
C19   O18   A    
C41   H32   S    
C69   C72   S    
Cr2   O11   S    
C90   O38   S    
C88   O33   D    
C67   H37   S    
C5    C8    S    
C38   H26   S    
C9    H48   S    
C44   C56   A    
C25   H10   S    
C86   O29   D    
C13   C76   S    
C23   C34   S    
C22   C40   A    
Cr6   O26   S    
Cr3   O9    S    
C64   C76   S    
C80   H5    S    
Cr2   O14   S    
C72   C84   S    
C38   C41   A    
C66   H3    S    
C43   C55   A    
C69   H36   S    
O30   H56   S    
C47   H17   S    
C8    C77   S    
C64   C79   S    
C1    O3    A    
C6    H54   S    
Cr3   O15   S    
C81   C84   S    
C51   C90   S    
C80   C83   S    
C45   C48   A    
C68   C77   S    
C62   O25   A    
C33   C57   S    
C30   C33   A    
C1    C17   S    
C28   C31   A    
C80   C86   S    
C63   O26   A    
C11   C74   T    
C79   C82   S    
C52   C55   A    
C7    C76   S    
C37   H25   S    
C34   O12   A    
C28   H19   S    
C29   C32   A    
C22   C36   S    
C27   H12   S    
C59   C63   S    
C23   C41   A    
C30   H21   S    
C8    H50   S    
C51   C54   A    
C6    H9    S    
C67   C70   S    
C51   C60   A    
C19   C75   S    
C13   C16   T    
C35   O14   A    
Cr5   O25   S    
C7    H46   S    
Cr4   O21   S    
C39   H27   S    
C66   C81   S    
C7    H49   S    
Cr4   O4    S    
O34   H58   S    
C48   H18   S    
C61   O24   A    
C68   C71   S    
Cr4   O18   S    
C46   H16   S    
C19   O5    A    
C20   O6    A    
C20   C73   S    
C1    O7    A    
C9    C78   S    
O36   H59   S    
C70   C82   S    
C43   C46   A    
C43   H13   S    
Cr5   O22   S    
C65   H29   S    
C5    H53   S    
C71   H41   S    
C87   O31   D    
C34   O13   A    
C63   O21   A    
C4    C82   S    
C5    H8    S    
C3    O2    A    
C69   H39   S    
O38   H60   S    
C12   C75   T    
C53   C56   A    
C65   C80   S    
Cr3   O12   S    
C8    H47   S    
C89   O35   D    
C67   C76   S    
C64   H1    S    
C31   C55   S    
Cr2   O16   S    
C89   O36   S    
Cr5   O19   S    
C3    C16   S    
C36   O11   A    
C87   O32   S    
C54   C57   A    
