data_mof_unit_24128.cif
_audit_creation_date              2012-12-10T19:27:26-0500
_audit_creation_method            fapswitch 2.2
_symmetry_space_group_name_H-M    P1
_symmetry_Int_Tables_number       1
_space_group_crystal_system       triclinic
_cell_length_a                    23.398755
_cell_length_b                    10.53449
_cell_length_c                    9.844495
_cell_angle_alpha                 89.87051
_cell_angle_beta                  89.708645
_cell_angle_gamma                 90.025612
_cell_volume                      2426.57063771

loop_
_atom_site_label
_atom_site_type_symbol
_atom_type_description
_atom_site_fract_x
_atom_site_fract_y
_atom_site_fract_z
_atom_type_partial_charge
C1    C     C_R   0.499840 0.258478 0.500354 0.940747
C2    C     C_R   0.499787 0.741504 0.499617 0.931613
C3    C     C_R   0.243758 0.616868 0.404849 0.101110
C4    C     C_R   0.760540 0.450289 0.368344 0.092351
C5    C     C_R   0.303046 0.612028 0.417325 0.343642
C6    C     C_R   0.701388 0.440016 0.380892 0.356115
C7    C     C_R   0.327966 0.517224 0.500470 -0.368513
C8    C     C_R   0.673369 0.492794 0.495974 -0.384393
C9    C     C_R   0.293026 0.438375 0.582880 0.387572
C10   C     C_R   0.706415 0.541942 0.604357 0.357548
C11   C     C_R   0.234012 0.455550 0.582507 0.472749
C12   C     C_R   0.765830 0.533802 0.599237 0.472608
C13   C     C_R   0.209235 0.539678 0.487386 -0.012416
C14   C     C_R   0.792927 0.494889 0.477620 0.005306
C15   C     C_3   0.501610 0.039374 0.628759 0.389783
C16   C     C_3   0.497365 0.960526 0.371024 0.391100
C17   C     C_3   0.547210 0.958117 0.558500 -0.103974
C18   C     C_3   0.451776 0.041898 0.441237 -0.112732
C19   C     C_3   0.499565 0.875393 0.498330 -0.243077
C20   C     C_3   0.499473 0.124555 0.501469 -0.243315
C21   C     C_3   0.453846 0.957467 0.568227 0.348607
C22   C     C_3   0.545124 0.042379 0.431503 0.355210
C23   C     C_R   0.389805 0.502321 0.500349 0.855145
C24   C     C_R   0.610592 0.498378 0.499442 0.879630
C25   C     C_3   0.495150 0.386565 0.047871 0.466406
C26   C     C_3   0.504937 0.613434 0.952144 0.463627
C27   C     C_3   0.541744 0.434038 0.952195 0.033117
C28   C     C_3   0.458318 0.565884 0.047712 0.018249
C29   C     C_3   0.453452 0.452648 0.953164 -0.036011
C30   C     C_3   0.546651 0.547235 0.046899 -0.010222
C31   C     C_R   0.878089 0.623531 0.465808 0.582658
C32   C     C_R   0.123737 0.432299 0.417610 0.577531
C33   C     C_R   0.885223 0.398772 0.442766 0.561260
C34   C     C_R   0.117840 0.645276 0.498774 0.605268
C35   C     C_R   0.944003 0.407903 0.416860 -0.136978
C36   C     C_R   0.058304 0.646970 0.479615 -0.078247
C37   C     C_R   0.971088 0.525843 0.440037 -0.100464
C38   C     C_R   0.031119 0.532458 0.441927 -0.134470
C39   C     C_R   0.938053 0.635992 0.464628 -0.046290
C40   C     C_R   0.063966 0.423369 0.410076 -0.085193
C41   C     C_R   0.976639 0.301992 0.374412 0.404523
C42   C     C_R   0.025824 0.758706 0.499928 0.436884
C43   C     C_R   0.036301 0.309244 0.372719 0.087800
C44   C     C_R   0.965464 0.753641 0.489253 -0.013961
N1    N     N_R   0.853609 0.505923 0.462015 -0.340400
N2    N     N_R   0.148713 0.539577 0.467036 -0.353493
N3    N     N_3   0.499960 0.500030 0.863290 -0.110003
N4    N     N_3   0.500040 0.499970 0.136710 -0.110099
O1    O     O_R   0.500000 0.313960 0.616610 -0.584093
O2    O     O_R   0.500000 0.686040 0.383390 -0.586879
O3    O     O_R   0.500030 0.313950 0.383350 -0.561037
O4    O     O_R   0.499970 0.686050 0.616650 -0.557157
O5    O     O_R   0.416140 0.499970 0.616650 -0.580864
O6    O     O_R   0.583860 0.500030 0.383350 -0.577937
O7    O     O_R   0.416170 0.499960 0.383400 -0.612305
O8    O     O_R   0.583830 0.500040 0.616600 -0.610399
O9    O     O_2   0.844087 0.726694 0.473700 -0.487754
O10   O     O_2   0.157186 0.334480 0.378566 -0.491387
O11   O     O_2   0.859776 0.284109 0.453230 -0.513263
O12   O     O_2   0.144986 0.746907 0.551226 -0.453813
Zn1   Zn    Zn3+2 0.499980 0.500010 0.655740 1.036142
Zn2   Zn    Zn3+2 0.500020 0.499990 0.344260 1.033355
O13   O     O_3   0.951820 0.190856 0.329952 -0.757408
H1    H     H_    0.918891 0.214151 0.272078 0.370783
O14   O     O_3   0.054432 0.871142 0.526446 -0.698475
H2    H     H_    0.027620 0.940143 0.549341 0.326589
N5    N     N_3   0.588032 0.358393 0.895335 -0.365639
H3    H     H_    0.607566 0.311125 0.976150 0.228587
H4    H     H_    0.618437 0.421427 0.856398 0.242712
N6    N     N_3   0.411695 0.640374 0.104408 -0.344445
H5    H     H_    0.393115 0.690410 0.024228 0.223715
H6    H     H_    0.380822 0.576141 0.138848 0.228226
O15   O     O_3   0.489924 0.264851 0.103236 -0.746744
H7    H     H_    0.487558 0.206896 0.024328 0.341858
O16   O     O_3   0.510154 0.735157 0.896814 -0.746477
H8    H     H_    0.512903 0.792998 0.975744 0.341412
N7    N     N_3   0.401338 0.399230 0.897208 -0.365861
H9    H     H_    0.375703 0.370826 0.979010 0.202281
H10   H     H_    0.412883 0.316697 0.845188 0.226310
N8    N     N_3   0.598918 0.599959 0.103043 -0.366766
H11   H     H_    0.624225 0.630085 0.021360 0.213113
H12   H     H_    0.587566 0.681245 0.157502 0.213132
N9    N     N_3   0.068502 0.199389 0.332801 -0.335981
H13   H     H_    0.057854 0.124431 0.397929 0.238490
H14   H     H_    0.056696 0.174378 0.234110 0.225261
N10   N     N_3   0.931823 0.866615 0.506094 -0.351934
H15   H     H_    0.937480 0.901951 0.604267 0.206127
H16   H     H_    0.944645 0.934183 0.434185 0.239657
N11   N     N_3   0.217920 0.700600 0.307895 -0.382102
H17   H     H_    0.233849 0.678013 0.211510 0.219657
H18   H     H_    0.230220 0.793581 0.330538 0.263944
N12   N     N_3   0.788503 0.413683 0.244460 -0.401718
H19   H     H_    0.771404 0.467554 0.165132 0.232933
H20   H     H_    0.779401 0.318111 0.225921 0.248970
O17   O     O_3   0.334873 0.701247 0.346792 -0.732869
H21   H     H_    0.371627 0.714883 0.393918 0.373165
O18   O     O_3   0.672499 0.378505 0.278393 -0.719574
H22   H     H_    0.642407 0.325390 0.321133 0.388389
O19   O     O_3   0.314439 0.342364 0.663892 -0.681692
H23   H     H_    0.351863 0.314334 0.627779 0.314761
O20   O     O_3   0.682463 0.599751 0.716543 -0.699734
H24   H     H_    0.650853 0.654520 0.684843 0.331412
O21   O     O_3   0.201618 0.383141 0.671326 -0.662386
H25   H     H_    0.162480 0.418451 0.676921 0.328831
O22   O     O_3   0.796056 0.571450 0.712493 -0.674037
H26   H     H_    0.835918 0.540722 0.705062 0.329517
N13   N     N_3   0.599294 0.911513 0.621675 -0.376760
H27   H     H_    0.619494 0.851918 0.551621 0.172867
H28   H     H_    0.587207 0.855054 0.704345 0.230852
N14   N     N_3   0.399774 0.088739 0.377796 -0.366627
H29   H     H_    0.411962 0.145800 0.295674 0.234679
H30   H     H_    0.379398 0.147955 0.447893 0.179400
O23   O     O_3   0.503801 0.083245 0.762585 -0.737177
H31   H     H_    0.503009 0.005978 0.820148 0.357501
O24   O     O_3   0.495155 0.916570 0.237232 -0.735021
H32   H     H_    0.495816 0.993810 0.179621 0.357334
O25   O     O_3   0.406595 0.909114 0.638752 -0.706452
H33   H     H_    0.386050 0.984525 0.673963 0.355658
O26   O     O_3   0.592391 0.090318 0.360774 -0.729106
H34   H     H_    0.612648 0.014794 0.324919 0.350347

loop_
_geom_bond_atom_site_label_1
_geom_bond_atom_site_label_2
_ccdc_geom_bond_type
O20   H24   S    
C18   C21   S    
C43   N9    S    
O15   H7    S    
C36   C42   A    
O17   H21   S    
C32   O10   S    
O18   H22   S    
N7    H9    S    
C29   N3    S    
C30   N4    S    
C28   C29   S    
C35   C37   A    
O4    Zn1   S    
C17   N13   S    
C12   O22   S    
C8    C10   A    
N10   H16   S    
C24   O6    A    
O24   H32   S    
O7    Zn2   S    
C33   N1    A    
C15   C17   S    
N14   H29   S    
C21   O25   S    
C2    O2    A    
C8    C24   S    
O5    Zn1   S    
C40   C43   A    
N9    H13   S    
C42   O14   S    
N13   H27   S    
C15   O23   S    
N6    H5    S    
C34   N2    A    
N11   H18   S    
C25   O15   S    
C3    C13   A    
C30   N8    S    
C33   O11   S    
C27   C30   S    
C34   O12   S    
C41   C43   A    
C15   C20   S    
O3    Zn2   S    
C42   C44   A    
C44   N10   S    
C10   C12   A    
C5    O17   S    
C23   O5    A    
C14   N1    S    
N7    H10   S    
C25   C29   S    
C22   O26   S    
O1    Zn1   S    
N5    H3    S    
C6    O18   S    
C4    C6    A    
C5    C7    A    
N10   H15   S    
C17   C19   S    
C6    C8    A    
O6    Zn2   S    
N5    H4    S    
O16   H8    S    
C37   C38   A    
C1    O3    A    
N4    Zn2   S    
O19   H23   S    
N12   H20   S    
C26   O16   S    
C9    C11   A    
C25   N4    S    
C2    O4    A    
C26   N3    S    
N8    H12   S    
N9    H14   S    
C12   C14   A    
C26   C30   S    
O2    Zn2   S    
C24   O8    A    
C41   O13   S    
C16   O24   S    
O23   H31   S    
C27   N3    S    
C7    C9    A    
C28   N4    S    
C1    C20   S    
C16   C22   S    
C19   C21   S    
C2    C19   S    
O8    Zn1   S    
C32   N2    A    
C10   O20   S    
C28   N6    S    
C18   N14   S    
C20   C22   S    
N8    H11   S    
C3    C5    A    
N3    Zn1   S    
C11   O21   S    
O26   H34   S    
C23   O7    A    
C39   C44   A    
C25   C27   S    
O22   H26   S    
C9    O19   S    
C26   C28   S    
C17   C22   S    
C3    N11   S    
C31   O9    S    
C36   C38   A    
C37   C39   A    
O25   H33   S    
C38   C40   A    
C11   C13   A    
N13   H28   S    
C16   C19   S    
C7    C23   S    
N12   H19   S    
C33   C35   A    
C34   C36   A    
C31   C39   A    
C18   C20   S    
C32   C40   A    
C4    C14   A    
C35   C41   A    
N14   H30   S    
C27   N5    S    
O13   H1    S    
C15   C21   S    
C29   N7    S    
C16   C18   S    
O14   H2    S    
C31   N1    A    
O21   H25   S    
C13   N2    S    
N6    H6    S    
N11   H17   S    
C1    O1    A    
C4    N12   S    
