data_mof_unit_49781.cif
_audit_creation_date              2012-12-10T20:25:46-0500
_audit_creation_method            fapswitch 2.2
_symmetry_space_group_name_H-M    P1
_symmetry_Int_Tables_number       1
_space_group_crystal_system       triclinic
_cell_length_a                    8.571727
_cell_length_b                    10.709413
_cell_length_c                    9.930833
_cell_angle_alpha                 89.461718
_cell_angle_beta                  97.877551
_cell_angle_gamma                 91.597048
_cell_volume                      902.664299894

loop_
_atom_site_label
_atom_site_type_symbol
_atom_type_description
_atom_site_fract_x
_atom_site_fract_y
_atom_site_fract_z
_atom_type_partial_charge
C1    C     C_R   0.505332 0.260195 0.501320 0.893603
C2    C     C_R   0.399171 0.422930 0.917301 0.113628
C3    C     C_3   0.223624 0.418232 0.887734 -0.170332
C4    C     C_R   0.202242 0.493695 0.466189 1.022864
C5    C     C_3   0.223442 0.413924 0.042140 0.125913
C6    C     C_R   0.503028 0.739800 0.499821 0.872734
C7    C     C_R   0.797784 0.502643 0.533929 0.881195
C8    C     C_2   0.040204 0.464162 0.457864 -0.185011
C9    C     C_2   0.960468 0.526967 0.542380 -0.172656
C10   C     C_R   0.517877 0.062030 0.625736 0.060663
C11   C     C_R   0.529565 0.128980 0.506184 -0.083017
C12   C     C_R   0.564700 0.937763 0.389788 -0.179330
C13   C     C_R   0.567275 0.067139 0.391306 -0.187339
C14   C     C_2   0.982897 0.343251 0.392345 0.303977
C15   C     C_2   0.728473 0.651376 0.887692 0.330469
C16   C     C_2   0.426566 0.852375 0.840368 0.518559
C17   C     C_R   0.523011 0.871770 0.502664 -0.093845
C18   C     C_R   0.510231 0.934181 0.622553 -0.026261
C19   C     C_3   0.381820 0.924832 0.710833 -0.187810
C20   C     C_3   0.396357 0.066934 0.720871 -0.155350
C21   C     C_R   0.400380 0.421814 0.059247 0.109855
C22   C     C_R   0.608984 0.567467 0.085687 -0.088826
C23   C     C_R   0.610161 0.568722 0.942088 0.048876
H1    H     H_    0.175229 0.504060 0.836585 0.192720
H2    H     H_    0.040984 0.301401 0.814990 0.208766
H3    H     H_    0.029848 0.516623 0.059430 0.221534
H4    H     H_    0.194606 0.604844 0.053364 0.236009
H5    H     H_    0.220550 0.220764 0.058561 0.212842
H6    H     H_    0.199912 0.295716 0.199988 0.256358
H7    H     H_    0.968564 0.714586 0.568410 0.179330
H8    H     H_    0.998937 0.631679 0.713748 0.214965
H9    H     H_    0.542660 0.864119 0.898462 0.058207
H10   H     H_    0.575467 0.077834 0.884532 0.183011
H11   H     H_    0.482302 0.209186 0.846172 0.223570
H12   H     H_    0.588871 0.117703 0.300381 0.167509
H13   H     H_    0.585872 0.890305 0.298397 0.174611
H14   H     H_    0.267447 0.892347 0.653166 0.171777
H15   H     H_    0.287360 0.114712 0.677260 0.192089
H16   H     H_    0.692985 0.624258 0.151684 0.184870
H17   H     H_    0.864492 0.330673 0.339316 0.129093
H18   H     H_    0.719923 0.674015 0.781613 0.140325
H19   H     H_    0.184804 0.310769 0.717566 0.227426
N1    N     N_R   0.498950 0.499140 0.142680 -0.131477
N2    N     N_R   0.498950 0.499180 0.857030 -0.148716
N3    N     N_3   0.163486 0.303578 0.818359 -0.440843
N4    N     N_3   0.150654 0.522587 0.093743 -0.385652
N5    N     N_3   0.164176 0.296217 0.095339 -0.410783
N6    N     N_3   0.025700 0.636928 0.614327 -0.427170
N7    N     N_3   0.463278 0.113387 0.855618 -0.435503
O1    O     O_R   0.500020 0.316790 0.614690 -0.632768
O2    O     O_2   0.837790 0.699258 0.963239 -0.619280
O3    O     O_2   0.331947 0.778594 0.880596 -0.591322
O4    O     O_R   0.500000 0.316760 0.385350 -0.632770
O5    O     O_R   0.271760 0.500010 0.587850 -0.608657
O6    O     O_R   0.271740 0.499970 0.358500 -0.598549
O7    O     O_R   0.500000 0.683240 0.614650 -0.640766
O8    O     O_R   0.499980 0.683210 0.385310 -0.612744
O9    O     O_R   0.728260 0.500030 0.641500 -0.651211
O10   O     O_R   0.728240 0.499990 0.412150 -0.643013
O11   O     O_2   0.068657 0.253535 0.401584 -0.611383
Zn1   Zn    Zn3+2 0.500010 0.500020 0.653130 0.941233
Zn2   Zn    Zn3+2 0.499990 0.499980 0.346870 0.953802

loop_
_geom_bond_atom_site_label_1
_geom_bond_atom_site_label_2
_ccdc_geom_bond_type
C12   C17   A    
H5    N5    S    
C20   N7    S    
O5    Zn1   S    
C15   O2    D    
N2    Zn1   S    
C16   H9    S    
C14   O11   D    
C5    N4    S    
C19   C20   S    
C7    O9    A    
C22   N1    A    
C1    C11   S    
C4    C8    S    
C3    C5    S    
O9    Zn1   S    
C15   C23   S    
C2    C3    S    
C5    C21   S    
O8    Zn2   S    
C21   N1    A    
C6    O7    A    
C5    N5    S    
C6    O8    A    
C3    H1    S    
C2    C21   A    
C16   C19   S    
C22   H16   S    
H4    N4    S    
H7    N6    S    
H6    N5    S    
C13   H12   S    
H8    N6    S    
C4    O6    A    
C10   C18   A    
O4    Zn2   S    
C12   H13   S    
C10   C11   A    
H3    N4    S    
C14   H17   S    
O6    Zn2   S    
H2    N3    S    
C11   C13   A    
C20   H15   S    
C12   C13   A    
C15   H18   S    
C9    N6    S    
C17   C18   A    
C18   C19   S    
C1    O1    A    
C10   C20   S    
C7    C9    S    
C6    C17   S    
C1    O4    A    
O7    Zn1   S    
H11   N7    S    
C8    C14   S    
C19   H14   S    
C4    O5    A    
C22   C23   A    
H10   N7    S    
O1    Zn1   S    
C3    N3    S    
C7    O10   A    
C23   N2    A    
C16   O3    D    
N1    Zn2   S    
C2    N2    A    
C8    C9    D    
O10   Zn2   S    
H19   N3    S    
