data_mof_unit_14545.cif
_audit_creation_date              2012-12-10T17:02:18-0500
_audit_creation_method            fapswitch 2.2
_symmetry_space_group_name_H-M    P1
_symmetry_Int_Tables_number       1
_space_group_crystal_system       triclinic
_cell_length_a                    10.669564
_cell_length_b                    10.667749
_cell_length_c                    10.033741
_cell_angle_alpha                 89.937021
_cell_angle_beta                  90.361163
_cell_angle_gamma                 91.022106
_cell_volume                      1141.8377604

loop_
_atom_site_label
_atom_site_type_symbol
_atom_type_description
_atom_site_fract_x
_atom_site_fract_y
_atom_site_fract_z
_atom_type_partial_charge
C1    C     C_R   0.486398 0.263495 0.499900 0.941057
C2    C     C_2   0.447049 0.135017 0.500418 -0.331036
C3    C     C_2   0.567866 0.577178 0.925308 -0.124668
C4    C     C_R   0.260701 0.504559 0.499568 0.859857
C5    C     C_2   0.572687 0.572699 0.075354 -0.122933
C6    C     C_R   0.504790 0.737997 0.499759 0.853755
C7    C     C_R   0.739702 0.504911 0.500672 0.867546
C8    C     C_R   0.136664 0.698754 0.650210 -0.176774
C9    C     C_R   0.074442 0.782773 0.731552 -0.131554
C10   C     C_R   0.944627 0.776840 0.740434 -0.145054
C11   C     C_R   0.876529 0.689234 0.665233 -0.194893
C12   C     C_R   0.069189 0.605258 0.577936 0.096659
C13   C     C_R   0.937813 0.602318 0.582749 0.098930
C14   C     C_3   0.625463 0.931191 0.579729 -0.399160
C15   C     C_3   0.735821 0.975294 0.492404 -0.322374
C16   C     C_3   0.823518 0.065398 0.567656 -0.871510
C17   C     C_R   0.128873 0.515568 0.498278 -0.098990
C18   C     C_R   0.062312 0.431452 0.417752 -0.214404
C19   C     C_R   0.934316 0.431105 0.419020 -0.209745
C20   C     C_R   0.872484 0.513662 0.502201 -0.108133
C21   C     C_2   0.449522 0.931848 0.405152 -0.199890
C22   C     C_2   0.519857 0.871578 0.496227 -0.031997
C23   C     C_2   0.454775 0.066069 0.391068 -0.178061
H1    H     H_    0.109756 0.363686 0.356326 0.155217
H2    H     H_    0.776180 0.691393 0.672634 0.147772
H3    H     H_    0.883166 0.363623 0.357737 0.160715
H4    H     H_    0.386508 0.880784 0.338112 0.156655
H5    H     H_    0.476098 0.105968 0.293985 0.172894
H6    H     H_    0.773636 0.152728 0.592826 0.263220
H7    H     H_    0.858189 0.021583 0.660763 0.260346
H8    H     H_    0.905090 0.090394 0.504135 0.248975
H9    H     H_    0.789250 0.892356 0.459725 0.215252
H10   H     H_    0.702121 0.024127 0.401638 0.234218
H11   H     H_    0.592298 0.007703 0.643760 0.210097
H12   H     H_    0.416193 0.093952 0.594177 0.149399
H13   H     H_    0.661277 0.862180 0.652361 0.173494
H14   H     H_    0.625591 0.647736 0.876054 0.148142
H15   H     H_    0.451229 0.430523 0.897548 0.162393
H16   H     H_    0.639263 0.635003 0.125286 0.159198
H17   H     H_    0.433980 0.446681 0.101811 0.160469
H18   H     H_    0.237325 0.709322 0.643499 0.155265
H19   H     H_    0.127081 0.852959 0.787387 0.133421
H20   H     H_    0.896248 0.841530 0.804313 0.126567
N1    N     N_2   0.501340 0.501330 0.852150 -0.189542
N2    N     N_2   0.501380 0.501360 0.147810 -0.193095
O1    O     O_R   0.499980 0.319060 0.613040 -0.617434
O2    O     O_R   0.500020 0.319100 0.386900 -0.613050
O3    O     O_R   0.316750 0.499980 0.613090 -0.617519
O4    O     O_R   0.316790 0.500020 0.386950 -0.615907
O5    O     O_R   0.499980 0.680900 0.613100 -0.632847
O6    O     O_R   0.500020 0.680940 0.386960 -0.613518
O7    O     O_R   0.683210 0.499980 0.613050 -0.615717
O8    O     O_R   0.683250 0.500020 0.386910 -0.608339
Zn1   Zn    Zn3+2 0.499970 0.499970 0.650990 0.930344
Zn2   Zn    Zn3+2 0.500030 0.500030 0.349010 0.936287

loop_
_geom_bond_atom_site_label_1
_geom_bond_atom_site_label_2
_ccdc_geom_bond_type
C2    H12   S    
C12   C17   A    
H15   N1    S    
C6    O6    A    
C9    C10   A    
C10   H20   S    
C19   C20   A    
C5    H16   S    
C4    O4    A    
C8    C12   A    
C14   C22   S    
C21   C23   S    
C17   C18   A    
C21   H4    S    
C15   H9    S    
C23   H5    S    
C6    O5    A    
C16   H8    S    
O3    Zn1   S    
C11   C13   A    
O1    Zn1   S    
C9    H19   S    
O5    Zn1   S    
C14   H11   S    
C18   H1    S    
C4    C17   S    
C21   C22   D    
O7    Zn1   S    
C7    O7    A    
C1    C2    S    
O6    Zn2   S    
O8    Zn2   S    
C14   H13   S    
H17   N2    S    
C3    N1    D    
C1    O1    A    
C10   C11   A    
C7    O8    A    
C16   H7    S    
C15   C16   S    
C6    C22   S    
N1    Zn1   S    
C12   C13   A    
N2    Zn2   S    
O2    Zn2   S    
C18   C19   A    
C4    O3    A    
C2    C23   D    
C19   H3    S    
C11   H2    S    
C14   C15   S    
C1    O2    A    
C13   C20   A    
C8    H18   S    
C16   H6    S    
O4    Zn2   S    
C5    N2    D    
C7    C20   S    
C3    H14   S    
C15   H10   S    
C8    C9    A    
C3    C5    S    
