data_mof_unit_56171.cif
_audit_creation_date              2012-12-10T17:21:40-0500
_audit_creation_method            fapswitch 2.2
_symmetry_space_group_name_H-M    P1
_symmetry_Int_Tables_number       1
_space_group_crystal_system       triclinic
_cell_length_a                    10.731814
_cell_length_b                    10.849112
_cell_length_c                    9.636291
_cell_angle_alpha                 90.545094
_cell_angle_beta                  89.596374
_cell_angle_gamma                 93.518928
_cell_volume                      1119.77013616

loop_
_atom_site_label
_atom_site_type_symbol
_atom_type_description
_atom_site_fract_x
_atom_site_fract_y
_atom_site_fract_z
_atom_type_partial_charge
C1    C     C_R   0.509920 0.263519 0.499705 0.813990
C2    C     C_3   0.877951 0.499137 0.500421 0.165066
C3    C     C_3   0.935813 0.615154 0.425458 -0.470821
C4    C     C_3   0.921238 0.382152 0.422736 0.018333
C5    C     C_R   0.596900 0.126845 0.743863 -0.177943
C6    C     C_R   0.584321 0.073123 0.874234 0.189863
C7    C     C_R   0.518660 0.958040 0.887420 0.174714
C8    C     C_R   0.481204 0.891971 0.767472 -0.246441
C9    C     C_R   0.505191 0.941346 0.633841 0.058151
C10   C     C_R   0.543247 0.067354 0.625574 0.037988
C11   C     C_R   0.522237 0.130030 0.500522 -0.081432
C12   C     C_R   0.260075 0.499359 0.500481 0.758739
C13   C     C_R   0.494126 0.062432 0.379290 -0.209276
C14   C     C_R   0.484024 0.934898 0.382177 -0.219118
C15   C     C_R   0.489632 0.872408 0.507843 -0.100841
C16   C     C_R   0.668288 0.663913 0.143823 -0.133021
C17   C     C_R   0.750808 0.744032 0.071946 -0.193152
C18   C     C_R   0.750589 0.744246 0.928804 -0.192590
C19   C     C_R   0.667858 0.664345 0.856541 -0.140347
C20   C     C_R   0.582745 0.580546 0.925307 0.157058
C21   C     C_R   0.582760 0.580438 0.074652 0.189134
C22   C     C_R   0.421840 0.423597 0.075667 -0.065702
C23   C     C_R   0.493907 0.737477 0.501896 0.775882
C24   C     C_R   0.420060 0.422972 0.928929 0.257262
C25   C     C_R   0.739885 0.500533 0.499914 0.776516
C26   C     C_3   0.070244 0.498221 0.652064 -0.387030
C27   C     C_3   0.928033 0.502648 0.651874 -0.366534
C28   C     C_3   0.079686 0.615529 0.427137 -0.374455
C29   C     C_3   0.065963 0.381938 0.424723 -0.429522
C30   C     C_3   0.121946 0.498860 0.501169 0.147480
Cu1   Cu    Cu3+1 0.499990 0.499990 0.640660 0.908867
Cu2   Cu    Cu3+1 0.500010 0.500010 0.359340 0.920351
H1    H     H_    0.111401 0.579094 0.711591 0.173325
H2    H     H_    0.891513 0.387087 0.312382 0.155761
H3    H     H_    0.115738 0.618650 0.318556 0.174175
H4    H     H_    0.903475 0.616450 0.316050 0.170992
H5    H     H_    0.478612 0.107992 0.282135 0.156769
H6    H     H_    0.648192 0.215605 0.736614 0.186588
H7    H     H_    0.426397 0.806325 0.781661 0.173810
H8    H     H_    0.468091 0.884565 0.286273 0.186100
H9    H     H_    0.357971 0.361072 0.132301 0.141310
H10   H     H_    0.095827 0.413154 0.705868 0.160725
H11   H     H_    0.675271 0.671573 0.253448 0.193712
H12   H     H_    0.814994 0.806914 0.128057 0.138830
H13   H     H_    0.814367 0.807510 0.873013 0.138739
H14   H     H_    0.673764 0.673069 0.747003 0.196589
H15   H     H_    0.885694 0.424449 0.713488 0.179870
H16   H     H_    0.902106 0.589112 0.704937 0.163910
H17   H     H_    0.118644 0.700169 0.481502 0.155560
H18   H     H_    0.905193 0.700479 0.477178 0.156513
H19   H     H_    0.101539 0.379779 0.315976 0.155260
H20   H     H_    0.097257 0.297770 0.475992 0.150412
N1    N     N_R   0.501200 0.501210 0.147910 -0.219900
N2    N     N_R   0.501250 0.501290 0.852040 -0.219278
O1    O     O_R   0.499990 0.319640 0.618810 -0.595628
O2    O     O_R   0.500000 0.319660 0.381240 -0.578154
O3    O     O_R   0.317680 0.499970 0.618790 -0.607284
O4    O     O_R   0.317700 0.499990 0.381210 -0.584819
O5    O     O_R   0.500000 0.680340 0.618760 -0.608850
O6    O     O_R   0.500010 0.680360 0.381190 -0.596715
O7    O     O_R   0.682300 0.500010 0.618790 -0.606056
O8    O     O_R   0.682320 0.500030 0.381210 -0.600310
N3    N     N_3   0.633720 0.139551 0.992678 -0.595206
H21   H     H_    0.559295 0.159331 0.057945 0.225943
H22   H     H_    0.691664 0.082318 0.045921 0.232850
N4    N     N_3   0.490559 0.909239 0.022447 -0.604193
H23   H     H_    0.420298 0.961076 0.064514 0.196976
H24   H     H_    0.452927 0.818244 0.014936 0.215333
N5    N     N_3   0.329742 0.336861 0.866824 -0.607100
H25   H     H_    0.334018 0.335483 0.760163 0.285057
H26   H     H_    0.241170 0.364880 0.893588 0.176439
N6    N     N_3   0.862276 0.268205 0.481146 -0.619427
H27   H     H_    0.881340 0.194621 0.414994 0.217880
H28   H     H_    0.901754 0.250111 0.577128 0.222319

loop_
_geom_bond_atom_site_label_1
_geom_bond_atom_site_label_2
_ccdc_geom_bond_type
C27   H16   S    
N4    H24   S    
N3    H22   S    
C16   C21   A    
Cu1   O7    S    
C19   C20   A    
C1    C11   S    
Cu2   O4    S    
C19   H14   S    
C7    C8    A    
C23   O5    A    
C26   C27   S    
C3    C28   S    
C1    O2    A    
C5    C6    A    
C22   H9    S    
C24   N2    A    
C18   C19   A    
Cu1   O5    S    
N5    H26   S    
C28   H3    S    
C8    C9    A    
C2    C27   S    
C8    H7    S    
C9    C10   A    
C13   H5    S    
C4    C29   S    
C12   O4    A    
C15   C23   S    
N4    H23   S    
C13   C14   A    
C3    H18   S    
C24   N5    S    
C22   N1    A    
C23   O6    A    
C4    H2    S    
C20   N2    A    
C16   C17   A    
C6    N3    S    
C2    C4    S    
C29   C30   S    
C28   H17   S    
C26   H1    S    
Cu1   Cu2   S    
C17   C18   A    
C25   O7    A    
C16   H11   S    
C12   O3    A    
N6    H28   S    
C26   C30   S    
C22   C24   A    
Cu2   O6    S    
C18   H13   S    
Cu2   N1    S    
C4    N6    S    
C26   H10   S    
C29   H19   S    
C27   H15   S    
C12   C30   S    
N6    H27   S    
C6    C7    A    
Cu1   O3    S    
C28   C30   S    
C2    C3    S    
C1    O1    A    
C17   H12   S    
Cu2   O8    S    
C5    C10   A    
C7    N4    S    
C21   N1    A    
C11   C13   A    
C3    H4    S    
C2    C25   S    
C25   O8    A    
Cu1   N2    S    
C9    C15   A    
N5    H25   S    
C10   C11   A    
C14   H8    S    
N3    H21   S    
C20   C21   A    
C14   C15   A    
Cu1   O1    S    
C5    H6    S    
Cu2   O2    S    
C29   H20   S    
