data_mof_unit_18387.cif
_audit_creation_date              2013-03-05T15:43:03-0500
_audit_creation_method            fapswitch 2.2
_symmetry_space_group_name_H-M    P1
_symmetry_Int_Tables_number       1
_space_group_crystal_system       triclinic
_cell_length_a                    9.697787
_cell_length_b                    10.93582
_cell_length_c                    15.435479
_cell_angle_alpha                 89.513921
_cell_angle_beta                  74.145577
_cell_angle_gamma                 89.294425
_cell_volume                      1574.56848451

loop_
_atom_site_label
_atom_site_type_symbol
_atom_site_description
_atom_site_fract_x
_atom_site_fract_y
_atom_site_fract_z
_atom_type_partial_charge
O1    O     O_R   0.117050 0.321960 0.499980 -0.540285
O2    O     O_R   0.882890 0.321920 0.500020 -0.589452
C1    C     C_R   0.999907 0.265326 0.502058 0.879728
O3    O     O_R   0.052910 0.500040 0.629810 -0.497489
O4    O     O_R   0.818750 0.499990 0.629840 -0.585305
C2    C     C_R   0.917381 0.504468 0.672380 0.856065
Cu1   Cu    Cu3+1 0.138640 0.500020 0.499980 1.043798
Cu2   Cu    Cu3+1 0.861360 0.499980 0.500020 0.987213
O5    O     O_R   0.117110 0.678080 0.499980 -0.575229
O6    O     O_R   0.882950 0.678040 0.500020 -0.513209
O7    O     O_R   0.181250 0.500010 0.370160 -0.594239
O8    O     O_R   0.947090 0.499960 0.370190 -0.587958
C3    C     C_R   0.998817 0.734833 0.500395 0.892375
C4    C     C_R   0.082805 0.497756 0.327714 0.798896
C5    C     C_R   0.872656 0.514181 0.771526 -0.157603
C6    C     C_R   0.129095 0.482480 0.229514 -0.095966
C7    C     C_R   0.913267 0.564636 0.915003 -0.148548
C8    C     C_R   0.963680 0.558758 0.821309 0.313628
C9    C     C_R   0.732448 0.480328 0.816711 -0.242333
C10   C     C_R   0.677744 0.491161 0.910733 0.021194
C11   C     C_R   0.771180 0.534154 0.960071 0.066894
C12   C     C_R   0.531908 0.464555 0.956326 0.067965
C13   C     C_R   0.479715 0.488986 0.050011 0.051589
C14   C     C_R   0.578228 0.525053 0.097409 -0.310647
C15   C     C_R   0.721729 0.548701 0.053541 0.403342
C16   C     C_R   0.436305 0.414276 0.911628 -0.162858
C17   C     C_R   0.293828 0.392728 0.956322 -0.104484
C18   C     C_R   0.238787 0.422519 0.047022 0.076818
C19   C     C_R   0.330934 0.473691 0.094147 0.044180
C20   C     C_R   0.093086 0.400732 0.091397 0.443180
C21   C     C_R   0.039757 0.429931 0.183118 -0.244680
C22   C     C_R   0.270842 0.508633 0.184090 -0.233063
H1    H     H_    0.331818 0.557068 0.221259 0.159313
H2    H     H_    0.929910 0.408781 0.218655 0.150653
H3    H     H_    0.226274 0.353121 0.918643 0.223420
H4    H     H_    0.984365 0.599333 0.952149 0.222791
H5    H     H_    0.666710 0.448642 0.775855 0.172313
H6    H     H_    0.547771 0.533182 0.169557 0.133390
H7    H     H_    0.467958 0.387337 0.842069 0.164729
C23   C     C_2   0.876985 0.934988 0.519467 0.446468
C24   C     C_2   0.998604 0.867388 0.496635 -0.303959
H8    H     H_    0.102934 0.908752 0.471375 0.109556
C25   C     C_2   0.882866 0.069275 0.509914 -0.278543
C26   C     C_2   0.999607 0.133392 0.510059 -0.322741
H9    H     H_    0.786106 0.116444 0.504762 0.184667
H10   H     H_    0.095430 0.090455 0.520032 0.190431
C27   C     C_2   0.402417 0.424302 0.548656 0.435623
N1    N     N_2   0.346430 0.498660 0.500980 -0.329415
H11   H     H_    0.407687 0.568539 0.466424 0.165469
C28   C     C_2   0.556267 0.430074 0.552330 -0.104163
N2    N     N_2   0.652550 0.498630 0.501000 -0.295244
H12   H     H_    0.588069 0.370698 0.600338 0.175476
H13   H     H_    0.625847 0.550292 0.452079 0.189609
O9    O     O_3   0.814991 0.588346 0.100879 -0.739965
H14   H     H_    0.763889 0.594253 0.165802 0.321400
O10   O     O_3   0.006269 0.347719 0.044817 -0.731649
H15   H     H_    0.908933 0.336777 0.086033 0.335647
O11   O     O_3   0.745517 0.878412 0.550063 -0.682223
H16   H     H_    0.669167 0.942083 0.565100 0.337012
N3    N     N_R   0.315789 0.331456 0.601876 0.145344
O12   O     O_R   0.337560 0.218242 0.576103 -0.381817
O13   O     O_R   0.249451 0.354219 0.685532 -0.331454
N4    N     N_R   0.102984 0.606727 0.778296 0.150195
O14   O     O_R   0.116382 0.692524 0.717704 -0.334122
O15   O     O_R   0.209444 0.584310 0.812453 -0.341729

loop_
_geom_bond_atom_site_label_1
_geom_bond_atom_site_label_2
_geom_bond_distance
_ccdc_geom_bond_type
O4    Cu2   1.932273 S    
C14   H6    1.075481 S    
C13   C14   1.414075 A    
N4    O15   1.301137 A    
C14   C15   1.397519 A    
C6    C22   1.393798 A    
C7    H4    1.083646 S    
C5    C8    1.412411 A    
C24   H8    1.083080 S    
C28   H12   1.085193 S    
C27   N1    1.301867 D    
Cu2   O8    1.948551 S    
Cu1   N1    2.019247 S    
C18   C20   1.413911 A    
C28   N2    1.290205 D    
C27   N3    1.428743 S    
C21   H2    1.083434 S    
Cu1   Cu2   2.688839 S    
O1    Cu1   1.961018 S    
C15   O9    1.384195 S    
C6    C21   1.397126 A    
C5    C9    1.400769 A    
C25   H9    1.086779 S    
Cu2   N2    2.021150 S    
C16   C17   1.387452 A    
O4    C2    1.301278 A    
C16   H7    1.075572 S    
O3    Cu1   1.948548 S    
N1    H11   1.025927 S    
C13   C19   1.428574 A    
C3    C24   1.450266 S    
C23   C24   1.348186 D    
O8    C4    1.300248 A    
Cu1   O7    1.932273 S    
C27   C28   1.510591 S    
O2    C1    1.293712 A    
C23   C25   1.474914 S    
C25   C26   1.339519 D    
N3    O13   1.300317 A    
C20   C21   1.406186 A    
C8    N4    1.436134 S    
O7    C4    1.297663 A    
C4    C6    1.468898 S    
C1    C26   1.447008 S    
O11   H16   0.991501 S    
O3    C2    1.299487 A    
C19   C22   1.405166 A    
O10   H15   0.991688 S    
C10   C12   1.429319 A    
N2    H13   1.025891 S    
N4    O14   1.301414 A    
C23   O11   1.384496 S    
C10   C11   1.419750 A    
C7    C8    1.396124 A    
C12   C16   1.416478 A    
C17   C18   1.395058 A    
Cu1   O5    1.955835 S    
O5    C3    1.296060 A    
C12   C13   1.421983 A    
C18   C19   1.419581 A    
C11   C15   1.400289 A    
C9    H5    1.073773 S    
C17   H3    1.083740 S    
C2    C5    1.476610 S    
O9    H14   0.991444 S    
C20   O10   1.382655 S    
Cu2   O6    1.961017 S    
O2    Cu2   1.955836 S    
C9    C10   1.407970 A    
C22   H1    1.075926 S    
C26   H10   1.083465 S    
N3    O12   1.300672 A    
O1    C1    1.293160 A    
O6    C3    1.291967 A    
C7    C11   1.406191 A    
