data_mof_unit_20586.cif
_audit_creation_date              2012-12-11T15:37:09-0500
_audit_creation_method            fapswitch 2.2
_symmetry_space_group_name_H-M    P1
_symmetry_Int_Tables_number       1
_space_group_crystal_system       triclinic
_cell_length_a                    8.529071
_cell_length_b                    17.354936
_cell_length_c                    18.933678
_cell_angle_alpha                 98.329344
_cell_angle_beta                  94.670144
_cell_angle_gamma                 97.069059
_cell_volume                      2737.85676289

loop_
_atom_site_label
_atom_site_type_symbol
_atom_type_description
_atom_site_fract_x
_atom_site_fract_y
_atom_site_fract_z
_atom_type_partial_charge
Ba1   Ba    Ba6+2 0.162080 0.538580 0.468810 1.791632
Ba2   Ba    Ba6+2 0.648090 0.461410 0.531130 1.705890
C1    C     C_3   0.373470 0.914849 0.381398 -0.450342
C2    C     C_3   0.643191 0.781773 0.480020 -0.112800
C3    C     C_2   0.708725 0.867666 0.490936 -0.132135
C4    C     C_3   0.903979 0.742968 0.271504 0.249092
C5    C     C_2   0.866072 0.889489 0.510007 0.078968
C6    C     C_2   0.967937 0.825950 0.523135 -0.136337
C7    C     C_1   0.904421 0.749772 0.513504 0.059666
C8    C     C_R   0.104294 0.140588 0.529454 -0.085283
C9    C     C_R   0.163065 0.220539 0.540149 0.016373
C10   C     C_R   0.919932 0.249549 0.479217 0.069634
C11   C     C_R   0.860833 0.168608 0.468391 -0.124507
C12   C     C_3   0.458120 0.851389 0.340682 0.292116
C13   C     C_R   0.952746 0.113056 0.493472 -0.048730
C14   C     C_2   0.932585 0.975170 0.521427 -0.057937
C15   C     C_2   0.900236 0.025991 0.474729 -0.040402
C16   C     C_3   0.976976 0.814720 0.241614 -0.278685
C17   C     C_R   0.070232 0.274767 0.516506 -0.284563
C18   C     C_R   0.620462 0.522228 0.297943 -0.287771
C19   C     C_R   0.461729 0.489633 0.276101 0.055796
C20   C     C_R   0.402622 0.484664 0.204600 -0.013188
C21   C     C_R   0.501055 0.507676 0.153438 -0.068416
C22   C     C_R   0.663145 0.539192 0.174537 -0.126846
C23   C     C_3   0.600398 0.709544 0.668275 0.156526
C24   C     C_R   0.722268 0.547564 0.248438 -0.029806
C25   C     C_R   0.387986 0.565462 0.049006 -0.115500
C26   C     C_R   0.336751 0.558631 0.974619 -0.006329
C27   C     C_R   0.330347 0.485695 0.929458 0.039815
C28   C     C_3   0.800084 0.348097 0.299123 0.217294
C29   C     C_R   0.366870 0.419913 0.958553 -0.097024
C30   C     C_R   0.414164 0.424631 0.031763 0.002802
C31   C     C_R   0.430299 0.498432 0.077315 -0.019113
C32   C     C_R   0.135389 0.437663 0.821336 -0.039359
C33   C     C_R   0.087719 0.433654 0.748195 0.045441
C34   C     C_3   0.590045 0.800107 0.690327 -0.303187
C35   C     C_R   0.344940 0.505887 0.733226 -0.017550
C36   C     C_R   0.389702 0.511303 0.806800 -0.101115
C37   C     C_R   0.285698 0.476790 0.851034 0.016748
C38   C     C_R   0.194244 0.466374 0.704156 -0.299522
C39   C     C_3   0.799878 0.311168 0.220024 -0.235856
C40   C     C_3   0.036929 0.688027 0.716013 0.181059
C41   C     C_3   0.027840 0.743427 0.789334 -0.222404
C42   C     C_3   0.249993 0.300600 0.369540 0.243233
C43   C     C_3   0.282927 0.215080 0.360085 -0.261927
C44   C     C_2   0.454232 0.862899 0.263369 0.594865
C45   C     C_3   0.815839 0.243559 0.658831 0.347072
C46   C     C_2   0.834220 0.372423 0.172851 0.403961
C47   C     C_2   0.917305 0.253348 0.211478 0.626128
C48   C     C_2   0.205285 0.685827 0.713531 0.420540
C49   C     C_2   0.959190 0.605295 0.715040 0.430571
C50   C     C_2   0.118432 0.824939 0.792660 0.526018
C51   C     C_2   0.864871 0.751794 0.811317 0.520051
C52   C     C_2   0.206227 0.168687 0.290310 0.516526
C53   C     C_2   0.548307 0.687044 0.590293 0.415568
C54   C     C_2   0.738030 0.851501 0.678290 0.438593
C55   C     C_2   0.545858 0.821800 0.765894 0.656655
C56   C     C_3   0.786057 0.157416 0.669604 -0.250873
C57   C     C_2   0.213428 0.244566 0.709473 0.429273
C58   C     C_2   0.473498 0.321427 0.746208 0.492400
C59   C     C_2   0.384889 0.197868 0.841906 0.588951
C60   C     C_2   0.365704 0.095362 0.732987 0.596352
C61   C     C_2   0.830233 0.996293 0.399861 0.506367
C62   C     C_2   0.735005 0.722161 0.238280 0.378167
C63   C     C_2   0.280293 0.625448 0.944136 0.519250
C64   C     C_2   0.392607 0.640682 0.099186 0.515301
C65   C     C_2   0.446257 0.350328 0.056900 0.469344
C66   C     C_2   0.765274 0.561703 0.118351 0.494368
C67   C     C_3   0.389613 0.239838 0.716182 0.103746
C68   C     C_2   0.685192 0.525168 0.372400 0.537155
C69   C     C_3   0.432194 0.179000 0.766451 -0.176877
C70   C     C_2   0.773281 0.730489 0.468462 -0.042498
H1    H     H_    0.238358 0.186742 0.404658 0.081577
H2    H     H_    0.264560 0.654115 0.750413 -0.054982
H3    H     H_    0.937168 0.564416 0.665352 0.004353
H4    H     H_    0.210817 0.847503 0.836168 0.042566
H5    H     H_    0.087727 0.718086 0.833166 0.085646
H6    H     H_    0.827691 0.809573 0.819902 -0.019383
H7    H     H_    0.120265 0.302332 0.367442 -0.030035
H8    H     H_    0.306889 0.329162 0.423365 0.066334
H9    H     H_    0.246440 0.908484 0.361002 0.151470
H10   H     H_    0.243456 0.183940 0.240062 0.062164
H11   H     H_    0.413001 0.213600 0.362205 0.112659
H12   H     H_    0.495070 0.817780 0.654726 0.118689
H13   H     H_    0.584961 0.859180 0.360675 0.018630
H14   H     H_    0.430731 0.974290 0.375340 0.070635
H15   H     H_    0.721847 0.697941 0.678725 0.068267
H16   H     H_    0.447963 0.709526 0.567199 0.064992
H17   H     H_    0.826220 0.827149 0.647846 0.047032
H18   H     H_    0.541486 0.779900 0.803168 0.028114
H19   H     H_    0.379659 0.911888 0.439473 0.132296
H20   H     H_    0.905762 0.863869 0.250871 0.136194
H21   H     H_    0.719752 0.255553 0.620646 0.091726
H22   H     H_    0.927729 0.252435 0.633915 -0.014241
H23   H     H_    0.660362 0.132361 0.654000 0.092232
H24   H     H_    0.858514 0.121672 0.635338 0.103189
H25   H     H_    0.817424 0.151048 0.726340 0.197445
H26   H     H_    0.171251 0.293413 0.687749 -0.146430
H27   H     H_    0.467406 0.368033 0.714432 0.015188
H28   H     H_    0.262179 0.201987 0.851134 0.051955
H29   H     H_    0.563396 0.180950 0.771256 0.116017
H30   H     H_    0.909582 0.758669 0.330700 0.050706
H31   H     H_    0.398569 0.071479 0.680930 0.015493
H32   H     H_    0.763579 0.032268 0.369834 0.010792
H33   H     H_    0.092522 0.843012 0.542196 0.134510
H34   H     H_    0.001325 0.997775 0.572626 0.103350
H35   H     H_    0.181258 0.099630 0.545431 0.075813
H36   H     H_    0.745388 0.149173 0.438866 0.077166
H37   H     H_    0.782160 0.703197 0.414324 0.076698
H38   H     H_    0.119569 0.336164 0.523249 0.062723
H39   H     H_    0.503455 0.543698 0.829853 0.121882
H40   H     H_    0.707946 0.715946 0.180580 0.037727
H41   H     H_    0.353699 0.682106 0.951147 0.056881
H42   H     H_    0.377380 0.639564 0.155387 0.093103
H43   H     H_    0.280706 0.459088 0.187702 0.159959
H44   H     H_    0.357696 0.364008 0.923393 0.092991
H45   H     H_    0.629945 0.911669 0.487959 0.054555
H46   H     H_    0.471498 0.301743 0.018605 0.084844
H47   H     H_    0.053499 0.412992 0.855626 0.103346
H48   H     H_    0.712031 0.574157 0.068047 0.010847
H49   H     H_    0.156646 0.464387 0.647862 0.045844
H50   H     H_    0.771296 0.487701 0.385704 -0.000249
H51   H     H_    0.099136 0.834109 0.267312 0.154531
H52   H     H_    0.983220 0.799755 0.182881 0.140731
H53   H     H_    0.692501 0.377332 0.303721 -0.055861
H54   H     H_    0.908871 0.390435 0.316556 0.048386
H55   H     H_    0.514663 0.916742 0.249744 -0.038543
H56   H     H_    0.678874 0.279224 0.201484 0.127249
H57   H     H_    0.737148 0.393589 0.144737 0.052111
H58   H     H_    0.043050 0.273602 0.224560 0.009625
O1    O     O_2   0.166667 0.691630 0.546720 -0.448015
O2    O     O_2   0.760959 0.438582 0.748170 -0.392163
O3    O     O_3   0.824982 0.294136 0.724889 -0.571389
O4    O     O_3   0.893830 0.593690 0.541700 -0.445744
O5    O     O_3   0.426330 0.460710 0.414310 -0.456607
O6    O     O_2   0.638540 0.536570 0.671920 -0.419193
O7    O     O_3   0.508583 0.663402 0.709654 -0.615674
O8    O     O_2   0.470003 0.218811 0.514693 -0.487539
O9    O     O_3   0.446065 0.214566 0.649058 -0.654183
O10   O     O_3   0.390350 0.644650 0.417800 -0.378402
O11   O     O_2   0.313072 0.779249 0.474310 -0.511139
O12   O     O_3   0.311099 0.336901 0.314072 -0.640904
O13   O     O_3   0.977785 0.722145 0.657495 -0.657208
O14   O     O_3   0.386150 0.774562 0.344799 -0.507731
O15   O     O_2   0.171750 0.463380 0.328050 -0.472265
O16   O     O_3   0.965290 0.605410 0.380210 -0.509681
O17   O     O_2   0.043630 0.541490 0.254072 -0.387460
O18   O     O_2   0.384748 0.812604 0.215496 -0.496430
O19   O     O_2   0.970331 0.398663 0.165348 -0.543134
O20   O     O_2   0.872235 0.183900 0.189246 -0.521895
O21   O     O_2   0.277173 0.729075 0.678771 -0.575550
O22   O     O_2   0.931316 0.581332 0.770792 -0.506222
O23   O     O_3   0.996391 0.682441 0.253500 -0.544707
O24   O     O_2   0.087830 0.866286 0.747821 -0.478866
O25   O     O_2   0.777782 0.695817 0.824988 -0.523983
O26   O     O_2   0.103531 0.112877 0.289531 -0.539770
O27   O     O_2   0.611887 0.639138 0.553567 -0.534164
O28   O     O_2   0.755117 0.922469 0.698143 -0.490698
O29   O     O_2   0.511947 0.887268 0.785849 -0.511644
O30   O     O_2   0.118160 0.195270 0.728383 -0.598193
O31   O     O_2   0.547288 0.336788 0.805702 -0.554487
O32   O     O_2   0.485004 0.207930 0.893449 -0.544408
O33   O     O_2   0.275988 0.053661 0.763277 -0.488216
O34   O     O_2   0.643630 0.308330 0.453260 -0.450033
O35   O     O_2   0.855352 0.932888 0.369274 -0.622856
O36   O     O_2   0.627502 0.711495 0.275874 -0.610763
O37   O     O_2   0.149479 0.617131 0.910559 -0.543901
O38   O     O_2   0.418382 0.704522 0.079526 -0.551216
O39   O     O_2   0.438324 0.340596 0.119082 -0.605154
O40   O     O_2   0.909183 0.564246 0.125768 -0.506944
O41   O     O_2   0.648274 0.572683 0.419522 -0.513047
O42   O     O_3   0.916470 0.406310 0.458240 -0.522689
O43   O     O_3   0.419940 0.355340 0.582140 -0.497083
O44   O     O_3   0.790471 0.287501 0.340348 -0.624474
O45   O     O_3   0.383960 0.539280 0.585630 -0.445158
O46   O     O_3   0.845010 0.394580 0.619730 -0.518311
P1    P     P_3+3 0.992230 0.679190 0.566750 1.045728
P2    P     P_3+3 0.339610 0.439630 0.337240 1.031428
P3    P     P_3+3 0.927765 0.595404 0.285326 1.045276
P4    P     P_3+3 0.818060 0.320800 0.433200 0.978513
P5    P     P_3+3 0.881787 0.391235 0.710966 1.030335
P6    P     P_3+3 0.439728 0.747381 0.428533 1.063042
P7    P     P_3+3 0.468278 0.561531 0.676272 1.038651
P8    P     P_3+3 0.371996 0.253360 0.573671 0.902394

loop_
_geom_bond_atom_site_label_1
_geom_bond_atom_site_label_2
_ccdc_geom_bond_type
C67   O9    S    
C28   H54   S    
Ba1   O15   S    
C7    C70   D    
C52   H10   S    
C68   O41   D    
C58   H27   S    
C6    H33   S    
O23   P3    S    
O1    P1    D    
C5    C6    S    
C12   C44   S    
C24   P3    S    
C25   C31   A    
C38   H49   S    
C9    C17   A    
Ba2   O4    S    
C47   O20   D    
C43   H1    S    
C26   C27   A    
C49   H3    S    
Ba1   Ba2   S    
C35   C38   A    
C8    C13   A    
C48   H2    S    
Ba2   O43   S    
C52   O26   D    
C36   C37   A    
Ba2   O45   S    
C41   C50   S    
C62   H40   S    
C50   O24   D    
C35   P7    S    
C23   H15   S    
O6    P7    D    
C1    H19   S    
C32   C33   A    
C57   O30   D    
C4    C62   S    
C53   H16   S    
C67   C69   S    
C56   H24   S    
C54   O28   D    
Ba2   O46   S    
C66   O40   D    
C48   O21   D    
C41   C51   S    
C44   O18   D    
C29   C30   A    
O43   P8    S    
C6    C7    D    
C21   C31   S    
O15   P2    D    
C1    H9    S    
C62   O36   D    
C21   C22   A    
C28   C39   S    
O8    P8    D    
O34   P4    D    
C14   H34   S    
C16   H51   S    
O42   P4    S    
C4    H30   S    
C55   O29   D    
C28   H53   S    
C46   O19   D    
C45   O3    S    
C1    H14   S    
C39   H56   S    
C18   C68   S    
C8    H35   S    
C43   H11   S    
C56   H25   S    
Ba2   P4    S    
C11   H36   S    
C39   C47   S    
O14   P6    S    
O46   P5    S    
C4    C16   S    
C12   O14   S    
C55   H18   S    
C32   C37   A    
C23   C53   S    
C44   H55   S    
C42   H8    S    
C12   H13   S    
C34   C55   S    
Ba2   O34   S    
C3    C5    D    
C14   C15   D    
C50   H4    S    
C63   O37   D    
O10   P6    S    
C59   O32   D    
C3    H45   S    
C23   O7    S    
C56   H23   S    
C35   C36   A    
C34   C54   S    
O2    P5    D    
Ba1   P2    S    
C68   H50   S    
C60   O33   D    
C61   O35   D    
C27   C37   S    
C58   O31   D    
C45   H21   S    
C10   C11   A    
Ba1   O10   S    
C1    C12   S    
C40   C48   S    
C30   C65   S    
C19   P2    S    
O3    P5    S    
C20   H43   S    
C10   P4    S    
C57   C67   S    
C43   C52   S    
C51   O25   D    
C11   C13   A    
C39   C46   S    
C46   H57   S    
C59   H28   S    
C41   H5    S    
C40   C41   S    
Ba1   O4    S    
O44   P4    S    
C29   H44   S    
C2    C70   S    
C7    P1    S    
C42   C43   S    
O45   P7    S    
C60   H31   S    
C17   H38   S    
C32   H47   S    
C13   C15   S    
C54   H17   S    
C70   H37   S    
Ba1   O45   S    
C64   H42   S    
C63   H41   S    
C42   H7    S    
C5    C14   S    
C9    P8    S    
O11   P6    D    
O5    P2    S    
C22   C24   A    
C61   H32   S    
Ba1   O1    S    
C49   O22   D    
O7    P7    S    
C33   P5    S    
C47   H58   S    
C40   C49   S    
Ba1   O42   S    
Ba2   O5    S    
C64   O38   D    
C16   H20   S    
C30   C31   A    
C26   C63   S    
C27   C29   A    
C25   C64   S    
Ba1   O5    S    
C15   C61   S    
C45   C56   S    
C59   C69   S    
O12   P2    S    
C18   C24   A    
C58   C67   S    
C34   H12   S    
C2    C3    S    
C10   C17   A    
C45   H22   S    
C60   C69   S    
O16   P3    S    
C33   C38   A    
O13   P1    S    
O4    P1    S    
C69   H29   S    
C65   O39   D    
C65   H46   S    
Ba2   O6    S    
C4    O23   S    
C8    C9    A    
C22   C66   S    
C23   C34   S    
C51   H6    S    
O17   P3    D    
C53   O27   D    
Ba1   O16   S    
C18   C19   A    
C42   O12   S    
Ba2   O42   S    
C40   O13   S    
C57   H26   S    
C20   C21   A    
C2    P6    S    
C36   H39   S    
C19   C20   A    
Ba1   P1    S    
C28   O44   S    
C66   H48   S    
O9    P8    S    
C16   H52   S    
C25   C26   A    
