data_mof_unit_58104.cif
_audit_creation_date              2013-03-05T15:45:30-0500
_audit_creation_method            fapswitch 2.2
_symmetry_space_group_name_H-M    P1
_symmetry_Int_Tables_number       1
_space_group_crystal_system       triclinic
_cell_length_a                    11.302056
_cell_length_b                    11.284681
_cell_length_c                    18.774366
_cell_angle_alpha                 88.936638
_cell_angle_beta                  88.45886
_cell_angle_gamma                 60.639197
_cell_volume                      2086.11704672

loop_
_atom_site_label
_atom_site_type_symbol
_atom_site_description
_atom_site_fract_x
_atom_site_fract_y
_atom_site_fract_z
_atom_type_partial_charge
O1    O     O_R   0.507430 0.255570 0.581420 -0.430296
O2    O     O_R   0.280190 0.527390 0.578910 -0.450249
C1    C     C_R   0.231081 0.646902 0.607561 0.627574
O3    O     O_R   0.260310 0.739740 0.584580 -0.435685
O4    O     O_R   0.532250 0.695150 0.573830 -0.425450
C2    C     C_R   0.650651 0.617322 0.602032 0.664284
O5    O     O_R   0.744930 0.503430 0.576380 -0.431452
O6    O     O_R   0.699250 0.276390 0.571950 -0.440908
C3    C     C_R   0.623538 0.228122 0.603150 0.639020
O7    O     O_R   0.499020 0.256400 0.419850 -0.498116
O8    O     O_R   0.272400 0.528160 0.429140 -0.481947
C4    C     C_R   0.226770 0.649141 0.400645 0.556905
O9    O     O_R   0.251910 0.740570 0.423020 -0.492000
O10   O     O_R   0.524460 0.695920 0.424060 -0.520683
C5    C     C_R   0.641256 0.616564 0.390685 0.555439
O11   O     O_R   0.736530 0.504260 0.414810 -0.436767
O12   O     O_R   0.691460 0.277160 0.422180 -0.445773
C6    C     C_R   0.609258 0.242618 0.392108 0.585328
Cr1   Cr    Cr6+3 0.392930 0.397900 0.502230 1.182924
Cr2   Cr    Cr6+3 0.398240 0.708600 0.501260 1.165515
Cr3   Cr    Cr6+3 0.708800 0.393470 0.496460 1.169001
O13   O     O_3   0.499990 0.499990 0.499980 -0.340246
C7    C     C_3   0.556278 0.811293 0.785854 0.064311
H1    H     H_    0.560870 0.906559 0.790757 0.158348
C8    C     C_3   0.540189 0.790152 0.703720 0.292308
H2    H     H_    0.754771 0.825146 0.748018 0.197870
C9    C     C_3   0.794290 0.715600 0.756884 -0.009084
C10   C     C_3   0.709549 0.551629 0.807060 0.064282
C11   C     C_3   0.696851 0.694025 0.810960 -0.118771
H3    H     H_    0.813726 0.486380 0.823017 0.226229
C12   C     C_3   0.669476 0.644914 0.677177 -0.111633
C13   C     C_3   0.803045 0.656235 0.682622 -0.146484
C14   C     C_3   0.699080 0.513085 0.727887 0.126758
H4    H     H_    0.893940 0.557050 0.681415 0.179470
C15   C     C_R   0.769656 0.145042 0.707501 -0.108992
H5    H     H_    0.848552 0.125551 0.670397 0.221503
C16   C     C_R   0.791906 0.142328 0.780592 0.141439
C17   C     C_R   0.683064 0.167184 0.826900 0.043949
C18   C     C_R   0.551655 0.218673 0.800340 0.200110
C19   C     C_R   0.533912 0.203264 0.727796 0.179273
C20   C     C_R   0.644267 0.180462 0.679147 0.028954
C21   C     C_R   0.200023 0.550410 0.723531 0.012942
C22   C     C_R   0.215449 0.557234 0.797851 0.000291
H6    H     H_    0.220575 0.477603 0.831629 0.235459
C23   C     C_R   0.179579 0.679983 0.831411 0.081272
C24   C     C_R   0.138892 0.794858 0.787240 0.041309
H7    H     H_    0.101590 0.891386 0.811968 0.219737
C25   C     C_R   0.124621 0.789842 0.713641 0.237799
C26   C     C_R   0.171475 0.664438 0.680452 0.047890
C27   C     C_R   0.739442 0.526851 0.268316 -0.001470
C28   C     C_R   0.718656 0.543750 0.195874 -0.175901
H8    H     H_    0.779296 0.458238 0.161392 0.209759
C29   C     C_R   0.644933 0.672474 0.166278 -0.015459
C30   C     C_R   0.564926 0.784654 0.211180 0.197784
C31   C     C_R   0.571803 0.765142 0.285015 -0.102261
H9    H     H_    0.510853 0.850209 0.319817 0.204786
C32   C     C_R   0.657125 0.637840 0.314579 -0.039025
C33   C     C_R   0.507459 0.275061 0.273958 -0.163343
H10   H     H_    0.408166 0.335793 0.298545 0.185443
C34   C     C_R   0.517554 0.255614 0.200227 0.034350
C35   C     C_R   0.647669 0.187801 0.168395 -0.031365
C36   C     C_R   0.761924 0.157206 0.210518 0.000845
C37   C     C_R   0.751755 0.139992 0.283760 0.208767
C38   C     C_R   0.624439 0.213014 0.316232 -0.008750
C39   C     C_R   0.203047 0.759064 0.282479 0.030136
C40   C     C_R   0.208172 0.739413 0.209902 -0.123872
H11   H     H_    0.235831 0.799832 0.174841 0.208209
C41   C     C_R   0.150605 0.666732 0.181672 -0.022775
C42   C     C_R   0.112674 0.589840 0.226358 -0.080059
H12   H     H_    0.063275 0.537149 0.205020 0.210157
C43   C     C_R   0.130279 0.587862 0.299575 0.185922
C44   C     C_R   0.175389 0.672980 0.328436 0.030921
O14   O     O_R   0.089490 0.825610 0.930610 -0.479405
O15   O     O_R   0.818370 0.054540 0.929880 -0.443273
C45   C     C_R   0.702762 0.102201 0.897166 0.606650
O16   O     O_R   0.605870 0.077310 0.915530 -0.467496
O17   O     O_R   0.646440 0.806700 0.917570 -0.472530
C46   C     C_R   0.736390 0.702396 0.884939 0.659143
O18   O     O_R   0.837200 0.593290 0.915250 -0.418572
O19   O     O_R   0.065330 0.635370 0.931590 -0.443757
C47   C     C_R   0.122364 0.706165 0.906672 0.613771
O20   O     O_R   0.068300 0.828790 0.091860 -0.488622
O21   O     O_R   0.798730 0.057480 0.079370 -0.482413
C48   C     C_R   0.674036 0.111251 0.101506 0.594125
O22   O     O_R   0.584680 0.080480 0.076790 -0.439458
O23   O     O_R   0.626790 0.809640 0.067050 -0.449146
C49   C     C_R   0.694230 0.690602 0.096353 0.568390
O24   O     O_R   0.816010 0.596460 0.076500 -0.499695
O25   O     O_R   0.045680 0.638310 0.081070 -0.523407
C50   C     C_R   0.092033 0.708990 0.111831 0.555483
Cr4   Cr    Cr6+3 0.937620 0.938540 0.007640 1.189542
Cr5   Cr    Cr6+3 0.625150 0.937450 0.994520 1.217744
Cr6   Cr    Cr6+3 0.937990 0.625080 0.001190 1.163621
O26   O     O_3   0.833590 0.833690 0.001120 -0.349381
C51   C     C_2   0.840695 0.385031 0.707838 0.559239
O27   O     O_2   0.941767 0.353720 0.742628 -0.404242
O28   O     O_R   0.862565 0.311029 0.646201 -0.643911
H13   H     H_    0.962079 0.246235 0.635101 0.360075
N1    N     N_R   0.920559 0.676504 0.787919 0.005237
O29   O     O_R   0.987674 0.552525 0.811300 -0.317666
O30   O     O_R   0.917323 0.774741 0.824364 -0.445777
N2    N     N_R   0.917365 0.131264 0.805604 0.086110
O31   O     O_R   0.923302 0.177302 0.867587 -0.212569
O32   O     O_R   0.017416 0.104043 0.761234 -0.251412
N3    N     N_R   0.438364 0.288608 0.849710 0.072600
O33   O     O_R   0.356877 0.241036 0.865840 -0.218689
O34   O     O_R   0.442429 0.373652 0.894229 -0.267566
N4    N     N_R   0.422706 0.178610 0.710528 0.128492
O35   O     O_R   0.371357 0.195237 0.647841 -0.216111
O36   O     O_R   0.384420 0.116218 0.756428 -0.197988
C52   C     C_2   0.169055 0.445051 0.697017 0.637068
O37   O     O_2   0.171662 0.358952 0.738191 -0.332619
O38   O     O_R   0.122876 0.450692 0.627958 -0.657680
H14   H     H_    0.101693 0.375109 0.618036 0.364931
N5    N     N_R   0.440690 0.833020 0.832998 0.146609
O39   O     O_R   0.376590 0.944585 0.869672 -0.201988
O40   O     O_R   0.393707 0.748786 0.835052 -0.241532
N6    N     N_R   0.037100 0.911767 0.676132 -0.166975
O41   O     O_R   0.082019 0.967919 0.629619 -0.000009
O42   O     O_R   0.082024 0.967920 0.629616 -0.000009
C53   C     C_2   0.864548 0.400045 0.288185 0.633045
O43   O     O_2   0.971168 0.372179 0.256833 -0.438062
O44   O     O_R   0.861117 0.306482 0.336168 -0.641470
H15   H     H_    0.954160 0.226115 0.344540 0.377232
N7    N     N_R   0.478268 0.918600 0.183493 0.124552
O45   O     O_R   0.393348 0.936025 0.133563 -0.270595
O46   O     O_R   0.460863 0.023800 0.219132 -0.287005
C54   C     C_2   0.393117 0.308821 0.157628 0.622874
O47   O     O_2   0.292855 0.306902 0.182235 -0.428017
O48   O     O_R   0.390893 0.360107 0.088986 -0.653670
H16   H     H_    0.300847 0.392077 0.064977 0.360074
C55   C     C_2   0.887018 0.153910 0.180311 0.618432
O49   O     O_2   0.881708 0.215519 0.125097 -0.482795
O50   O     O_R   0.008838 0.087756 0.216506 -0.626543
H17   H     H_    0.084350 0.096604 0.190953 0.395223
N8    N     N_R   0.857484 0.022955 0.318489 0.125643
O51   O     O_R   0.869510 0.018108 0.387349 -0.272607
O52   O     O_R   0.913575 0.909035 0.283858 -0.343157
C56   C     C_2   0.211348 0.880892 0.305868 0.663516
O53   O     O_2   0.280524 0.917926 0.271729 -0.499330
O54   O     O_R   0.131048 0.961326 0.362475 -0.577475
H18   H     H_    0.152764 0.035610 0.374728 0.342610
N9    N     N_R   0.406200 0.803854 0.697330 0.139457
O55   O     O_R   0.300299 0.923085 0.707156 -0.195125
O56   O     O_R   0.390187 0.699374 0.700516 -0.305978
N10   N     N_R   0.094811 0.505567 0.344424 0.099954
O57   O     O_R   0.005650 0.560867 0.395905 -0.294524
O58   O     O_R   0.163619 0.373806 0.339510 -0.261020
N11   N     N_R   0.536180 0.899609 0.656539 0.094581
O59   O     O_R   0.616274 0.949445 0.663828 -0.386349
O60   O     O_R   0.456684 0.942436 0.601843 -0.214099
C57   C     C_2   0.839797 0.723870 0.621081 0.631854
O61   O     O_2   0.871556 0.810599 0.632747 -0.477787
O62   O     O_R   0.849437 0.678366 0.551306 -0.628921
H19   H     H_    0.877829 0.728913 0.515739 0.377174
N12   N     N_R   0.639980 0.517073 0.865614 0.153290
O63   O     O_R   0.684009 0.389706 0.879474 -0.256005
O64   O     O_R   0.573842 0.600239 0.917452 -0.235989
N13   N     N_R   0.592361 0.474498 0.720262 0.070982
O65   O     O_R   0.513664 0.478548 0.772801 -0.271021
O66   O     O_R   0.553036 0.466454 0.657364 -0.343637

loop_
_geom_bond_atom_site_label_1
_geom_bond_atom_site_label_2
_geom_bond_distance
_ccdc_geom_bond_type
C8    C12   1.646926 S    
C40   C41   1.391009 A    
C49   O24   1.309648 A    
O17   Cr5   2.008557 S    
Cr6   O26   2.051867 S    
C9    C11   1.579994 S    
C30   C31   1.397791 A    
C51   O27   1.221529 D    
C45   O16   1.294093 A    
C54   O47   1.222094 D    
O28   H13   1.014719 S    
C1    C26   1.481698 S    
O44   H15   1.010647 S    
C52   O38   1.399364 S    
O4    Cr2   2.012759 S    
C8    N9    1.452937 S    
O17   C46   1.270471 A    
N3    O34   1.302604 A    
C9    N1    1.410148 S    
H2    C9    1.100134 S    
C16   C17   1.400337 A    
O21   C48   1.290855 A    
C7    C11   1.566193 S    
C10   C11   1.544577 S    
C15   C16   1.398811 A    
O18   Cr6   2.133234 S    
C42   H12   1.082665 S    
N11   O60   1.304121 A    
O4    C2    1.307960 A    
C33   C34   1.398410 A    
N5    O39   1.301877 A    
N9    O56   1.277673 A    
N4    O35   1.295715 A    
C8    N11   1.489642 S    
C42   C43   1.392417 A    
N6    O41   1.301136 A    
O24   Cr6   2.078181 S    
C11   C46   1.489076 S    
N13   O65   1.296451 A    
C55   O49   1.223604 D    
N5    O40   1.295962 A    
C41   C50   1.448741 S    
C7    H1    1.107034 S    
C12   C14   1.645564 S    
O9    Cr2   2.132815 S    
C19   N4    1.459567 S    
C2    C12   1.493316 S    
C4    C44   1.457087 S    
Cr3   O13   2.057071 S    
C5    C32   1.465302 S    
C35   C36   1.421167 A    
C27   C53   1.486790 S    
C14   C51   1.584711 S    
O14   C47   1.295859 A    
O22   Cr5   2.128530 S    
C27   C28   1.380186 A    
C2    O5    1.292901 A    
N10   O58   1.300552 A    
C17   C45   1.465406 S    
C33   C38   1.412871 A    
C30   N7    1.435507 S    
C24   C25   1.400833 A    
O1    Cr1   2.107470 S    
C53   O43   1.222515 D    
O15   C45   1.309773 A    
C28   H8    1.082020 S    
O10   Cr2   1.962785 S    
C34   C54   1.480771 S    
Cr1   O13   2.038506 S    
O1    C3    1.268821 A    
C48   O22   1.315633 A    
O14   Cr4   2.109874 S    
N8    O52   1.298822 A    
C18   C19   1.408222 A    
C46   O18   1.330843 A    
C41   C42   1.399621 A    
C25   N6    1.426293 S    
C16   N2    1.451440 S    
C33   H10   1.082517 S    
C23   C24   1.405603 A    
O12   Cr3   2.010171 S    
O20   Cr4   2.115318 S    
C54   O48   1.398621 S    
C34   C35   1.404104 A    
C28   C29   1.386055 A    
C15   H5    1.052951 S    
O3    Cr2   2.086303 S    
O15   Cr4   1.991522 S    
C22   H6    1.069018 S    
C36   C37   1.394727 A    
C36   C55   1.492636 S    
N1    O29   1.296102 A    
C13   C57   1.530464 S    
O7    Cr1   2.119881 S    
C56   O53   1.216649 D    
O8    Cr1   1.990350 S    
C31   H9    1.083310 S    
N13   O66   1.293049 A    
O12   C6    1.313520 A    
O6    C3    1.338017 A    
C29   C49   1.462240 S    
C4    O9    1.277371 A    
N2    O32   1.298142 A    
C22   C23   1.395720 A    
O62   H19   1.013921 S    
O38   H14   1.013924 S    
O16   Cr5   2.081094 S    
C19   C20   1.445261 A    
N1    O30   1.298274 A    
C57   O62   1.397875 S    
C10   C14   1.580053 S    
C31   C32   1.393707 A    
N7    O45   1.301935 A    
C21   C22   1.418972 A    
C1    O3    1.306826 A    
C10   N12   1.488981 S    
N10   O57   1.300922 A    
C18   N3    1.447005 S    
C24   H7    1.066642 S    
N12   O63   1.293401 A    
C52   O37   1.219708 D    
O2    Cr1   1.996225 S    
O23   C49   1.295838 A    
C27   C32   1.429299 A    
C12   C13   1.582275 S    
C23   C47   1.510276 S    
Cr2   O13   2.052008 S    
O19   C47   1.321937 A    
C35   C48   1.476401 S    
O6    Cr3   1.956537 S    
O8    C4    1.308940 A    
C51   O28   1.384077 S    
O11   Cr3   2.073263 S    
C29   C30   1.416671 A    
O50   H17   1.014024 S    
C39   C44   1.427575 A    
O21   Cr4   1.991598 S    
N3    O33   1.300719 A    
C3    C20   1.498612 S    
O20   C50   1.292733 A    
C37   N8    1.435166 S    
N12   O64   1.301362 A    
O48   H16   1.013740 S    
O19   Cr6   1.961973 S    
C43   C44   1.410867 A    
O23   Cr5   1.958838 S    
N11   O59   1.289644 A    
Cr4   O26   2.043191 S    
O5    Cr3   2.134660 S    
C56   O54   1.397534 S    
C6    C38   1.455548 S    
Cr5   O26   2.059500 S    
C17   C18   1.405307 A    
O7    C6    1.275086 A    
C25   C26   1.396945 A    
C5    O11   1.279632 A    
C10   H3    1.085749 S    
N4    O36   1.296830 A    
O2    C1    1.301195 A    
C7    C8    1.593451 S    
C21   C52   1.491068 S    
O25   Cr6   2.009337 S    
N2    O31   1.299768 A    
C15   C20   1.388769 A    
N6    O42   1.301200 A    
C53   O44   1.389529 S    
C9    C13   1.537759 S    
C21   C26   1.407942 A    
C7    N5    1.477132 S    
C37   C38   1.389217 A    
C39   C56   1.497586 S    
C14   N13   1.480382 S    
C43   N10   1.431771 S    
C57   O61   1.221206 D    
C55   O50   1.392233 S    
C39   C40   1.379698 A    
C40   H11   1.084966 S    
N7    O46   1.299668 A    
O10   C5    1.324467 A    
N8    O51   1.300883 A    
O25   C50   1.298950 A    
O54   H18   1.013807 S    
N9    O55   1.301949 A    
C13   H4    1.086629 S    
