data_mof_unit_16530.cif
_audit_creation_date              2012-10-26T21:21:05-0400
_audit_creation_method            fapswitch 2.2
_symmetry_space_group_name_H-M    P1
_symmetry_Int_Tables_number       1
_space_group_crystal_system       triclinic
_cell_length_a                    10.776927
_cell_length_b                    10.881325
_cell_length_c                    9.699661
_cell_angle_alpha                 90.993075
_cell_angle_beta                  90.141201
_cell_angle_gamma                 90.247189
_cell_volume                      1137.26742473

loop_
_atom_site_label
_atom_site_type_symbol
_atom_type_description
_atom_site_fract_x
_atom_site_fract_y
_atom_site_fract_z
_atom_type_partial_charge
C1    C     C_R   0.504237 0.265331 0.498657 0.524565
C2    C     C_2   0.503674 0.132598 0.494382 -0.103339
C3    C     C_2   0.427505 0.429872 0.920616 -0.013428
C4    C     C_R   0.262616 0.495759 0.499806 0.541308
C5    C     C_2   0.429852 0.427543 0.076243 -0.016500
C6    C     C_R   0.504164 0.734870 0.501494 0.559033
C7    C     C_R   0.737354 0.495860 0.500014 0.532210
C8    C     C_R   0.128945 0.298441 0.638254 -0.112570
C9    C     C_R   0.063801 0.206788 0.706370 -0.128783
C10   C     C_R   0.934766 0.207309 0.707324 -0.128908
C11   C     C_R   0.870028 0.299270 0.639813 -0.110651
C12   C     C_R   0.065332 0.393952 0.571151 0.024998
C13   C     C_R   0.934095 0.394268 0.571748 0.020229
C14   C     C_3   0.682550 0.118392 0.325274 -0.236325
C15   C     C_3   0.807280 0.060142 0.363414 -0.309016
C16   C     C_3   0.915184 0.123394 0.291159 -0.446416
C17   C     C_R   0.128843 0.487039 0.499159 0.000815
C18   C     C_R   0.064111 0.574171 0.423899 -0.153942
C19   C     C_R   0.936134 0.574299 0.424174 -0.154638
C20   C     C_R   0.871039 0.487365 0.499816 -0.001191
C21   C     C_2   0.556007 0.931172 0.399397 -0.151877
C22   C     C_2   0.519012 0.867047 0.508355 -0.139004
C23   C     C_2   0.577452 0.064719 0.410239 -0.026172
Cu1   Cu    Cu3+1 0.500020 0.500020 0.638630 0.924982
Cu2   Cu    Cu3+1 0.499980 0.499980 0.361370 0.920720
H1    H     H_    0.562945 0.554313 0.895181 0.205187
H2    H     H_    0.113676 0.134192 0.757199 0.107240
H3    H     H_    0.887470 0.644492 0.367637 0.121269
H4    H     H_    0.577901 0.884451 0.302589 0.143103
H5    H     H_    0.509056 0.910813 0.609151 0.101954
H6    H     H_    0.903814 0.115605 0.177483 0.151216
H7    H     H_    0.920051 0.222056 0.322174 0.166545
H8    H     H_    0.003707 0.078951 0.320619 0.148824
H9    H     H_    0.821895 0.067619 0.476689 0.172871
H10   H     H_    0.807038 0.961091 0.333364 0.159906
H11   H     H_    0.662775 0.100975 0.214106 0.140764
H12   H     H_    0.368970 0.362403 0.126141 0.138927
H13   H     H_    0.692331 0.219020 0.341055 0.178543
H14   H     H_    0.884512 0.135014 0.758716 0.108314
H15   H     H_    0.769923 0.293184 0.639188 0.139110
H16   H     H_    0.113089 0.644312 0.367258 0.127612
H17   H     H_    0.432905 0.090067 0.557268 0.077161
H18   H     H_    0.362221 0.369027 0.867962 0.134085
H19   H     H_    0.554390 0.562672 0.107419 0.204628
H20   H     H_    0.228978 0.291982 0.636711 0.126382
N1    N     N_2   0.498640 0.498660 0.846910 -0.344752
N2    N     N_2   0.498610 0.498630 0.153040 -0.347353
O1    O     O_R   0.500020 0.321960 0.617040 -0.509609
O2    O     O_R   0.499980 0.321920 0.382900 -0.497145
O3    O     O_R   0.319670 0.500020 0.617100 -0.494987
O4    O     O_R   0.319630 0.499980 0.382950 -0.491520
O5    O     O_R   0.500020 0.678080 0.617100 -0.488953
O6    O     O_R   0.499980 0.678040 0.382960 -0.492785
O7    O     O_R   0.680370 0.500020 0.617050 -0.498816
O8    O     O_R   0.680330 0.499980 0.382900 -0.503824

loop_
_geom_bond_atom_site_label_1
_geom_bond_atom_site_label_2
_ccdc_geom_bond_type
C14   C23   S    
C12   C17   A    
Cu2   O4    S    
C1    O1    A    
Cu1   O5    S    
C5    H12   S    
C16   H8    S    
C16   H7    S    
C5    N2    D    
C9    C10   A    
Cu2   N2    S    
C3    N1    D    
C19   C20   A    
C13   C20   A    
H19   N2    S    
C7    O8    A    
C8    C12   A    
Cu1   N1    S    
C4    O4    A    
C17   C18   A    
C21   C22   D    
Cu1   Cu2   S    
C16   H6    S    
Cu1   O3    S    
C19   H3    S    
C11   C13   A    
C3    H18   S    
C21   H4    S    
C2    H17   S    
C4    C17   S    
C1    C2    S    
C15   H10   S    
Cu2   O6    S    
C18   C19   A    
C21   C23   S    
C14   H11   S    
C11   H15   S    
Cu2   O2    S    
C14   H13   S    
C10   C11   A    
H1    N1    S    
C6    O6    A    
Cu1   O7    S    
C15   C16   S    
Cu1   O1    S    
C15   H9    S    
C12   C13   A    
C9    H2    S    
C7    C20   S    
C18   H16   S    
C2    C23   D    
C14   C15   S    
C10   H14   S    
C22   H5    S    
C7    O7    A    
C6    O5    A    
C8    H20   S    
C1    O2    A    
Cu2   O8    S    
C4    O3    A    
C8    C9    A    
C3    C5    S    
C6    C22   S    
