data_mof_unit_21214.cif
_audit_creation_date              2012-12-11T16:29:33-0500
_audit_creation_method            fapswitch 2.2
_symmetry_space_group_name_H-M    P1
_symmetry_Int_Tables_number       1
_space_group_crystal_system       triclinic
_cell_length_a                    6.94819
_cell_length_b                    17.120338
_cell_length_c                    18.972512
_cell_angle_alpha                 106.103945
_cell_angle_beta                  89.802599
_cell_angle_gamma                 90.611038
_cell_volume                      2168.19851582

loop_
_atom_site_label
_atom_site_type_symbol
_atom_type_description
_atom_site_fract_x
_atom_site_fract_y
_atom_site_fract_z
_atom_type_partial_charge
O1    O     O_R   0.494360 0.415680 0.413760 -0.529623
O2    O     O_R   0.818810 0.432910 0.557230 -0.530083
O3    O     O_R   0.994290 0.584320 0.586240 -0.536690
C1    C     C_R   0.650050 0.416253 0.580884 0.711154
O4    O     O_R   0.823740 0.406440 0.412520 -0.534885
O5    O     O_R   0.999250 0.557660 0.440500 -0.509023
C2    C     C_R   0.653549 0.381608 0.386329 0.687186
O6    O     O_R   0.489400 0.442340 0.559500 -0.516479
O7    O     O_3   0.662500 0.549650 0.509350 -0.342351
V1    V     V_3+5 0.935340 0.490790 0.498270 1.515011
O8    O     O_R   0.329270 0.567090 0.442770 -0.516954
C3    C     C_R   0.161443 0.583498 0.418899 0.718097
O9    O     O_R   0.324340 0.593560 0.587480 -0.538349
C4    C     C_R   0.154882 0.620517 0.611839 0.671797
V2    V     V_3+5 0.435970 0.509210 0.501730 1.529876
O10   O     O_3   0.158940 0.450350 0.490650 -0.352149
C5    C     C_R   0.224840 0.597012 0.753747 -0.234734
C6    C     C_R   0.231494 0.580440 0.821337 -0.250051
C7    C     C_R   0.148418 0.633872 0.882786 0.413249
C8    C     C_R   0.063331 0.706067 0.875961 0.228162
C9    C     C_R   0.111789 0.733274 0.813741 -0.059624
C10   C     C_R   0.162232 0.673388 0.748550 0.052313
C11   C     C_R   0.111802 0.816753 0.814350 -0.090840
C12   C     C_R   0.120947 0.836851 0.745716 0.038300
C13   C     C_R   0.111092 0.772045 0.678597 -0.027537
C14   C     C_R   0.143454 0.689972 0.680095 -0.104953
C15   C     C_R   0.131122 0.918771 0.740082 -0.117741
C16   C     C_R   0.137778 0.933855 0.671610 -0.224338
C17   C     C_R   0.104990 0.872227 0.607880 0.453154
C18   C     C_R   0.073434 0.792540 0.612105 -0.201295
H1    H     H_    0.275047 0.550476 0.706419 0.143743
H2    H     H_    0.289690 0.523109 0.824533 0.161607
H3    H     H_    0.153351 0.995848 0.668321 0.158750
C19   C     C_1   0.111411 0.864791 0.133395 -0.072252
C20   C     C_1   0.118686 0.822190 0.176951 0.108589
C21   C     C_1   0.128037 0.771469 0.228392 0.111340
C22   C     C_1   0.136238 0.728671 0.271756 0.157516
C23   C     C_1   0.146032 0.677995 0.323219 0.169618
C24   C     C_1   0.153839 0.635330 0.366699 -0.098308
C25   C     C_1   0.641515 0.363828 0.632521 -0.184912
C26   C     C_1   0.636965 0.320683 0.675633 0.030554
C27   C     C_1   0.633045 0.269778 0.726944 0.035684
C28   C     C_1   0.630128 0.226958 0.770342 0.020877
C29   C     C_1   0.626491 0.176413 0.821940 0.080863
C30   C     C_1   0.622558 0.134043 0.865704 -0.039319
C31   C     C_R   0.671042 0.412001 0.237035 -0.259991
C32   C     C_R   0.696393 0.421416 0.165285 0.337241
C33   C     C_R   0.672244 0.352311 0.104969 0.321598
C34   C     C_R   0.578013 0.284706 0.116393 0.196019
C35   C     C_R   0.611565 0.266167 0.182996 -0.035772
C36   C     C_R   0.642575 0.331877 0.247015 -0.035752
C37   C     C_R   0.617006 0.183760 0.185190 -0.099408
C38   C     C_R   0.632934 0.166049 0.254385 0.028469
C39   C     C_R   0.621357 0.232031 0.319914 0.038607
C40   C     C_R   0.637893 0.314627 0.316748 -0.108371
C41   C     C_R   0.653969 0.085101 0.261972 -0.107080
C42   C     C_R   0.682616 0.073187 0.331813 -0.086513
C43   C     C_R   0.646826 0.136675 0.394690 -0.080338
C44   C     C_R   0.593352 0.212757 0.387568 -0.124063
O11   O     O_R   0.775690 0.057750 0.940570 -0.522454
O12   O     O_R   0.441200 0.093570 0.087490 -0.506227
O13   O     O_R   0.265840 0.942320 0.059480 -0.532668
C45   C     C_R   0.609976 0.117688 0.114468 0.724097
O14   O     O_R   0.446270 0.067110 0.942790 -0.505066
O15   O     O_R   0.270950 0.915660 0.913750 -0.544364
C46   C     C_R   0.614911 0.083219 0.918699 0.740482
O16   O     O_R   0.770580 0.084400 0.086300 -0.540423
O17   O     O_3   0.602640 0.950400 0.990690 -0.340169
V3    V     V_3+5 0.329740 0.009200 0.001730 1.689029
O18   O     O_R   0.940900 0.906360 0.912450 -0.504596
C47   C     C_R   0.108753 0.881422 0.886039 0.719197
O19   O     O_R   0.935830 0.932820 0.057160 -0.498312
C48   C     C_R   0.103828 0.916397 0.081001 0.723733
V4    V     V_3+5 0.829130 0.990680 0.998180 1.701505
O20   O     O_3   0.106100 0.049590 0.009310 -0.332462
S1    S     S_3+6 0.087483 0.897854 0.523754 0.044678
O21   O     O_2   0.192547 0.835947 0.464912 -0.310238
O22   O     O_2   0.879238 0.897342 0.502327 -0.305322
O23   O     O_3   0.184223 0.990330 0.531075 -0.474916
H4    H     H_    0.078266 0.029175 0.548701 0.347233
C49   C     C_1   0.677117 0.484948 0.297698 0.427459
N1    N     N_1   0.680430 0.544181 0.345436 -0.274754
S2    S     S_3+6 0.743540 0.519023 0.150728 0.125926
O24   O     O_2   0.652832 0.586433 0.209168 -0.336563
O25   O     O_2   0.957512 0.533083 0.151574 -0.265984
O26   O     O_3   0.654208 0.523251 0.069672 -0.401155
H5    H     H_    0.677446 0.579993 0.068280 0.436741
S3    S     S_3+6 0.756884 0.344906 0.015094 0.133178
O27   O     O_2   0.922585 0.402227 0.016099 -0.225417
O28   O     O_2   0.824285 0.259633 0.981441 -0.327401
O29   O     O_3   0.577630 0.365417 0.963865 -0.476760
H6    H     H_    0.639067 0.366326 0.916914 0.366476
S4    S     S_3+6 0.338796 0.271817 0.082404 0.083947
O30   O     O_2   0.337683 0.230018 0.001597 -0.295978
O31   O     O_2   0.217864 0.223836 0.121732 -0.314709
O32   O     O_3   0.239060 0.364071 0.097021 -0.442800
H7    H     H_    0.295503 0.387583 0.059403 0.406371
C50   C     C_1   0.635599 0.011866 0.201590 0.221550
N2    N     N_1   0.618847 0.952271 0.154781 -0.298363
C51   C     C_1   0.732220 0.993434 0.339114 0.358411
N3    N     N_1   0.771802 0.929976 0.344826 -0.233344
C52   C     C_1   0.459680 0.258366 0.441717 0.279909
N4    N     N_1   0.347696 0.291800 0.484412 -0.319599
S5    S     S_3+6 0.142541 0.605176 0.965328 0.148061
O33   O     O_2   0.129924 0.678757 0.030250 -0.270920
O34   O     O_2   0.970861 0.551034 0.965115 -0.258861
O35   O     O_3   0.343967 0.554276 0.972557 -0.439690
H8    H     H_    0.312157 0.496161 0.950077 0.372032
S6    S     S_3+6 0.829206 0.728265 0.914232 0.068069
O36   O     O_2   0.842566 0.775654 0.993377 -0.284083
O37   O     O_2   0.714738 0.775380 0.873074 -0.350290
O38   O     O_3   0.709368 0.641026 0.909142 -0.429499
H9    H     H_    0.697264 0.613773 0.855959 0.329638
C53   C     C_1   0.128985 0.991320 0.800995 0.242249
N5    N     N_1   0.125533 0.050738 0.848441 -0.289595
C54   C     C_1   0.953012 0.741484 0.555772 0.384034
N6    N     N_1   0.850275 0.703861 0.511032 -0.265601
C55   C     C_1   0.649703 0.122189 0.466628 0.364885
N7    N     N_1   0.652041 0.110673 0.523919 -0.289901

loop_
_geom_bond_atom_site_label_1
_geom_bond_atom_site_label_2
_ccdc_geom_bond_type
C12   C13   A    
S4    O30   D    
C26   C27   S    
C7    C8    A    
S1    O23   S    
C41   C50   S    
C1    O6    A    
S5    O34   D    
C53   N5    T    
C17   S1    S    
C18   C54   S    
C38   C39   A    
C41   C42   A    
C22   C23   S    
C16   C17   A    
S1    O22   D    
C6    C7    A    
S6    O37   D    
O5    C3    A    
C23   C24   T    
O17   V4    S    
V2    O10   S    
C43   C55   S    
C54   N6    T    
C19   C20   T    
O12   C45   A    
C55   N7    T    
O38   H9    S    
C39   C40   A    
O8    V2    S    
C1    C25   S    
O17   V3    S    
O18   V4    S    
C35   C37   A    
C11   C12   A    
C33   S3    S    
O13   C48   A    
O18   C47   A    
O1    V2    S    
C2    C40   S    
O7    V1    S    
O11   C46   A    
S4    O31   D    
O9    C4    A    
S5    O33   D    
C35   C36   A    
C39   C44   A    
C45   O16   A    
V4    O20   S    
C32   C33   A    
C11   C47   S    
S1    O21   D    
O19   V4    S    
S6    O38   S    
O29   H6    S    
O4    C2    A    
O26   H5    S    
C43   C44   A    
O15   C47   A    
C42   C51   S    
C31   C36   A    
C49   N1    T    
O23   H4    S    
O13   V3    S    
C20   C21   S    
O14   C46   A    
O2    C1    A    
C28   C29   S    
C17   C18   A    
C31   C49   S    
C7    S5    S    
S2    O24   D    
S3    O29   S    
O35   H8    S    
C12   C15   A    
O32   H7    S    
C8    C9    A    
C5    C6    A    
O16   V4    S    
O14   V3    S    
C4    C14   S    
O3    C4    A    
C33   C34   A    
S2    O25   D    
S3    O28   D    
C16   H3    S    
C34   C35   A    
O6    V2    S    
C32   S2    S    
C9    C11   A    
C5    H1    S    
C6    H2    S    
C27   C28   T    
O2    V1    S    
C15   C16   A    
C37   C38   A    
C38   C41   A    
O12   V3    S    
C13   C18   A    
C31   C32   A    
C25   C26   T    
O1    C2    A    
C44   C52   S    
C29   C30   T    
O19   C48   A    
C37   C45   S    
O5    V1    S    
O8    C3    A    
S4    O32   S    
C5    C10   A    
C3    C24   S    
O9    V2    S    
C13   C14   A    
O4    V1    S    
O3    V1    S    
V1    O10   S    
S6    O36   D    
C42   C43   A    
O15   V3    S    
O11   V4    S    
C51   N3    T    
V3    O20   S    
C36   C40   A    
O7    V2    S    
C52   N4    T    
C19   C48   S    
C8    S6    S    
C15   C53   S    
S2    O26   S    
S3    O27   D    
C21   C22   T    
C50   N2    T    
C10   C14   A    
C30   C46   S    
C34   S4    S    
C9    C10   A    
S5    O35   S    
