data_mof_unit_11064.cif
_audit_creation_date              2012-10-26T18:54:15-0400
_audit_creation_method            fapswitch 2.2
_symmetry_space_group_name_H-M    P1
_symmetry_Int_Tables_number       1
_space_group_crystal_system       triclinic
_cell_length_a                    14.80933
_cell_length_b                    14.652912
_cell_length_c                    23.498207
_cell_angle_alpha                 74.860907
_cell_angle_beta                  103.32117
_cell_angle_gamma                 114.777308
_cell_volume                      4426.25967031

loop_
_atom_site_label
_atom_site_type_symbol
_atom_type_description
_atom_site_fract_x
_atom_site_fract_y
_atom_site_fract_z
_atom_type_partial_charge
C1    C     C_R   0.880784 0.311533 0.508035 0.540951
C2    C     C_R   0.942451 0.544552 0.283375 -0.150013
C3    C     C_R   0.006835 0.091365 0.567304 -0.104241
C4    C     C_R   0.970199 0.571397 0.744621 -0.081034
C5    C     C_R   0.938303 0.541023 0.224168 -0.063478
C6    C     C_R   0.016190 0.515049 0.790345 0.234148
C7    C     C_R   0.984177 0.485179 0.209660 0.234312
C8    C     C_R   0.813534 0.202111 0.510947 -0.017979
C9    C     C_R   0.186420 0.797856 0.489309 -0.017998
C10   C     C_R   0.779331 0.020346 0.533528 -0.135411
C11   C     C_R   0.220570 0.979599 0.466886 -0.135414
C12   C     C_R   0.848377 0.121495 0.522683 -0.024480
C13   C     C_R   0.119207 0.688456 0.492026 0.541051
C14   C     C_R   0.151517 0.878433 0.477566 -0.024462
C15   C     C_R   0.709653 0.178281 0.502582 -0.153182
C16   C     C_R   0.290324 0.821717 0.497907 -0.153320
C17   C     C_R   0.001758 0.502011 0.608806 0.550729
C18   C     C_R   0.998251 0.497993 0.391194 0.550841
C19   C     C_R   0.639253 0.076979 0.507100 0.023956
C20   C     C_R   0.360694 0.923028 0.493539 0.023814
C21   C     C_R   0.676195 0.997755 0.526303 0.035297
C22   C     C_R   0.323732 0.002234 0.474299 0.035211
C23   C     C_R   0.533497 0.052219 0.494729 0.034606
C24   C     C_R   0.061700 0.458876 0.775825 -0.063527
C25   C     C_R   0.466448 0.947814 0.506019 0.034590
C26   C     C_R   0.507414 0.871950 0.530265 -0.145588
C27   C     C_R   0.492524 0.128095 0.470552 -0.145435
C28   C     C_R   0.610032 0.896374 0.538250 -0.137666
C29   C     C_R   0.389896 0.103639 0.462491 -0.137540
C30   C     C_R   0.719739 0.674906 0.403610 -0.151181
C31   C     C_R   0.280318 0.325112 0.596317 -0.151163
C32   C     C_R   0.799523 0.643633 0.418584 0.060483
C33   C     C_R   0.200540 0.356385 0.581414 0.060488
C34   C     C_R   0.714019 0.505869 0.490937 0.034726
C35   C     C_R   0.030468 0.429120 0.255381 -0.081005
C36   C     C_R   0.285899 0.494117 0.508994 0.034503
C37   C     C_R   0.630853 0.536129 0.480125 -0.007467
C38   C     C_R   0.369125 0.463949 0.519782 -0.007534
C39   C     C_R   0.636114 0.622072 0.434206 0.017710
C40   C     C_R   0.363894 0.377966 0.565678 0.017741
C41   C     C_R   0.031015 0.582791 0.113138 0.385917
C42   C     C_R   0.969250 0.417434 0.886857 0.385946
C43   C     C_R   0.542486 0.484147 0.510538 -0.002144
C44   C     C_R   0.457501 0.516000 0.489363 -0.002123
C45   C     C_R   0.466506 0.599148 0.439412 -0.026053
C46   C     C_R   0.057403 0.455247 0.716617 -0.150139
C47   C     C_R   0.533562 0.401087 0.560517 -0.026218
C48   C     C_R   0.556406 0.653095 0.416025 -0.127858
C49   C     C_R   0.443626 0.346974 0.583839 -0.127875
C50   C     C_R   0.949621 0.400995 0.126382 0.397259
C51   C     C_R   0.050753 0.599223 0.873640 0.397219
C52   C     C_R   0.956205 0.403583 0.067402 0.015888
C53   C     C_R   0.044083 0.596634 0.932603 0.015922
C54   C     C_R   0.997104 0.498628 0.029857 -0.044909
C55   C     C_R   0.003151 0.501588 0.970141 -0.044912
C56   C     C_R   0.031672 0.590461 0.051956 0.020847
C57   C     C_R   0.034268 0.432237 0.314776 -0.166037
C58   C     C_R   0.968530 0.409757 0.948032 0.020916
C59   C     C_R   0.924372 0.312818 0.045931 -0.137141
C60   C     C_R   0.075809 0.687403 0.954057 -0.137088
C61   C     C_R   0.932334 0.314415 0.987507 -0.026799
C62   C     C_R   0.067734 0.685800 0.012462 -0.026710
C63   C     C_R   0.384474 0.629256 0.402820 0.002272
C64   C     C_R   0.380205 0.722099 0.405488 -0.118099
C65   C     C_R   0.310756 0.757648 0.365771 -0.108283
C66   C     C_R   0.248957 0.703684 0.321082 -0.084787
C67   C     C_R   0.256375 0.614030 0.316410 -0.095898
C68   C     C_R   0.007791 0.508111 0.670972 0.006384
C69   C     C_R   0.322113 0.575411 0.357867 -0.096119
C70   C     C_R   0.615844 0.371695 0.597398 0.002531
C71   C     C_R   0.677705 0.426158 0.642200 -0.095897
C72   C     C_R   0.743549 0.388190 0.684014 -0.096007
C73   C     C_R   0.751660 0.298619 0.679821 -0.084628
C74   C     C_R   0.690410 0.244070 0.635257 -0.108208
C75   C     C_R   0.620763 0.278913 0.595218 -0.118032
C76   C     C_R   0.909987 0.214857 0.971806 0.082509
C77   C     C_R   0.987466 0.193607 0.960215 -0.051846
C78   C     C_R   0.967088 0.098609 0.947036 -0.107514
C79   C     C_R   0.992302 0.491939 0.329026 0.006219
C80   C     C_R   0.869669 0.023971 0.945941 -0.104513
C81   C     C_R   0.792451 0.044224 0.958027 -0.108099
C82   C     C_R   0.812450 0.139220 0.971132 -0.074813
C83   C     C_R   0.089721 0.785304 0.028118 0.082429
C84   C     C_R   0.187038 0.861346 0.028553 -0.075002
C85   C     C_R   0.206689 0.956244 0.041664 -0.108162
C86   C     C_R   0.129337 0.975992 0.053996 -0.104596
C87   C     C_R   0.032123 0.900965 0.053119 -0.107413
C88   C     C_R   0.012091 0.806067 0.039930 -0.051639
C89   C     C_R   0.046423 0.861874 0.480052 0.052113
C90   C     C_R   0.966249 0.568176 0.685224 -0.165716
C91   C     C_R   0.993130 0.908652 0.432816 -0.104279
C92   C     C_R   0.896689 0.898675 0.437041 -0.116812
C93   C     C_R   0.852437 0.841512 0.488164 -0.103682
C94   C     C_R   0.905211 0.795876 0.535670 -0.100702
C95   C     C_R   0.002271 0.806921 0.532015 -0.047123
C96   C     C_R   0.953406 0.138000 0.520078 0.052063
C97   C     C_R   0.997400 0.192856 0.468052 -0.047157
C98   C     C_R   0.094464 0.203996 0.464338 -0.100614
C99   C     C_R   0.147393 0.158542 0.511845 -0.103692
C100  C     C_R   0.103276 0.101427 0.563019 -0.116827
Cu1   Cu    Cu3+1 0.081740 0.475680 0.515360 0.934991
Cu2   Cu    Cu3+1 0.918260 0.524320 0.484640 0.935030
H1    H     H_    0.896252 0.239501 0.075395 0.159415
H2    H     H_    0.716573 0.438337 0.520748 0.150231
H3    H     H_    0.134893 0.314552 0.603972 0.128101
H4    H     H_    0.865212 0.685460 0.396062 0.128159
H5    H     H_    0.723629 0.740600 0.368345 0.090195
H6    H     H_    0.276473 0.259415 0.631572 0.090166
H7    H     H_    0.098642 0.416188 0.810627 0.129140
H8    H     H_    0.066508 0.385920 0.244867 0.133078
H9    H     H_    0.091159 0.409427 0.706633 0.122713
H10   H     H_    0.071738 0.389811 0.349383 0.117561
H11   H     H_    0.929007 0.610823 0.650616 0.117396
H12   H     H_    0.103871 0.760716 0.924582 0.159339
H13   H     H_    0.908385 0.590102 0.293351 0.122772
H14   H     H_    0.934455 0.614876 0.755132 0.133149
H15   H     H_    0.901165 0.583511 0.189358 0.128858
H16   H     H_    0.637891 0.835298 0.554824 0.103790
H17   H     H_    0.362029 0.164711 0.445929 0.103808
H18   H     H_    0.315016 0.759573 0.506407 0.125501
H19   H     H_    0.685019 0.240456 0.494107 0.125251
H20   H     H_    0.431385 0.766994 0.437914 0.112421
H21   H     H_    0.306814 0.828407 0.368616 0.119804
H22   H     H_    0.196970 0.732461 0.289266 0.133711
H23   H     H_    0.806048 0.958507 0.546077 0.105932
H24   H     H_    0.212836 0.575747 0.279800 0.131611
H25   H     H_    0.327875 0.506446 0.353294 0.105588
H26   H     H_    0.671414 0.495072 0.646400 0.105538
H27   H     H_    0.786628 0.426941 0.720518 0.130808
H28   H     H_    0.803757 0.270365 0.711904 0.134650
H29   H     H_    0.694903 0.173393 0.632763 0.119567
H30   H     H_    0.569959 0.233533 0.562912 0.112127
H31   H     H_    0.063403 0.250587 0.961431 0.101627
H32   H     H_    0.026906 0.082658 0.937956 0.111898
H33   H     H_    0.854132 0.950312 0.935981 0.109831
H34   H     H_    0.193823 0.041413 0.454299 0.105985
H35   H     H_    0.717128 0.986208 0.957380 0.109698
H36   H     H_    0.752137 0.153974 0.980625 0.108555
H37   H     H_    0.247454 0.846978 0.018880 0.108547
H38   H     H_    0.281848 0.014569 0.042130 0.109684
H39   H     H_    0.144605 0.049566 0.063971 0.109831
H40   H     H_    0.972197 0.916531 0.062378 0.111803
H41   H     H_    0.936305 0.748774 0.038896 0.101628
H42   H     H_    0.026319 0.952918 0.392821 0.101902
H43   H     H_    0.855794 0.934389 0.400428 0.110949
H44   H     H_    0.776764 0.831699 0.490660 0.107359
H45   H     H_    0.462327 0.792318 0.543790 0.102958
H46   H     H_    0.870972 0.752158 0.575366 0.094106
H47   H     H_    0.043050 0.772688 0.569614 0.104264
H48   H     H_    0.956514 0.226984 0.430463 0.104321
H49   H     H_    0.128594 0.247666 0.424600 0.094128
H50   H     H_    0.223086 0.168473 0.509315 0.107288
H51   H     H_    0.144289 0.065847 0.599631 0.110937
H52   H     H_    0.973769 0.047180 0.607349 0.101897
H53   H     H_    0.537591 0.207754 0.457104 0.102845
H54   H     H_    0.561717 0.717222 0.379181 0.120328
H55   H     H_    0.438376 0.282885 0.620700 0.120314
H56   H     H_    0.283175 0.561532 0.479130 0.150662
N1    N     N_R   0.987771 0.489569 0.148278 -0.395182
N2    N     N_R   0.012586 0.510655 0.851732 -0.395157
N3    N     N_R   0.795430 0.560810 0.461550 -0.237689
N4    N     N_R   0.204570 0.439190 0.538450 -0.237754
O1    O     O_R   0.977900 0.338110 0.520250 -0.496430
O2    O     O_2   0.923930 0.333284 0.861854 -0.507853
O3    O     O_2   0.905359 0.310531 0.161661 -0.513732
O4    O     O_2   0.095121 0.689688 0.838388 -0.513831
O5    O     O_R   0.022100 0.661890 0.479750 -0.496523
O6    O     O_R   0.839850 0.379180 0.494310 -0.510342
O7    O     O_R   0.160150 0.620820 0.505690 -0.510302
O8    O     O_R   0.069020 0.479430 0.595090 -0.503909
O9    O     O_R   0.930980 0.520570 0.404910 -0.503878
O10   O     O_R   0.930970 0.520500 0.569150 -0.496885
O11   O     O_R   0.069030 0.479500 0.430850 -0.497016
O12   O     O_2   0.076314 0.666949 0.138135 -0.507566

loop_
_geom_bond_atom_site_label_1
_geom_bond_atom_site_label_2
_ccdc_geom_bond_type
C100  H51   S    
C38   C40   A    
C62   C83   S    
C37   C43   A    
Cu2   O5    S    
C22   C29   A    
C30   H5    S    
C27   C29   A    
C34   C37   A    
C31   H6    S    
C57   C79   A    
C60   H12   S    
C87   C88   A    
C34   N3    A    
C42   C58   A    
C97   C98   A    
C17   O10   A    
C72   H27   S    
C41   C56   A    
C77   C78   A    
C75   H30   S    
C15   C19   A    
C29   H17   S    
Cu1   Cu2   S    
C80   H33   S    
Cu1   N4    S    
C19   C21   A    
C9    C16   A    
C65   H21   S    
C16   H18   S    
C11   C14   A    
C42   O2    S    
C13   O5    A    
C57   H10   S    
C7    N1    S    
C20   C25   A    
C40   C49   A    
C1    C8    S    
C51   N2    A    
C31   C40   A    
C60   C62   A    
C73   C74   A    
C90   H11   S    
C26   H45   S    
C9    C13   S    
C2    C79   A    
C41   N1    A    
Cu1   O11   S    
C3    C100  A    
C63   C69   A    
C84   H37   S    
C18   C79   S    
C68   C90   A    
C97   H48   S    
C31   C33   A    
Cu1   O7    S    
C3    C96   A    
C95   H47   S    
C23   C27   A    
C89   C91   A    
C10   H23   S    
C88   H41   S    
C36   H56   S    
C58   C61   A    
C13   O7    A    
C83   C88   A    
C48   H54   S    
C61   C76   S    
C32   H4    S    
C46   H9    S    
C96   C97   A    
C36   N4    A    
C49   H55   S    
C41   O12   S    
C77   H31   S    
C53   C60   A    
C52   C54   A    
C38   C44   A    
C81   C82   A    
C4    C90   A    
C98   H49   S    
C53   C55   A    
C10   C21   A    
Cu2   O10   S    
C54   C56   A    
C59   C61   A    
C74   C75   A    
Cu1   O1    S    
C33   H3    S    
C76   C77   A    
C4    C6    A    
C67   H24   S    
C76   C82   A    
C91   C92   A    
C5    C7    A    
C17   O8    A    
C72   C73   A    
C1    O6    A    
C25   C26   A    
C85   C86   A    
C47   C70   S    
C45   C63   S    
C3    H52   S    
C34   H2    S    
C5    H15   S    
C67   C69   A    
C89   C95   A    
C19   C23   A    
C9    C14   A    
C14   C89   S    
C46   C68   A    
C52   C59   A    
C2    H13   S    
C50   C52   A    
C83   C84   A    
C8    C12   A    
C6    C24   A    
C32   N3    A    
C50   O3    S    
C93   H44   S    
C93   C94   A    
C16   C20   A    
C84   C85   A    
C78   H32   S    
C85   H38   S    
C1    O1    A    
C70   C71   A    
C35   H8    S    
C10   C12   A    
C21   C28   A    
C20   C22   A    
C98   C99   A    
C8    C15   A    
C43   C44   A    
C66   H22   S    
C56   C62   A    
C71   H26   S    
C2    C5    A    
C18   O9    A    
C94   H46   S    
C44   C45   A    
C91   H42   S    
C45   C48   A    
Cu2   O9    S    
C73   H28   S    
C17   C68   S    
Cu2   O6    S    
C15   H19   S    
C92   H43   S    
C86   C87   A    
C7    C35   A    
C4    H14   S    
C42   N2    A    
C24   H7    S    
C80   C81   A    
C54   C55   A    
C6    N2    S    
Cu1   O8    S    
C50   N1    A    
C47   C49   A    
C99   H50   S    
C11   C22   A    
C26   C28   A    
C99   C100  A    
C35   C57   A    
C24   C46   A    
C64   C65   A    
C36   C38   A    
C33   N4    A    
C59   H1    S    
C71   C72   A    
C82   H36   S    
C28   H16   S    
C11   H34   S    
C30   C32   A    
Cu2   N3    S    
C64   H20   S    
C92   C93   A    
C30   C39   A    
C66   C67   A    
C78   C80   A    
C23   C25   A    
C87   H40   S    
C94   C95   A    
C63   C64   A    
C18   O11   A    
C69   H25   S    
C37   C39   A    
C65   C66   A    
C55   C58   A    
C70   C75   A    
C81   H35   S    
C12   C96   S    
C51   O4    S    
C51   C53   A    
C74   H29   S    
C43   C47   A    
C86   H39   S    
C39   C48   A    
C27   H53   S    
