data_mof_unit_29285.cif
_audit_creation_date              2012-12-10T16:50:09-0500
_audit_creation_method            fapswitch 2.2
_symmetry_space_group_name_H-M    P1
_symmetry_Int_Tables_number       1
_space_group_crystal_system       triclinic
_cell_length_a                    23.498972
_cell_length_b                    8.679228
_cell_length_c                    7.434842
_cell_angle_alpha                 103.042696
_cell_angle_beta                  94.059617
_cell_angle_gamma                 92.066019
_cell_volume                      1471.4191399

loop_
_atom_site_label
_atom_site_type_symbol
_atom_type_description
_atom_site_fract_x
_atom_site_fract_y
_atom_site_fract_z
_atom_type_partial_charge
C1    C     C_R   0.498294 0.199646 0.453184 0.892413
C2    C     C_R   0.501705 0.800354 0.546816 0.892327
C3    C     C_R   0.234649 0.500727 0.349540 -0.096403
C4    C     C_R   0.755964 0.491596 0.320676 -0.082512
C5    C     C_R   0.293751 0.500110 0.345845 -0.197251
C6    C     C_R   0.696698 0.491856 0.324331 -0.209371
C7    C     C_R   0.328574 0.502832 0.508404 -0.038536
C8    C     C_R   0.671420 0.497245 0.491358 -0.039336
C9    C     C_R   0.303154 0.507359 0.675025 -0.213369
C10   C     C_R   0.706374 0.500821 0.653898 -0.198995
C11   C     C_R   0.243860 0.507512 0.678191 -0.077707
C12   C     C_R   0.765475 0.500133 0.649725 -0.079180
C13   C     C_R   0.209510 0.503498 0.515222 0.336982
C14   C     C_R   0.790457 0.496385 0.483553 0.335049
C15   C     C_2   0.497465 0.031733 0.426803 -0.361191
C16   C     C_2   0.502534 0.968267 0.573197 -0.360952
C17   C     C_R   0.390995 0.500639 0.502803 0.800058
C18   C     C_R   0.609005 0.499386 0.497181 0.801346
C19   C     C_R   0.882553 0.636462 0.567005 0.592981
C20   C     C_R   0.117468 0.363642 0.429089 0.609057
C21   C     C_R   0.876833 0.366178 0.400758 0.601670
C22   C     C_R   0.123036 0.633433 0.597005 0.557209
C23   C     C_R   0.936422 0.363814 0.407112 -0.087485
C24   C     C_R   0.063451 0.636185 0.588328 -0.086554
C25   C     C_R   0.969824 0.502071 0.493197 -0.069093
C26   C     C_R   0.030091 0.497995 0.501401 -0.063242
C27   C     C_R   0.942987 0.643961 0.570009 -0.135829
C28   C     C_R   0.056954 0.356402 0.423428 -0.134977
C29   C     C_R   0.962689 0.224395 0.332014 -0.134905
C30   C     C_R   0.037151 0.776343 0.660341 -0.114263
C31   C     C_R   0.022041 0.216447 0.341804 0.447830
C32   C     C_R   0.977868 0.784660 0.647730 0.453027
Cu1   Cu    Cu3+1 0.506340 0.517380 0.684380 0.958654
Cu2   Cu    Cu3+1 0.493660 0.482620 0.315620 0.958376
H1    H     H_    0.936389 0.118880 0.267673 0.259041
H2    H     H_    0.063358 0.882376 0.723031 0.268828
H3    H     H_    0.208227 0.498186 0.223364 0.144768
H4    H     H_    0.775149 0.489014 0.191874 0.144108
H5    H     H_    0.312075 0.497345 0.215590 0.158260
H6    H     H_    0.670804 0.489001 0.197057 0.156704
H7    H     H_    0.328956 0.509562 0.802292 0.156233
H8    H     H_    0.688153 0.504309 0.784465 0.158364
H9    H     H_    0.224550 0.509389 0.806633 0.143621
H10   H     H_    0.792008 0.503337 0.775863 0.147940
H11   H     H_    0.492681 0.960011 0.285767 0.180307
H12   H     H_    0.507318 0.039989 0.714233 0.180391
H13   H     H_    0.455001 0.379665 0.948727 0.225915
H14   H     H_    0.544999 0.620335 0.051273 0.226143
N1    N     N_R   0.851428 0.500196 0.481635 -0.484605
N2    N     N_R   0.148515 0.499537 0.516327 -0.481354
N3    N     N_2   0.484110 0.456420 0.038520 -0.217879
N4    N     N_2   0.515890 0.543580 0.961480 -0.217774
O1    O     O_R   0.504120 0.286130 0.619770 -0.583356
O2    O     O_R   0.495880 0.713870 0.380230 -0.583470
O3    O     O_R   0.493410 0.256770 0.308360 -0.581996
O4    O     O_R   0.506590 0.743230 0.691640 -0.581959
O5    O     O_R   0.423230 0.514630 0.655730 -0.591310
O6    O     O_R   0.576770 0.485370 0.344270 -0.591333
O7    O     O_R   0.412530 0.485280 0.344320 -0.584291
O8    O     O_R   0.587470 0.514720 0.655680 -0.583857
O9    O     O_2   0.854492 0.761592 0.651337 -0.430270
O10   O     O_2   0.145758 0.238454 0.346340 -0.435632
O11   O     O_2   0.844320 0.234462 0.317736 -0.482264
O12   O     O_2   0.155492 0.764713 0.682018 -0.498166
S1    S     S_3+6 0.048624 0.026318 0.256073 0.071494
O13   O     O_2   0.000922 0.900108 0.209717 -0.284940
O14   O     O_2   0.078323 0.028204 0.084043 -0.227493
O15   O     O_3   0.095108 0.981990 0.417075 -0.471289
H15   H     H_    0.111508 0.882426 0.354143 0.376636
S2    S     S_3+6 0.951534 0.976764 0.720796 0.075566
O16   O     O_2   0.909528 0.008055 0.572799 -0.241969
O17   O     O_2   0.922490 0.986026 0.896312 -0.221238
O18   O     O_3   0.005129 0.117197 0.760815 -0.518405
H16   H     H_    0.986189 0.219103 0.787539 0.364705

loop_
_geom_bond_atom_site_label_1
_geom_bond_atom_site_label_2
_ccdc_geom_bond_type
C10   H8    S    
O18   H16   S    
C21   N1    A    
Cu1   N4    S    
Cu2   N3    S    
C23   C29   A    
C24   C26   A    
C14   N1    S    
C15   C16   D    
C31   S1    S    
C1    O1    A    
C20   N2    A    
C18   O6    A    
O15   H15   S    
C7    C17   S    
C11   H9    S    
S2    O16   D    
C1    C15   S    
C19   C27   A    
C3    C13   A    
C22   N2    A    
Cu1   O4    S    
Cu2   O3    S    
C4    C14   A    
Cu1   O1    S    
N3    N4    D    
C4    C6    A    
C2    O2    A    
C16   H12   S    
C5    C7    A    
C32   S2    S    
C6    C8    A    
C20   C28   A    
S1    O14   D    
C25   C26   A    
C8    C18   S    
C19   N1    A    
S1    O15   S    
S2    O18   S    
Cu1   Cu2   S    
C9    C11   A    
C10   C12   A    
C17   O7    A    
C18   O8    A    
C4    H4    S    
Cu2   O2    S    
Cu1   O8    S    
C21   C23   A    
Cu2   O7    S    
C22   C24   A    
C15   H11   S    
C2    C16   S    
C7    C9    A    
Cu1   O5    S    
C27   C32   A    
C9    H7    S    
C28   C31   A    
C12   C14   A    
C3    C5    A    
H13   N3    S    
C25   C27   A    
C29   H1    S    
C26   C28   A    
C30   H2    S    
C5    H5    S    
C1    O3    A    
C29   C31   A    
C2    O4    A    
C30   C32   A    
C11   C13   A    
C19   O9    S    
C6    H6    S    
C23   C25   A    
C20   O10   S    
C24   C30   A    
C21   O11   S    
C22   O12   S    
C13   N2    S    
H14   N4    S    
C3    H3    S    
C8    C10   A    
S1    O13   D    
Cu2   O6    S    
C12   H10   S    
S2    O17   D    
C17   O5    A    
