data_mof_unit_14933.cif
_audit_creation_date              2012-10-26T18:52:44-0400
_audit_creation_method            fapswitch 2.2
_symmetry_space_group_name_H-M    P1
_symmetry_Int_Tables_number       1
_space_group_crystal_system       triclinic
_cell_length_a                    10.73885
_cell_length_b                    14.674178
_cell_length_c                    14.723485
_cell_angle_alpha                 65.025999
_cell_angle_beta                  103.640737
_cell_angle_gamma                 103.383459
_cell_volume                      2020.87983179

loop_
_atom_site_label
_atom_site_type_symbol
_atom_type_description
_atom_site_fract_x
_atom_site_fract_y
_atom_site_fract_z
_atom_type_partial_charge
C1    C     C_R   0.477943 0.120528 0.312000 0.548132
C2    C     C_R   0.440782 0.363424 0.076227 0.003343
C3    C     C_R   0.404465 0.322965 0.999749 0.027634
C4    C     C_R   0.259969 0.999277 0.500924 0.545777
C5    C     C_R   0.441993 0.469193 0.048385 -0.028510
C6    C     C_R   0.441358 0.535674 0.945839 -0.023656
C7    C     C_R   0.408243 0.494019 0.871048 -0.106873
C8    C     C_R   0.384305 0.388619 0.896741 0.144838
C9    C     C_R   0.436642 0.509792 0.118664 -0.102176
C10   C     C_R   0.446949 0.614217 0.092266 0.252279
C11   C     C_R   0.457012 0.682521 0.990878 0.053692
C12   C     C_3   0.876122 0.004005 0.488673 0.084937
C13   C     C_R   0.464164 0.642382 0.919769 -0.038092
C14   C     C_R   0.458728 0.789119 0.957778 0.134830
C15   C     C_R   0.484303 0.853623 0.859512 -0.128558
C16   C     C_R   0.516942 0.880369 0.687652 0.547392
C17   C     C_R   0.495461 0.709818 0.824220 -0.149013
C18   C     C_R   0.735856 0.297024 0.650128 -0.163144
C19   C     C_R   0.694705 0.210679 0.627749 0.025070
C20   C     C_R   0.511906 0.281245 0.515000 0.040279
C21   C     C_R   0.547995 0.371322 0.535011 -0.012892
C22   C     C_R   0.663578 0.377749 0.603646 0.039373
C23   C     C_3   0.953487 0.988322 0.597055 -0.293228
C24   C     C_R   0.475748 0.455131 0.488712 0.003054
C25   C     C_R   0.521527 0.543978 0.512065 0.008744
C26   C     C_R   0.638770 0.546691 0.579508 -0.162883
C27   C     C_R   0.707455 0.464996 0.624631 -0.133523
C28   C     C_R   0.739034 0.003120 0.493838 0.546407
C29   C     C_R   0.360878 0.454085 0.418418 -0.143191
C30   C     C_R   0.294624 0.537265 0.370917 -0.092799
C31   C     C_R   0.337715 0.623838 0.393245 0.053454
C32   C     C_R   0.449594 0.627837 0.465799 -0.012182
C33   C     C_R   0.269058 0.706661 0.343680 -0.150796
C34   C     C_3   0.937550 0.107764 0.411987 0.035601
C35   C     C_R   0.309919 0.792397 0.367274 0.030484
C36   C     C_R   0.483429 0.716145 0.488809 0.008140
C37   C     C_3   0.036236 0.904676 0.482113 -0.209653
C38   C     C_3   0.891534 0.914491 0.460614 0.048211
C39   C     C_3   0.099611 0.997528 0.598790 -0.265714
C40   C     C_3   0.078495 0.097875 0.409890 -0.191735
C41   C     C_3   0.121548 0.999968 0.498011 0.005905
C42   C     C_3   0.365066 0.406715 0.718202 -0.303890
C43   C     C_3   0.565503 0.687225 0.203648 0.026535
C44   C     C_3   0.649348 0.604647 0.272247 -0.284393
C45   C     C_R   0.457878 0.190559 0.204375 0.000920
C46   C     C_3   0.765359 0.644067 0.335539 -0.483133
C47   C     C_3   0.676216 0.365125 0.242779 0.007792
C48   C     C_3   0.751860 0.363145 0.345631 -0.238976
C49   C     C_3   0.890481 0.418392 0.338161 -0.506370
C50   C     C_3   0.473732 0.932373 0.010205 -0.332800
C51   C     C_3   0.711544 0.893701 0.320724 -0.268612
C52   C     C_3   0.914106 0.215088 0.225243 -0.332182
C53   C     C_R   0.504823 0.814330 0.793666 -0.037332
C54   C     C_R   0.390880 0.217186 0.027571 -0.151144
C55   C     C_R   0.413537 0.151844 0.128726 -0.207276
C56   C     C_R   0.479776 0.297103 0.177406 0.236534
Cu1   Cu    Cu3+1 0.465900 0.918260 0.475680 0.892261
Cu2   Cu    Cu3+1 0.534100 0.081740 0.524320 0.916246
H1    H     H_    0.055283 0.835121 0.551267 0.102788
H2    H     H_    0.389747 0.543000 0.792019 0.113811
H3    H     H_    0.417816 0.461142 0.194556 0.184304
H4    H     H_    0.796763 0.470554 0.676193 0.106967
H5    H     H_    0.563631 0.723900 0.545979 0.116513
H6    H     H_    0.256822 0.856248 0.329257 0.118657
H7    H     H_    0.208155 0.533573 0.316152 0.113115
H8    H     H_    0.824349 0.301021 0.702898 0.087443
H9    H     H_    0.751093 0.148759 0.662845 0.121579
H10   H     H_    0.427311 0.270576 0.462298 0.135564
H11   H     H_    0.681256 0.611709 0.598445 0.086622
H12   H     H_    0.943521 0.168046 0.440719 0.118977
H13   H     H_    0.320144 0.390354 0.397054 0.089918
H14   H     H_    0.183957 0.704954 0.287264 0.089767
H15   H     H_    0.840828 0.841083 0.510224 0.126670
H16   H     H_    0.138882 0.932168 0.664103 0.121121
H17   H     H_    0.918336 0.911859 0.652208 0.108759
H18   H     H_    0.144909 0.166578 0.415306 0.097769
H19   H     H_    0.087530 0.093899 0.338212 0.121979
H20   H     H_    0.249291 0.302025 0.826002 0.240108
H21   H     H_    0.347876 0.356073 0.676478 0.152676
H22   H     H_    0.467817 0.443238 0.719607 0.172857
H23   H     H_    0.151131 0.068324 0.609388 0.132927
H24   H     H_    0.299651 0.465141 0.677754 0.136373
H25   H     H_    0.550879 0.727659 0.248396 0.164349
H26   H     H_    0.618309 0.744535 0.141584 0.143691
H27   H     H_    0.590084 0.539351 0.323213 0.198461
H28   H     H_    0.685588 0.578422 0.224279 0.145473
H29   H     H_    0.827162 0.708736 0.285417 0.143783
H30   H     H_    0.824070 0.582390 0.383803 0.154879
H31   H     H_    0.732252 0.669202 0.385926 0.159807
H32   H     H_    0.691441 0.442983 0.183426 0.131029
H33   H     H_    0.714811 0.313640 0.222188 0.120065
H34   H     H_    0.938233 0.045479 0.622992 0.123106
H35   H     H_    0.702161 0.399522 0.376533 0.179661
H36   H     H_    0.754262 0.282968 0.399942 0.192164
H37   H     H_    0.945568 0.380355 0.313301 0.141046
H38   H     H_    0.939771 0.417517 0.413793 0.144104
H39   H     H_    0.891045 0.498664 0.283634 0.143985
H40   H     H_    0.328444 0.804169 0.033804 0.272717
H41   H     H_    0.461491 0.941903 0.078350 0.138561
H42   H     H_    0.420156 0.986684 0.942345 0.133860
H43   H     H_    0.578850 0.949235 0.005338 0.146623
H44   H     H_    0.895828 0.982920 0.298563 0.275965
H45   H     H_    0.515163 0.682019 0.772544 0.122513
H46   H     H_    0.649222 0.952293 0.300157 0.194516
H47   H     H_    0.675134 0.821594 0.379936 0.151370
H48   H     H_    0.707759 0.879135 0.251971 0.105007
H49   H     H_    0.765135 0.145888 0.311763 0.253792
H50   H     H_    0.836444 0.247269 0.161875 0.129007
H51   H     H_    0.970731 0.181650 0.196313 0.146236
H52   H     H_    0.977461 0.276995 0.245702 0.134652
H53   H     H_    0.482564 0.934355 0.832214 0.135589
H54   H     H_    0.362204 0.183766 0.971407 0.137898
H55   H     H_    0.398371 0.070721 0.147523 0.126869
H56   H     H_    0.062115 0.893765 0.418778 0.143284
N1    N     N_R   0.585360 0.204570 0.560800 -0.237978
N2    N     N_R   0.414550 0.795430 0.439160 -0.236790
N3    N     N_2   0.338760 0.347036 0.820575 -0.535706
N4    N     N_2   0.422638 0.828932 0.019710 -0.497262
N5    N     N_2   0.843672 0.930216 0.354093 -0.519596
N6    N     N_2   0.857543 0.137138 0.311578 -0.519909
O1    O     O_R   0.455060 0.022100 0.338110 -0.527317
O2    O     O_3   0.542849 0.335420 0.250395 -0.583395
O3    O     O_R   0.512640 0.160150 0.379180 -0.449516
O4    O     O_R   0.288900 0.930980 0.479450 -0.509464
O5    O     O_R   0.346480 0.069030 0.520520 -0.511862
O6    O     O_R   0.487360 0.839850 0.620820 -0.502491
O7    O     O_R   0.544940 0.977900 0.661890 -0.502984
O8    O     O_R   0.653520 0.930970 0.479480 -0.511611
O9    O     O_R   0.711100 0.069020 0.520550 -0.531053
O10   O     O_3   0.440577 0.645982 0.167139 -0.567526

loop_
_geom_bond_atom_site_label_1
_geom_bond_atom_site_label_2
_ccdc_geom_bond_type
C42   H22   S    
C17   C53   A    
C43   H25   S    
H49   N6    S    
C42   H24   S    
Cu1   O8    S    
C1    O3    A    
C7    C8    A    
C39   C41   S    
C46   H31   S    
C12   C23   S    
C26   C27   A    
C29   C30   A    
C48   H36   S    
C4    O5    A    
C12   C28   S    
C9    H3    S    
C32   C36   A    
C18   C19   A    
C30   C31   A    
C11   C14   A    
C4    C41   S    
Cu2   O9    S    
C4    O4    A    
C28   O9    A    
C39   H16   S    
C16   C53   S    
C33   H14   S    
C33   C35   A    
C24   C29   A    
C47   C48   S    
C45   C56   A    
C14   N4    S    
C51   N5    S    
C31   C33   A    
C19   H9    S    
C35   H6    S    
C52   H52   S    
C36   H5    S    
C9    C10   A    
C34   H12   S    
C23   H34   S    
C25   C32   A    
Cu2   O7    S    
C18   C22   A    
C21   C22   A    
C12   C38   S    
C43   H26   S    
C44   H28   S    
C25   C26   A    
C44   C46   S    
C8    N3    S    
H40   N4    S    
Cu1   N2    S    
C46   H30   S    
C34   N6    S    
C48   H35   S    
C15   H53   S    
H20   N3    S    
C24   C25   A    
C39   H23   S    
C3    C8    A    
Cu1   O6    S    
C47   O2    S    
C37   H56   S    
C55   H55   S    
C51   H46   S    
Cu1   O1    S    
C40   H18   S    
C56   O2    S    
C43   C44   S    
C10   O10   S    
C5    C9    A    
C37   C38   S    
C27   H4    S    
C31   C32   A    
C19   N1    A    
C51   H47   S    
C50   H41   S    
C54   H54   S    
C35   N2    A    
C49   H37   S    
C45   C55   A    
C37   H1    S    
C50   H43   S    
C38   N5    S    
C52   N6    S    
C48   C49   S    
C22   C27   A    
Cu2   N1    S    
C47   H32   S    
C34   C40   S    
C2    C5    A    
Cu2   O3    S    
C12   C34   S    
C44   H27   S    
C36   N2    A    
C15   C53   A    
C7    H2    S    
C46   H29   S    
C54   C55   A    
C40   C41   S    
C50   N4    S    
C47   H33   S    
C20   H10   S    
C43   O10   S    
C23   H17   S    
C20   N1    A    
C42   N3    S    
C6    C7    A    
C18   H8    S    
C50   H42   S    
C13   C17   A    
C2    C3    A    
C17   H45   S    
C2    C56   A    
C6    C13   A    
C11   C13   A    
C1    C45   S    
Cu1   Cu2   S    
C5    C6    A    
C52   H51   S    
C51   H48   S    
C23   C39   S    
C3    C54   A    
C40   H19   S    
C49   H38   S    
C37   C41   S    
C16   O7    A    
C1    O1    A    
C30   H7    S    
C10   C11   A    
C49   H39   S    
C42   H21   S    
C20   C21   A    
C52   H50   S    
Cu2   O5    S    
C21   C24   A    
C26   H11   S    
C14   C15   A    
C29   H13   S    
C16   O6    A    
H44   N5    S    
C28   O8    A    
Cu1   O4    S    
C38   H15   S    
