data_mof_unit_20927.cif
_audit_creation_date              2013-03-05T15:50:31-0500
_audit_creation_method            fapswitch 2.2
_symmetry_space_group_name_H-M    P1
_symmetry_Int_Tables_number       1
_space_group_crystal_system       triclinic
_cell_length_a                    19.146298
_cell_length_b                    7.162154
_cell_length_c                    17.912723
_cell_angle_alpha                 89.878055
_cell_angle_beta                  108.814247
_cell_angle_gamma                 90.038184
_cell_volume                      2325.09882836

loop_
_atom_site_label
_atom_site_type_symbol
_atom_site_description
_atom_site_fract_x
_atom_site_fract_y
_atom_site_fract_z
_atom_type_partial_charge
O1    O     O_R   0.562310 0.505770 0.439670 -0.578033
O2    O     O_R   0.437690 0.005770 0.560330 -0.583193
O3    O     O_R   0.411650 0.169150 0.405330 -0.557165
O4    O     O_R   0.588350 0.669150 0.594670 -0.532379
C1    C     C_R   0.385608 0.346295 0.382474 1.123724
C2    C     C_R   0.615035 0.845834 0.616951 1.140647
O5    O     O_R   0.560140 0.175610 0.430010 -0.577989
O6    O     O_R   0.439860 0.675610 0.569990 -0.573333
O7    O     O_R   0.587240 0.012100 0.585200 -0.522491
O8    O     O_R   0.412760 0.512100 0.414800 -0.515721
C3    C     C_R   0.580413 0.345073 0.414511 1.031351
C4    C     C_R   0.419642 0.844883 0.585549 1.018668
O9    O     O_3   0.508720 0.341420 0.550890 -0.234871
O10   O     O_3   0.491280 0.841420 0.449110 -0.241784
V1    V     V_3+5 0.498380 0.063930 0.490560 1.413428
V2    V     V_3+5 0.501620 0.563930 0.509440 1.427498
C5    C     C_R   0.189803 0.042561 0.877470 0.323491
C6    C     C_R   0.809633 0.543028 0.121765 0.323950
C7    C     C_R   0.129740 0.916795 0.863893 -0.411551
C8    C     C_R   0.870046 0.418324 0.135873 -0.415406
C9    C     C_R   0.120449 0.774264 0.806409 0.333377
C10   C     C_R   0.880854 0.279961 0.195244 0.320664
C11   C     C_R   0.167847 0.766434 0.759811 0.043125
C12   C     C_R   0.832813 0.269420 0.241014 0.044536
C13   C     C_R   0.224597 0.900711 0.770308 0.008198
C14   C     C_R   0.775421 0.402007 0.229685 0.008103
C15   C     C_R   0.234580 0.043147 0.827705 -0.150121
C16   C     C_R   0.765387 0.544488 0.172085 -0.151299
C17   C     C_R   0.159973 0.625190 0.702811 -0.071024
C18   C     C_R   0.840855 0.128021 0.298185 -0.069983
C19   C     C_R   0.208992 0.610953 0.659952 -0.157495
C20   C     C_R   0.791594 0.112753 0.340790 -0.163874
C21   C     C_R   0.266108 0.740306 0.670868 0.124343
C22   C     C_R   0.734162 0.241392 0.329481 0.126917
C23   C     C_R   0.273400 0.887778 0.725031 0.076717
C24   C     C_R   0.726602 0.388660 0.274916 0.076448
C25   C     C_R   0.330247 0.020172 0.734788 -0.059266
C26   C     C_R   0.669672 0.520870 0.264918 -0.059504
C27   C     C_R   0.338457 0.162435 0.790362 -0.202945
C28   C     C_R   0.661772 0.664119 0.209526 -0.202439
C29   C     C_R   0.291702 0.177073 0.835805 0.344632
C30   C     C_R   0.708868 0.679625 0.164421 0.344361
C31   C     C_R   0.315634 0.724573 0.627929 -0.116410
C32   C     C_R   0.684672 0.225391 0.372507 -0.118658
C33   C     C_R   0.371605 0.857345 0.636168 -0.285828
C34   C     C_R   0.628502 0.357807 0.363917 -0.280678
C35   C     C_R   0.378521 0.007211 0.689525 0.329719
C36   C     C_R   0.621358 0.507460 0.310157 0.321854
H1    H     H_    0.116163 0.523024 0.691082 0.184878
H2    H     H_    0.884782 0.026191 0.309971 0.184777
H3    H     H_    0.201982 0.498281 0.617858 0.180104
H4    H     H_    0.798724 0.000040 0.383076 0.175918
H5    H     H_    0.309335 0.611372 0.586198 0.206316
H6    H     H_    0.691197 0.112340 0.414606 0.187850
H7    H     H_    0.381419 0.266260 0.799025 0.216928
H8    H     H_    0.619146 0.768660 0.201177 0.218061
C37   C     C_3   0.767492 0.724038 0.817269 0.801117
C38   C     C_3   0.232834 0.227657 0.182224 0.797434
C39   C     C_3   0.703780 0.687114 0.739036 0.353902
C40   C     C_3   0.299068 0.192353 0.258791 0.350567
H9    H     H_    0.719023 0.569986 0.706981 0.169289
H10   H     H_    0.288055 0.069589 0.290947 0.175332
H11   H     H_    0.856625 0.770149 0.727696 0.208607
H12   H     H_    0.146022 0.256531 0.274342 0.217217
C41   C     C_3   0.828827 0.904298 0.729486 -0.169184
C42   C     C_3   0.171748 0.392952 0.273032 -0.163468
C43   C     C_3   0.757990 0.072816 0.805597 0.603284
C44   C     C_3   0.239885 0.576552 0.196904 0.591901
C45   C     C_3   0.812428 0.908800 0.810489 -0.795253
C46   C     C_3   0.186777 0.408242 0.190968 -0.780038
H13   H     H_    0.781083 0.202407 0.789909 0.178911
H14   H     H_    0.216294 0.700748 0.215949 0.190151
C47   C     C_3   0.687351 0.865160 0.686311 -0.776196
C48   C     C_3   0.313757 0.367006 0.312935 -0.798936
C49   C     C_3   0.755235 0.905252 0.656600 0.781531
C50   C     C_3   0.246488 0.399968 0.343683 0.786094
C51   C     C_3   0.682285 0.033035 0.741860 0.589304
C52   C     C_3   0.316913 0.538250 0.258388 0.601767
H15   H     H_    0.641515 0.996123 0.771749 0.196628
H16   H     H_    0.356705 0.506132 0.226724 0.202126
O11   O     O_R   0.087220 0.271820 0.085230 -0.586129
O12   O     O_R   0.912780 0.771820 0.914770 -0.577566
O13   O     O_R   0.939860 0.595540 0.069990 -0.559801
O14   O     O_R   0.060140 0.095540 0.930010 -0.559666
C53   C     C_R   0.918935 0.426568 0.085169 1.056515
C54   C     C_R   0.080844 0.926365 0.914569 1.065094
O15   O     O_R   0.088340 0.601930 0.094680 -0.540282
O16   O     O_R   0.911660 0.101930 0.905320 -0.561884
O17   O     O_R   0.062310 0.765410 0.939660 -0.562290
O18   O     O_R   0.937690 0.265410 0.060340 -0.561614
C55   C     C_R   0.115329 0.430617 0.118988 1.209995
C56   C     C_R   0.883948 0.931074 0.881988 1.196570
O19   O     O_3   0.991270 0.429630 0.949130 -0.239992
O20   O     O_3   0.008730 0.929630 0.050870 -0.238282
V3    V     V_3+5 0.001620 0.707150 0.009440 1.450623
V4    V     V_3+5 0.998380 0.207150 0.990560 1.443115
N1    N     N_R   0.215593 0.136535 0.951797 0.269041
O21   O     O_R   0.182729 0.286012 0.964764 -0.248726
O22   O     O_R   0.278031 0.085038 0.002718 -0.194934
N2    N     N_R   0.783425 0.636424 0.047150 0.270787
O23   O     O_R   0.817038 0.783530 0.032949 -0.255036
O24   O     O_R   0.719777 0.588451 0.997658 -0.194009
F1    F     F_    0.735344 0.754481 0.875256 -0.521026
F2    F     F_    0.261910 0.263440 0.122152 -0.522368
F3    F     F_    0.640995 0.630681 0.755769 -0.543051
F4    F     F_    0.361662 0.147989 0.239314 -0.546023
N3    N     N_R   0.763288 0.772615 0.596928 0.215557
O25   O     O_R   0.812897 0.805722 0.563168 -0.307806
O26   O     O_R   0.722158 0.624929 0.575682 -0.401791
N4    N     N_R   0.245693 0.264806 0.405682 0.218401
O27   O     O_R   0.258869 0.321208 0.477945 -0.350647
O28   O     O_R   0.229658 0.089749 0.389534 -0.359669
F5    F     F_    0.748035 0.104637 0.877878 -0.556711
F6    F     F_    0.247793 0.617416 0.124318 -0.561458
F7    F     F_    0.658232 0.197777 0.700800 -0.581661
F8    F     F_    0.340967 0.701613 0.300257 -0.590677
N5    N     N_R   0.880679 0.050819 0.722903 0.302450
O29   O     O_R   0.945950 0.004953 0.721580 -0.324045
O30   O     O_R   0.860195 0.223743 0.709074 -0.223028
N6    N     N_R   0.119075 0.528707 0.286035 0.308649
O31   O     O_R   0.095956 0.505968 0.346268 -0.259968
O32   O     O_R   0.094552 0.670501 0.239791 -0.289109
N7    N     N_R   0.066706 0.629120 0.799309 0.245767
O33   O     O_R   0.996990 0.668900 0.780477 -0.336505
O34   O     O_R   0.087906 0.457142 0.816003 -0.330969
N8    N     N_R   0.939150 0.145988 0.207206 0.243107
O35   O     O_R   0.923820 0.971376 0.189344 -0.320151
O36   O     O_R   0.007474 0.200834 0.229828 -0.371908
F9    F     F_    0.743668 0.079523 0.620644 -0.592077
F10   F     F_    0.254174 0.577622 0.376819 -0.585144
N9    N     N_R   0.435519 0.143988 0.699059 0.243905
O37   O     O_R   0.418515 0.315593 0.676540 -0.363847
O38   O     O_R   0.504474 0.095152 0.726878 -0.336361
N10   N     N_R   0.564076 0.643519 0.300205 0.243292
O39   O     O_R   0.495225 0.593674 0.272582 -0.335892
O40   O     O_R   0.580704 0.815121 0.322696 -0.370806
N11   N     N_R   0.301854 0.335382 0.887029 0.268024
O41   O     O_R   0.251134 0.463306 0.872507 -0.340676
O42   O     O_R   0.367193 0.372849 0.935644 -0.250354
N12   N     N_R   0.700542 0.841225 0.114914 0.267097
O43   O     O_R   0.754027 0.961498 0.128751 -0.344732
O44   O     O_R   0.635363 0.888717 0.068571 -0.253526
N13   N     N_R   0.812811 0.554569 0.839155 0.213139
O45   O     O_R   0.855739 0.502297 0.799915 -0.388086
O46   O     O_R   0.813997 0.460712 0.901821 -0.285937
N14   N     N_R   0.188742 0.055732 0.161889 0.215416
O47   O     O_R   0.151561 0.993300 0.205847 -0.381862
O48   O     O_R   0.184653 0.966145 0.097524 -0.277685

loop_
_geom_bond_atom_site_label_1
_geom_bond_atom_site_label_2
_geom_bond_distance
_ccdc_geom_bond_type
C18   C20   1.395616 A    
H11   C41   1.104202 S    
O17   V3    2.005159 S    
N8    O35   1.301213 A    
O15   C55   1.347414 A    
N3    O26   1.300425 A    
C46   C55   1.556008 S    
C43   C51   1.555339 S    
C7    C54   1.501204 S    
O2    C4    1.322572 A    
C2    O7    1.351846 A    
O16   V4    2.006024 S    
N1    O21   1.300866 A    
C40   F4    1.389102 S    
N7    O33   1.298581 A    
C27   C29   1.394803 A    
C17   H1    1.081348 S    
C49   N3    1.476329 S    
N11   O42   1.301243 A    
C39   F3    1.389044 S    
C48   C50   1.573686 S    
C11   C17   1.411911 A    
C36   N10   1.434848 S    
C23   C25   1.411014 A    
C12   C14   1.416731 A    
N5    O30   1.298372 A    
C52   H16   1.111112 S    
C10   N8    1.434830 S    
C38   C40   1.558938 S    
N13   O45   1.297673 A    
O12   C56   1.318877 A    
C6    C8    1.418222 A    
C40   H10   1.106912 S    
O14   V4    2.011424 S    
C16   C30   1.425358 A    
C1    C48   1.536330 S    
N4    O27   1.301465 A    
C20   H4    1.083932 S    
N4    O28   1.301407 A    
C5    C7    1.418500 A    
C50   F10   1.392675 S    
C31   H5    1.083949 S    
C27   H7    1.082119 S    
O16   C56   1.346072 A    
C32   C34   1.404887 A    
C28   H8    1.081980 S    
O1    C3    1.323393 A    
N3    O25   1.301409 A    
C19   C21   1.397832 A    
C25   C35   1.415647 A    
C45   C56   1.552486 S    
C39   C47   1.555903 S    
C29   N11   1.433304 S    
C44   H14   1.101290 S    
C28   C30   1.395565 A    
C18   H2    1.081415 S    
C42   C50   1.576061 S    
O6    V2    2.011618 S    
C42   N6    1.473240 S    
C47   C49   1.581142 S    
C6    N2    1.431660 S    
C41   N5    1.474570 S    
N1    O22   1.301141 A    
N6    O32   1.297759 A    
N14   O48   1.300765 A    
C33   C35   1.416225 A    
C44   C52   1.553987 S    
C37   F1    1.385222 S    
C34   C36   1.416243 A    
C39   H9    1.108637 S    
C37   N13   1.469612 S    
C30   N12   1.433914 S    
C5    C15   1.422157 A    
C6    C16   1.422266 A    
N12   O43   1.299280 A    
O4    C2    1.375293 A    
O11   V4    2.031088 S    
C38   C46   1.602017 S    
N10   O40   1.301176 A    
O5    V1    2.009160 S    
O3    C1    1.375823 A    
C35   N9    1.434863 S    
C43   C45   1.554435 S    
H12   C42   1.097512 S    
O4    V2    2.006048 S    
O5    C3    1.329772 A    
C15   C29   1.426213 A    
O6    C4    1.330032 A    
O13   V3    2.008957 S    
C8    C53   1.500885 S    
N2    O24   1.301130 A    
C51   H15   1.111096 S    
C22   C32   1.405514 A    
O1    V2    2.006294 S    
O2    V1    2.004862 S    
C31   C33   1.404161 A    
C13   C23   1.424319 A    
C14   C24   1.423838 A    
O13   C53   1.329374 A    
C8    C10   1.417645 A    
O19   V4    1.743104 S    
C9    C11   1.418531 A    
C10   C12   1.417739 A    
C37   C39   1.555747 S    
C38   F2    1.385090 S    
N9    O37   1.301158 A    
O3    V1    2.004435 S    
N6    O31   1.301441 A    
C2    C47   1.539720 S    
N14   O47   1.298596 A    
N13   O46   1.301069 A    
O15   V3    2.004413 S    
N8    O36   1.299177 A    
O12   V3    2.029958 S    
C7    C9    1.421309 A    
C26   C36   1.415844 A    
C52   F8    1.387003 S    
C19   H3    1.083945 S    
C4    C33   1.488080 S    
N9    O38   1.299698 A    
C54   O17   1.325500 A    
C53   O18   1.328442 A    
C38   N14   1.470978 S    
O18   V4    2.006585 S    
N10   O39   1.299788 A    
N12   O44   1.301283 A    
C13   C15   1.418375 A    
N11   O41   1.298985 A    
C14   C16   1.417995 A    
C41   C49   1.582204 S    
C24   C26   1.411214 A    
C43   F5    1.387491 S    
C1    O8    1.350447 A    
C17   C19   1.394932 A    
O8    V2    2.011909 S    
N5    O29   1.299961 A    
C26   C28   1.399672 A    
C42   C46   1.589904 S    
C41   C45   1.580835 S    
C40   C48   1.553452 S    
N2    O23   1.300968 A    
C21   C23   1.411794 A    
C22   C24   1.411864 A    
C43   H13   1.102008 S    
C11   C13   1.417196 A    
O7    V1    2.010996 S    
O20   V3    1.745823 S    
C12   C18   1.411429 A    
N7    O34   1.300831 A    
O11   C55   1.319478 A    
C32   H6    1.084740 S    
C25   C27   1.398939 A    
C50   N4    1.475478 S    
C48   C52   1.579694 S    
O9    V2    1.743454 S    
C44   F6    1.387249 S    
C44   C46   1.558063 S    
C47   C51   1.585128 S    
O10   V1    1.746175 S    
O14   C54   1.332110 A    
C3    C34   1.488341 S    
C9    N7    1.438883 S    
C37   C45   1.603513 S    
C51   F7    1.387010 S    
C21   C31   1.405134 A    
C5    N1    1.431350 S    
C49   F9    1.388056 S    
C20   C22   1.398541 A    
