data_mof_unit_50720.cif
_audit_creation_date              2012-12-11T20:26:32-0500
_audit_creation_method            fapswitch 2.2
_symmetry_space_group_name_H-M    P1
_symmetry_Int_Tables_number       1
_space_group_crystal_system       triclinic
_cell_length_a                    8.180756
_cell_length_b                    17.333277
_cell_length_c                    18.740126
_cell_angle_alpha                 102.75026
_cell_angle_beta                  91.193071
_cell_angle_gamma                 98.139417
_cell_volume                      2561.96824732

loop_
_atom_site_label
_atom_site_type_symbol
_atom_type_description
_atom_site_fract_x
_atom_site_fract_y
_atom_site_fract_z
_atom_type_partial_charge
Ba1   Ba    Ba6+2 0.853800 0.535410 0.467450 1.629622
Ba2   Ba    Ba6+2 0.336030 0.464660 0.532560 1.627723
C1    C     C_3   0.694443 0.817210 0.289744 -0.371062
C2    C     C_R   0.902691 0.415104 0.090364 -0.092145
C3    C     C_R   0.767708 0.428962 0.948046 -0.105784
C4    C     C_3   0.109660 0.698766 0.278618 0.380208
C5    C     C_R   0.931437 0.462099 0.974340 0.017404
C6    C     C_R   0.710751 0.428602 0.877597 -0.092491
C7    C     C_R   0.813795 0.461333 0.829655 -0.033414
C8    C     C_R   0.975203 0.499993 0.855685 -0.002172
C9    C     C_R   0.033949 0.501046 0.928500 0.022442
C10   C     C_R   0.760094 0.456610 0.756417 -0.009121
C11   C     C_R   0.869091 0.486942 0.709261 -0.298609
C12   C     C_3   0.647530 0.737276 0.310521 0.356115
C13   C     C_R   0.024724 0.529976 0.734615 0.043853
C14   C     C_R   0.077219 0.538236 0.809209 -0.038740
C15   C     C_R   0.154299 0.499156 0.071589 0.020154
C16   C     C_3   0.096726 0.726996 0.207687 -0.374505
C17   C     C_R   0.213270 0.500058 0.144317 -0.003338
C18   C     C_R   0.111765 0.461394 0.190641 -0.040492
C19   C     C_R   0.961166 0.415604 0.160722 -0.033762
C20   C     C_R   0.228030 0.583870 0.839086 -0.029342
C21   C     C_R   0.286055 0.584703 0.909589 -0.091174
C22   C     C_R   0.194741 0.540845 0.954700 0.012902
C23   C     C_3   0.474171 0.341727 0.305041 0.296140
C24   C     C_R   0.256855 0.537979 0.025710 0.017668
C25   C     C_R   0.420822 0.570731 0.051834 -0.104939
C26   C     C_R   0.374880 0.538446 0.170232 -0.032326
C27   C     C_R   0.477977 0.570926 0.122192 -0.096179
C28   C     C_3   0.244670 0.715129 0.636466 0.302651
C29   C     C_R   0.429136 0.542572 0.243277 -0.013815
C30   C     C_R   0.321247 0.511245 0.290179 -0.294637
C31   C     C_R   0.164951 0.469142 0.265048 0.041938
C32   C     C_2   0.438643 0.719290 0.482940 -0.257716
C33   C     C_3   0.366359 0.764261 0.432759 -0.038900
C34   C     C_3   0.482070 0.324324 0.221587 -0.216272
C35   C     C_2   0.420604 0.852761 0.454867 -0.118038
C36   C     C_2   0.558652 0.882704 0.498724 0.007955
C37   C     C_2   0.641706 0.827535 0.533174 -0.124316
C38   C     C_1   0.576523 0.751262 0.523322 0.053594
C39   C     C_R   0.805451 0.137441 0.529835 -0.128348
C40   C     C_3   0.214707 0.802476 0.650143 -0.196987
C41   C     C_R   0.862143 0.219264 0.541707 0.016014
C42   C     C_R   0.620551 0.237056 0.473535 0.033677
C43   C     C_R   0.563836 0.155215 0.460905 -0.117876
C44   C     C_R   0.654248 0.105028 0.490008 0.014566
C45   C     C_3   0.061673 0.307723 0.722711 0.360734
C46   C     C_2   0.627426 0.969066 0.515297 -0.081127
C47   C     C_2   0.592814 0.018498 0.472713 -0.073564
C48   C     C_R   0.766438 0.269260 0.516159 -0.281327
C49   C     C_3   0.952958 0.287316 0.366102 0.310818
C50   C     C_3   0.925429 0.196487 0.342159 -0.399771
C51   C     C_3   0.727306 0.650109 0.693177 0.310932
C52   C     C_3   0.736750 0.675861 0.776394 -0.403804
C53   C     C_3   0.290841 0.853817 0.724483 -0.192355
C54   C     C_3   0.475057 0.886280 0.722139 -0.196579
C55   C     C_3   0.500153 0.964164 0.695648 -0.428415
C56   C     C_3   0.074020 0.288188 0.797682 -0.368571
C57   C     C_3   0.328654 0.268254 0.182520 -0.182423
C58   C     C_3   0.317611 0.264903 0.099913 -0.207121
C59   C     C_3   0.452549 0.223618 0.059047 -0.402692
C60   C     C_3   0.534607 0.260309 0.676750 0.368517
C61   C     C_3   0.502519 0.178391 0.694820 -0.380716
C62   C     C_R   0.993622 0.459224 0.045352 0.012793
H1    H     H_    0.694583 0.743203 0.367868 0.068429
H2    H     H_    0.629363 0.597415 0.676217 0.071051
H3    H     H_    0.838036 0.726828 0.795065 0.119663
H4    H     H_    0.617749 0.694428 0.795692 0.115738
H5    H     H_    0.511059 0.723035 0.306020 -0.058102
H6    H     H_    0.636583 0.863966 0.326595 0.069115
H7    H     H_    0.351687 0.357866 0.321239 -0.001476
H8    H     H_    0.570129 0.394024 0.327173 0.067820
H9    H     H_    0.492100 0.381904 0.204037 0.056377
H10   H     H_    0.595690 0.297749 0.205985 0.116367
H11   H     H_    0.650245 0.812767 0.232332 0.106117
H12   H     H_    0.262803 0.829080 0.604568 0.073700
H13   H     H_    0.132039 0.681261 0.161473 0.075208
H14   H     H_    0.145888 0.364157 0.723812 0.093838
H15   H     H_    0.932572 0.316335 0.711799 -0.063610
H16   H     H_    0.202701 0.280229 0.810807 0.146581
H17   H     H_    0.038801 0.337512 0.840251 0.075454
H18   H     H_    0.989374 0.232287 0.798261 0.107478
H19   H     H_    0.668897 0.274564 0.669672 -0.067391
H20   H     H_    0.465097 0.257361 0.624488 0.093510
H21   H     H_    0.542632 0.132931 0.649741 0.075503
H22   H     H_    0.368545 0.161662 0.701557 0.148933
H23   H     H_    0.078874 0.802825 0.649152 0.120962
H24   H     H_    0.027303 0.640887 0.272976 0.098586
H25   H     H_    0.572961 0.179144 0.746341 0.106679
H26   H     H_    0.828389 0.480896 0.652737 0.073794
H27   H     H_    0.885066 0.379712 0.191285 0.092532
H28   H     H_    0.304700 0.619431 0.808428 0.091388
H29   H     H_    0.604742 0.597209 0.138073 0.113021
H30   H     H_    0.363031 0.516129 0.346376 0.074641
H31   H     H_    0.678244 0.403633 0.981103 0.071810
H32   H     H_    0.785769 0.378032 0.072420 0.054206
H33   H     H_    0.402989 0.621863 0.927543 0.056159
H34   H     H_    0.836777 0.308211 0.384706 0.003609
H35   H     H_    0.239053 0.688538 0.286124 -0.086832
H36   H     H_    0.510435 0.595695 0.018636 0.071113
H37   H     H_    0.513447 0.995887 0.423356 0.066556
H38   H     H_    0.752948 0.851097 0.568371 0.077223
H39   H     H_    0.882983 0.099434 0.548540 0.073548
H40   H     H_    0.709187 0.991937 0.563949 0.069538
H41   H     H_    0.350807 0.890376 0.431096 0.070353
H42   H     H_    0.451073 0.130529 0.427373 0.070302
H43   H     H_    0.389222 0.656557 0.476598 0.076941
H44   H     H_    0.811400 0.332581 0.524903 0.070772
H45   H     H_    0.048541 0.305725 0.411754 0.079768
H46   H     H_    0.968405 0.736473 0.196252 0.148917
H47   H     H_    0.181495 0.784016 0.211873 0.103072
H48   H     H_    0.378352 0.712518 0.634939 -0.000300
H49   H     H_    0.182929 0.683675 0.582455 0.050697
H50   H     H_    0.437273 0.955850 0.640903 0.145202
H51   H     H_    0.449657 0.011813 0.734831 0.133333
H52   H     H_    0.634310 0.983793 0.692057 0.120220
H53   H     H_    0.533990 0.898390 0.778263 0.112141
H54   H     H_    0.539228 0.841370 0.686461 0.137477
H55   H     H_    0.220579 0.904616 0.742050 0.103813
H56   H     H_    0.821859 0.176269 0.299888 0.122186
H57   H     H_    0.275815 0.818629 0.767429 0.131051
H58   H     H_    0.830641 0.835037 0.295065 0.151414
H59   H     H_    0.761131 0.625717 0.800917 0.062553
H60   H     H_    0.576356 0.259014 0.076405 0.124508
H61   H     H_    0.449657 0.162733 0.069281 0.129692
H62   H     H_    0.431650 0.218204 0.999294 0.120133
H63   H     H_    0.195363 0.231090 0.076768 0.110716
H64   H     H_    0.324331 0.326351 0.090375 0.122514
H65   H     H_    0.328546 0.207199 0.192121 0.132726
H66   H     H_    0.215853 0.290446 0.205700 0.106770
H67   H     H_    0.895284 0.169459 0.389408 0.069987
H68   H     H_    0.584382 0.401692 0.861419 0.111605
H69   H     H_    0.039456 0.175457 0.319036 0.123458
H70   H     H_    0.847699 0.634031 0.674702 0.015217
O1    O     O_2   0.871520 0.445720 0.321500 -0.468335
O2    O     O_2   0.201297 0.222365 0.535515 -0.486729
O3    O     O_3   0.107635 0.244665 0.669822 -0.599039
O4    O     O_3   0.121030 0.451930 0.411150 -0.489024
O5    O     O_3   0.581210 0.598010 0.542960 -0.491354
O6    O     O_2   0.335820 0.303580 0.452320 -0.458046
O7    O     O_3   0.503904 0.274781 0.331435 -0.648637
O8    O     O_2   0.420358 0.464156 0.755456 -0.494109
O9    O     O_3   0.481341 0.317254 0.733569 -0.605576
O10   O     O_3   0.662190 0.593100 0.375060 -0.479455
O11   O     O_2   0.764331 0.530349 0.244612 -0.492578
O12   O     O_3   0.691794 0.714121 0.664455 -0.648176
O13   O     O_3   0.002475 0.318361 0.306039 -0.651133
O14   O     O_3   0.717516 0.678110 0.262715 -0.605649
O15   O     O_2   0.853880 0.696450 0.547730 -0.460508
O16   O     O_3   0.085100 0.636210 0.413950 -0.481879
O17   O     O_2   0.043390 0.783781 0.481014 -0.487548
O18   O     O_3   0.062617 0.756158 0.337277 -0.592474
O19   O     O_2   0.318180 0.554310 0.678550 -0.471810
O20   O     O_3   0.068680 0.548140 0.588860 -0.487894
O21   O     O_3   0.527520 0.406960 0.624950 -0.478277
O22   O     O_3   0.181992 0.681861 0.693805 -0.652885
O23   O     O_3   0.608500 0.402060 0.457050 -0.482356
O24   O     O_3   0.104610 0.363860 0.586060 -0.488988
P1    P     P_3+3 0.038810 0.422920 0.331160 0.967422
P2    P     P_3+3 0.678260 0.686080 0.568600 0.968722
P3    P     P_3+3 0.138060 0.737632 0.418932 0.954405
P4    P     P_3+3 0.150900 0.577150 0.668860 0.972070
P5    P     P_3+3 0.069392 0.261528 0.582732 0.949126
P6    P     P_3+3 0.641852 0.585152 0.280817 0.931087
P7    P     P_3+3 0.517806 0.301644 0.427509 0.944883
P8    P     P_3+3 0.548003 0.412651 0.718599 0.935215

loop_
_geom_bond_atom_site_label_1
_geom_bond_atom_site_label_2
_ccdc_geom_bond_type
C30   H30   S    
C60   H19   S    
C53   H57   S    
C57   H66   S    
Ba2   O21   S    
C11   H26   S    
C25   C27   A    
C54   H53   S    
C13   P4    S    
C17   C18   A    
C45   H15   S    
C60   O9    S    
C53   C54   S    
C34   C57   S    
O13   P1    S    
Ba2   P4    S    
C55   H51   S    
C53   H55   S    
C43   C44   A    
C42   C43   A    
C5    C9    A    
C10   C11   A    
C44   C47   S    
C24   C25   A    
C33   P3    S    
C59   H60   S    
C32   C38   D    
C15   C24   A    
C26   C27   A    
C33   C35   S    
C22   C24   A    
C32   C33   S    
C56   H18   S    
C15   C62   A    
C10   P8    S    
C36   C37   S    
C4    H35   S    
O12   P2    S    
O21   P8    S    
C13   C14   A    
C46   H40   S    
C12   O14   S    
C9    C22   A    
C4    H24   S    
C54   C55   S    
Ba1   Ba2   S    
C2    H32   S    
O4    P1    S    
C6    C7    A    
O17   P3    D    
C6    H68   S    
C39   C44   A    
Ba1   O15   S    
C59   H62   S    
C23   H7    S    
C49   O13   S    
C1    H11   S    
C7    C8    A    
C36   C46   S    
O18   P3    S    
Ba1   O5    S    
C1    H58   S    
C56   H16   S    
C4    O18   S    
C49   H34   S    
C28   O22   S    
O22   P4    S    
C57   C58   S    
Ba2   O20   S    
C61   H21   S    
C48   H44   S    
C50   H69   S    
C39   C41   A    
C61   H25   S    
C3    H31   S    
O20   P4    S    
C55   H52   S    
C26   C29   A    
C4    C16   S    
C25   H36   S    
O1    P1    D    
C49   C50   S    
Ba2   O4    S    
Ba1   P1    S    
C1    H6    S    
C16   H47   S    
C8    C9    A    
C56   H17   S    
O23   P7    S    
C37   C38   D    
O3    P5    S    
C52   H3    S    
C51   C52   S    
C39   H39   S    
C28   H48   S    
C58   C59   S    
O14   P6    S    
O9    P8    S    
C35   H41   S    
C35   C36   D    
C17   C26   A    
C40   C53   S    
O8    P8    D    
C29   C30   A    
C58   H64   S    
C21   C22   A    
C45   O3    S    
C60   C61   S    
Ba1   O16   S    
C23   H8    S    
C18   C19   A    
C51   H2    S    
C1    C12   S    
C34   H10   S    
O24   P5    S    
C32   H43   S    
C18   C31   A    
C50   H56   S    
C46   C47   D    
C21   H33   S    
O5    P2    S    
Ba2   O19   S    
C11   C13   A    
C61   H22   S    
C12   H5    S    
C52   H59   S    
Ba2   O5    S    
C43   H42   S    
C37   H38   S    
C3    C5    A    
C19   H27   S    
C42   C48   A    
O6    P7    D    
O16   P3    S    
C60   H20   S    
C29   P6    S    
C57   H65   S    
C14   C20   A    
C50   H67   S    
C54   H54   S    
C38   P2    S    
C58   H63   S    
C23   O7    S    
C51   H70   S    
C16   H46   S    
C3    C6    A    
C41   C48   A    
C55   H50   S    
O11   P6    D    
O15   P2    D    
C2    C62   A    
C40   H12   S    
O19   P4    D    
Ba2   O6    S    
O7    P7    S    
Ba1   O23   S    
Ba1   O10   S    
C8    C14   A    
C30   C31   A    
C45   C56   S    
C27   H29   S    
C2    C19   A    
Ba1   P2    S    
Ba2   O23   S    
C51   O12   S    
C15   C17   A    
C12   H1    S    
C42   P7    S    
C16   H13   S    
Ba1   O20   S    
C7    C10   A    
C5    C62   A    
C34   H9    S    
C23   C34   S    
C52   H4    S    
Ba2   O24   S    
C49   H45   S    
C20   H28   S    
C20   C21   A    
C28   C40   S    
C59   H61   S    
C40   H23   S    
C45   H14   S    
Ba1   O1    S    
O2    P5    D    
O10   P6    S    
Ba1   O4    S    
C31   P1    S    
C47   H37   S    
C28   H49   S    
C41   P5    S    
