data_mof_unit_41402.cif
_audit_creation_date              2012-12-10T20:27:12-0500
_audit_creation_method            fapswitch 2.2
_symmetry_space_group_name_H-M    P1
_symmetry_Int_Tables_number       1
_space_group_crystal_system       triclinic
_cell_length_a                    10.804773
_cell_length_b                    10.673256
_cell_length_c                    9.862332
_cell_angle_alpha                 89.990028
_cell_angle_beta                  103.952538
_cell_angle_gamma                 89.863478
_cell_volume                      1103.78499771

loop_
_atom_site_label
_atom_site_type_symbol
_atom_type_description
_atom_site_fract_x
_atom_site_fract_y
_atom_site_fract_z
_atom_type_partial_charge
C1    C     C_R   0.495932 0.259927 0.499007 0.886267
C2    C     C_R   0.605600 0.533568 0.099652 -0.143111
C3    C     C_R   0.605650 0.533442 0.955827 -0.105013
C4    C     C_R   0.259043 0.503435 0.441803 0.950943
C5    C     C_R   0.390144 0.477623 0.899726 0.175864
C6    C     C_3   0.310312 0.362281 0.871998 -0.563891
C7    C     C_3   0.311257 0.361660 0.026916 0.003795
C8    C     C_R   0.495738 0.740077 0.498895 0.867403
C9    C     C_R   0.740972 0.503545 0.558232 0.946055
C10   C     C_2   0.122609 0.517275 0.408883 -0.367204
C11   C     C_2   0.067912 0.543311 0.512891 -0.164815
C12   C     C_R   0.474894 0.128650 0.494192 -0.084025
C13   C     C_2   0.877423 0.517528 0.591343 -0.385146
C14   C     C_2   0.932164 0.543145 0.487364 -0.147873
C15   C     C_R   0.474860 0.063920 0.616755 0.070638
C16   C     C_3   0.107298 0.276621 0.048920 -0.793318
C17   C     C_3   0.583399 0.865603 0.000767 -0.786733
C18   C     C_R   0.449608 0.064902 0.366107 -0.227475
C19   C     C_R   0.449356 0.935350 0.366044 -0.213549
C20   C     C_R   0.474420 0.871402 0.494048 -0.121083
C21   C     C_R   0.474153 0.936016 0.616588 0.069865
C22   C     C_3   0.564053 0.928558 0.758144 0.046160
C23   C     C_3   0.564610 0.071179 0.758218 -0.529178
C24   C     C_R   0.390172 0.477693 0.042340 0.149390
H1    H     H_    0.877255 0.554765 0.380132 0.176205
H2    H     H_    0.067155 0.504739 0.302034 0.155698
H3    H     H_    0.439279 0.113849 0.267816 0.159415
H4    H     H_    0.438686 0.886411 0.267736 0.168651
H5    H     H_    0.657115 0.884138 0.756769 0.145716
H6    H     H_    0.519277 0.114440 0.836764 0.201751
H7    H     H_    0.138949 0.462599 0.002141 0.223414
H8    H     H_    0.018844 0.303108 0.080543 0.232273
H9    H     H_    0.157978 0.204005 0.122644 0.245946
H10   H     H_    0.081007 0.237754 0.941298 0.239021
H11   H     H_    0.412772 0.908707 0.857791 0.231211
H12   H     H_    0.658676 0.111434 0.754922 0.188311
H13   H     H_    0.532875 0.811998 0.067440 0.239039
H14   H     H_    0.605846 0.960496 0.046211 0.235269
H15   H     H_    0.673331 0.815340 0.999742 0.237942
H16   H     H_    0.691376 0.559473 0.175890 0.142900
H17   H     H_    0.691459 0.558850 0.924391 0.140442
H18   H     H_    0.215299 0.381085 0.801078 0.203900
H19   H     H_    0.362227 0.281600 0.840583 0.198636
H20   H     H_    0.362618 0.281068 0.087059 0.156324
H21   H     H_    0.122921 0.555671 0.620028 0.183630
H22   H     H_    0.932876 0.505525 0.698332 0.143298
N1    N     N_R   0.499160 0.499140 0.142600 -0.117266
N2    N     N_R   0.499160 0.499180 0.856960 -0.092687
N3    N     N_2   0.186894 0.385874 0.053448 -0.268619
N4    N     N_2   0.503060 0.874968 0.860868 -0.263959
O1    O     O_R   0.500020 0.316790 0.614700 -0.612680
O2    O     O_R   0.500000 0.316760 0.385350 -0.624736
O3    O     O_R   0.317820 0.500020 0.571850 -0.618308
O4    O     O_R   0.317800 0.499980 0.342510 -0.600330
O5    O     O_R   0.500000 0.683240 0.614650 -0.603556
O6    O     O_R   0.499980 0.683210 0.385300 -0.625128
O7    O     O_R   0.682200 0.500020 0.657490 -0.626347
O8    O     O_R   0.682180 0.499980 0.428150 -0.619165
Zn1   Zn    Zn3+2 0.500010 0.500020 0.653140 0.947836
Zn2   Zn    Zn3+2 0.499990 0.499980 0.346860 0.941989

loop_
_geom_bond_atom_site_label_1
_geom_bond_atom_site_label_2
_ccdc_geom_bond_type
C17   N4    S    
C6    C7    S    
C22   H5    S    
O5    Zn1   S    
C16   H9    S    
C16   H8    S    
C19   C20   A    
C12   C15   A    
C22   N4    S    
C16   H10   S    
C10   H2    S    
H11   N4    S    
C15   C23   S    
C2    C3    A    
O3    Zn1   S    
O4    Zn2   S    
C21   C22   S    
C20   C21   A    
C19   H4    S    
C1    O1    A    
C8    O6    A    
C8    C20   S    
C1    C12   S    
H7    N3    S    
C8    O5    A    
C1    O2    A    
C23   H12   S    
C9    O7    A    
C6    H19   S    
C22   C23   S    
C14   H1    S    
C6    H18   S    
C5    C6    S    
C2    N1    A    
C5    N2    A    
C11   H21   S    
C4    O3    A    
O7    Zn1   S    
C10   C11   D    
O8    Zn2   S    
C7    C24   S    
C23   H6    S    
C2    H16   S    
C3    N2    A    
C15   C21   A    
O1    Zn1   S    
C16   N3    S    
C7    N3    S    
N2    Zn1   S    
C9    O8    A    
C17   H15   S    
C17   H14   S    
C11   C14   S    
C18   C19   A    
C9    C13   S    
C13   H22   S    
C5    C24   A    
C17   H13   S    
O2    Zn2   S    
C4    O4    A    
N1    Zn2   S    
C13   C14   D    
C24   N1    A    
C4    C10   S    
C7    H20   S    
C3    H17   S    
C18   H3    S    
O6    Zn2   S    
C12   C18   A    
