data_mof_unit_38901.cif
_audit_creation_date              2013-03-05T15:40:19-0500
_audit_creation_method            fapswitch 2.2
_symmetry_space_group_name_H-M    P1
_symmetry_Int_Tables_number       1
_space_group_crystal_system       triclinic
_cell_length_a                    10.848043
_cell_length_b                    10.843978
_cell_length_c                    17.68682
_cell_angle_alpha                 98.113529
_cell_angle_beta                  73.101204
_cell_angle_gamma                 98.59203
_cell_volume                      1957.89676928

loop_
_atom_site_label
_atom_site_type_symbol
_atom_site_description
_atom_site_fract_x
_atom_site_fract_y
_atom_site_fract_z
_atom_type_partial_charge
Zn1   Zn    Zn3+2 0.577310 0.422690 0.565550 0.954922
Zn2   Zn    Zn3+2 0.403760 0.371330 0.445150 0.968123
Zn3   Zn    Zn3+2 0.634990 0.589920 0.423760 0.963644
Zn4   Zn    Zn3+2 0.383940 0.616050 0.565540 0.951191
O1    O     O_3   0.500000 0.500000 0.500000 -0.481337
O2    O     O_R   0.209690 0.568800 0.556400 -0.642358
O3    O     O_R   0.763190 0.458310 0.535350 -0.639657
O4    O     O_R   0.414000 0.207090 0.472140 -0.636161
O5    O     O_R   0.613120 0.765800 0.436110 -0.643400
O6    O     O_R   0.470800 0.371790 0.332500 -0.633664
O7    O     O_R   0.380610 0.619380 0.674980 -0.646601
O8    O     O_R   0.632640 0.524780 0.317540 -0.650904
O9    O     O_R   0.515950 0.484050 0.674980 -0.643517
O10   O     O_R   0.535460 0.243030 0.556410 -0.635642
O11   O     O_R   0.437420 0.784080 0.535340 -0.640112
O12   O     O_R   0.223560 0.397520 0.472140 -0.632849
O13   O     O_R   0.803560 0.575360 0.436110 -0.649812
C1    C     C_R   0.157340 0.479460 0.517629 0.860099
C2    C     C_R   0.843355 0.520703 0.482410 0.889094
C3    C     C_R   0.467865 0.168151 0.517857 0.860383
C4    C     C_R   0.530744 0.833151 0.482630 0.895201
C5    C     C_R   0.565617 0.435053 0.287468 0.817572
C6    C     C_R   0.433155 0.560922 0.713371 0.787900
C7    C     C_R   0.385247 0.566529 0.801570 -0.066617
C8    C     C_R   0.596970 0.404070 0.200902 -0.063540
C9    C     C_R   0.220083 0.593422 0.928024 -0.248508
C10   C     C_R   0.263581 0.607472 0.846578 0.159219
C11   C     C_R   0.457891 0.514924 0.840750 -0.286183
C12   C     C_R   0.407336 0.487655 0.919996 0.083007
C13   C     C_R   0.290848 0.535538 0.964697 0.137829
C14   C     C_R   0.474039 0.422294 0.957732 0.054812
C15   C     C_R   0.441816 0.436336 0.042217 0.063234
C16   C     C_R   0.323252 0.483181 0.084917 -0.204853
C17   C     C_R   0.247370 0.528078 0.046274 -0.237882
C18   C     C_R   0.566472 0.338524 0.915832 0.129442
C19   C     C_R   0.650940 0.306154 0.954550 -0.278141
C20   C     C_R   0.637098 0.340181 0.036214 0.063473
C21   C     C_R   0.527745 0.401491 0.081112 0.052445
C22   C     C_R   0.727139 0.309981 0.074342 0.160200
C23   C     C_R   0.708668 0.346734 0.157251 0.120239
C24   C     C_R   0.509841 0.430898 0.163246 -0.294036
H1    H     H_    0.156928 0.562609 0.081123 0.142527
H2    H     H_    0.430828 0.480409 0.200074 0.140120
H3    H     H_    0.726449 0.251193 0.919185 0.154836
H4    H     H_    0.129918 0.628097 0.963398 0.139282
H5    H     H_    0.556784 0.501324 0.809454 0.162416
H6    H     H_    0.283929 0.482831 0.148264 0.145627
C25   C     C_2   0.981147 0.528937 0.475335 -0.346933
H7    H     H_    0.050258 0.581506 0.429953 0.145801
C26   C     C_2   0.021271 0.471946 0.524481 -0.303258
H8    H     H_    0.954160 0.418951 0.570288 0.156709
C27   C     C_2   0.543021 0.966563 0.476005 -0.347270
H9    H     H_    0.624333 0.008463 0.431407 0.148983
C28   C     C_2   0.454956 0.036159 0.524427 -0.303054
H10   H     H_    0.372539 0.996521 0.569180 0.157656
C29   C     C_3   0.841785 0.238855 0.027172 -0.417382
C30   C     C_3   0.954055 0.327155 0.982155 -0.879974
H11   H     H_    0.924411 0.372305 0.938676 0.256957
H12   H     H_    0.986930 0.401375 0.024411 0.257490
H13   H     H_    0.036719 0.273636 0.949576 0.255017
H14   H     H_    0.877848 0.188695 0.065254 0.218200
H15   H     H_    0.812426 0.160735 0.986038 0.192469
C31   C     C_3   0.805842 0.325031 0.200077 -0.432196
C32   C     C_3   0.767331 0.201211 0.237318 -0.876878
H16   H     H_    0.672509 0.202825 0.283207 0.260564
H17   H     H_    0.759943 0.121419 0.191446 0.258964
H18   H     H_    0.841618 0.186525 0.266073 0.250839
H19   H     H_    0.906021 0.328153 0.160338 0.213740
H20   H     H_    0.813712 0.402288 0.247239 0.219764
C33   C     C_3   0.177086 0.667523 0.812164 -0.382184
C34   C     C_3   0.226240 0.805520 0.802045 -0.803307
H21   H     H_    0.327918 0.817174 0.764469 0.269832
H22   H     H_    0.164288 0.845413 0.773751 0.238825
H23   H     H_    0.221458 0.859076 0.861018 0.242212
H24   H     H_    0.165684 0.614522 0.755798 0.222544
H25   H     H_    0.076808 0.663738 0.852485 0.183859
C35   C     C_3   0.563197 0.261745 0.836714 -0.391729
C36   C     C_3   0.429441 0.190181 0.839796 -0.833373
H26   H     H_    0.396881 0.132556 0.890719 0.256820
H27   H     H_    0.356769 0.255247 0.845509 0.260188
H28   H     H_    0.434668 0.126814 0.784104 0.244613
H29   H     H_    0.596832 0.317160 0.785374 0.208161
H30   H     H_    0.631950 0.189775 0.821956 0.196266

loop_
_geom_bond_atom_site_label_1
_geom_bond_atom_site_label_2
_geom_bond_distance
_ccdc_geom_bond_type
C18   C19   1.400191 A    
C17   H1    1.084340 S    
C7    C10   1.427336 A    
C35   C36   1.529734 S    
O6    C5    1.276751 A    
C11   H5    1.076123 S    
C9    C10   1.402238 A    
C12   C13   1.410992 A    
C23   C31   1.526114 S    
Zn1   O1    1.949366 S    
C11   C12   1.405125 A    
C8    C23   1.413010 A    
C31   H20   1.108019 S    
C36   H27   1.108739 S    
C30   H12   1.110366 S    
C35   H30   1.112086 S    
O8    C5    1.274991 A    
C29   C30   1.528753 S    
O9    C6    1.293075 A    
Zn3   O8    1.917544 S    
C2    C25   1.453450 S    
C9    H4    1.085016 S    
C31   H19   1.108074 S    
C14   C15   1.423469 A    
C5    C8    1.469344 S    
C6    C7    1.489499 S    
C33   C34   1.528844 S    
C15   C21   1.427013 A    
Zn2   O12   1.927422 S    
C25   C26   1.333763 D    
C24   H2    1.077687 S    
C27   C28   1.331554 D    
C16   C17   1.386548 A    
O2    C1    1.267193 A    
C13   C17   1.391645 A    
C32   H18   1.110375 S    
O10   C3    1.272186 A    
C21   C24   1.404791 A    
Zn4   O2    1.930459 S    
C8    C24   1.387225 A    
C22   C23   1.427362 A    
C34   H22   1.110304 S    
C36   H26   1.111039 S    
C30   H13   1.110724 S    
C18   C35   1.530955 S    
C32   H17   1.110075 S    
C20   C21   1.420855 A    
Zn3   O5    1.931073 S    
C22   C29   1.529525 S    
C12   C14   1.427911 A    
C26   H8    1.086361 S    
O4    C3    1.272147 A    
Zn4   O7    1.920768 S    
C10   C33   1.517045 S    
C3    C28   1.435053 S    
C25   H7    1.087625 S    
C9    C13   1.397280 A    
O3    C2    1.272948 A    
C33   H25   1.112431 S    
C16   H6    1.077121 S    
C29   H15   1.108390 S    
C19   H3    1.077120 S    
Zn2   O1    1.936346 S    
Zn1   O9    1.910941 S    
Zn2   O6    1.912585 S    
C27   H9    1.087943 S    
C1    C26   1.436321 S    
C28   H10   1.086475 S    
C19   C20   1.408899 A    
Zn1   O3    1.923502 S    
Zn2   O4    1.934466 S    
C7    C11   1.404671 A    
Zn4   O1    1.930213 S    
Zn3   O1    1.926140 S    
C34   H23   1.111059 S    
C32   H16   1.110462 S    
Zn4   O11   1.928908 S    
C34   H21   1.109134 S    
C20   C22   1.434202 A    
C15   C16   1.415943 A    
C36   H28   1.110747 S    
O5    C4    1.267627 A    
C30   H11   1.109766 S    
C35   H29   1.102127 S    
O7    C6    1.281519 A    
O13   C2    1.275624 A    
Zn3   O13   1.935161 S    
C14   C18   1.424765 A    
C31   C32   1.527508 S    
O11   C4    1.267899 A    
O12   C1    1.267206 A    
C33   H24   1.108252 S    
C29   H14   1.105792 S    
Zn1   O10   1.928037 S    
C4    C27   1.451095 S    
