data_mof_unit_37592.cif
_audit_creation_date              2012-12-10T16:51:31-0500
_audit_creation_method            fapswitch 2.2
_symmetry_space_group_name_H-M    P1
_symmetry_Int_Tables_number       1
_space_group_crystal_system       triclinic
_cell_length_a                    7.824691
_cell_length_b                    8.566986
_cell_length_c                    12.059256
_cell_angle_alpha                 92.323566
_cell_angle_beta                  101.061315
_cell_angle_gamma                 94.21865
_cell_volume                      789.978481316

loop_
_atom_site_label
_atom_site_type_symbol
_atom_type_description
_atom_site_fract_x
_atom_site_fract_y
_atom_site_fract_z
_atom_type_partial_charge
Br1   Br    Br    0.108610 0.233199 0.166865 -0.537615
Br2   Br    Br    0.610137 0.095990 0.766996 -0.567926
C1    C     C_R   0.044765 0.794794 0.497436 0.966908
C2    C     C_R   0.158746 0.503541 0.832773 -0.092392
C3    C     C_2   0.068183 0.958582 0.496265 -0.349209
C4    C     C_R   0.105881 0.504122 0.710558 0.860961
C5    C     C_2   0.932495 0.041590 0.505159 -0.345201
C6    C     C_R   0.955466 0.205255 0.503053 0.974374
C7    C     C_R   0.892029 0.483931 0.289392 0.900413
C8    C     C_R   0.802850 0.271261 0.002996 -0.169976
C9    C     C_R   0.829589 0.445451 0.169417 -0.131727
C10   C     C_R   0.075729 0.596173 0.901431 -0.170483
C11   C     C_R   0.149009 0.625591 0.015236 -0.115008
C12   C     C_R   0.396638 0.479369 0.989768 0.114868
C13   C     C_R   0.310349 0.571568 0.058961 -0.115479
C14   C     C_R   0.308167 0.429747 0.880159 0.029179
C15   C     C_R   0.567684 0.434920 0.025666 0.054409
C16   C     C_R   0.635992 0.320142 0.961570 0.039232
C17   C     C_R   0.534282 0.255429 0.859141 0.250339
C18   C     C_R   0.372521 0.310429 0.819385 -0.210737
C19   C     C_R   0.673822 0.505184 0.123063 -0.275488
C20   C     C_R   0.897483 0.328819 0.108471 0.252452
H1    H     H_    0.804778 0.989979 0.513734 0.199975
H2    H     H_    0.195972 0.010233 0.487860 0.199486
H3    H     H_    0.469654 0.374902 0.416184 0.214022
H4    H     H_    0.530322 0.625065 0.583828 0.206976
H5    H     H_    0.857572 0.182940 0.956948 0.209350
H6    H     H_    0.633860 0.603264 0.168160 0.160538
H7    H     H_    0.957886 0.650291 0.866293 0.172274
H8    H     H_    0.361792 0.599289 0.147738 0.146342
H9    H     H_    0.084214 0.695698 0.068709 0.158951
H10   H     H_    0.296357 0.257375 0.740636 0.189091
N1    N     N_2   0.434800 0.456690 0.470850 -0.156377
N2    N     N_2   0.565200 0.543310 0.529150 -0.163473
O1    O     O_R   0.893060 0.738880 0.507150 -0.610699
O2    O     O_R   0.172250 0.711130 0.488470 -0.618637
O3    O     O_R   0.944700 0.520730 0.667600 -0.602428
O4    O     O_R   0.223890 0.492980 0.648920 -0.619683
O5    O     O_R   0.827750 0.288870 0.511530 -0.606142
O6    O     O_R   0.106940 0.261120 0.492850 -0.603146
O7    O     O_R   0.776110 0.507020 0.351080 -0.625152
O8    O     O_R   0.055300 0.479270 0.332400 -0.577669
Zn1   Zn    Zn3+2 0.813580 0.518530 0.512470 0.978508
Zn2   Zn    Zn3+2 0.186420 0.481470 0.487530 0.985999

loop_
_geom_bond_atom_site_label_1
_geom_bond_atom_site_label_2
_ccdc_geom_bond_type
C8    H5    S    
O3    Zn1   S    
C4    O4    A    
O4    Zn2   S    
C6    O5    A    
C10   H7    S    
C2    C10   A    
O1    Zn1   S    
C9    C20   A    
C7    O7    A    
C17   C18   A    
C1    O1    A    
C14   C18   A    
C11   C13   A    
N1    N2    D    
C4    O3    A    
C5    C6    S    
C8    C20   A    
O7    Zn1   S    
C12   C15   A    
C7    O8    A    
C3    H2    S    
O8    Zn2   S    
C1    O2    A    
C8    C16   A    
C5    H1    S    
C2    C14   A    
C19   H6    S    
C9    C19   A    
C15   C16   A    
C7    C9    S    
C12   C14   A    
O2    Zn2   S    
O6    Zn2   S    
C10   C11   A    
C13   H8    S    
C2    C4    S    
C16   C17   A    
C18   H10   S    
C3    C5    D    
C12   C13   A    
Br1   C20   S    
O5    Zn1   S    
C6    O6    A    
H4    N2    S    
Br2   C17   S    
N1    Zn2   S    
C11   H9    S    
C15   C19   A    
N2    Zn1   S    
H3    N1    S    
C1    C3    S    
