data_mof_unit_44566.cif
_audit_creation_date              2012-12-11T15:07:33-0500
_audit_creation_method            fapswitch 2.2
_symmetry_space_group_name_H-M    P1
_symmetry_Int_Tables_number       1
_space_group_crystal_system       triclinic
_cell_length_a                    21.689536
_cell_length_b                    7.194167
_cell_length_c                    18.614437
_cell_angle_alpha                 89.434128
_cell_angle_beta                  96.153012
_cell_angle_gamma                 90.404081
_cell_volume                      2887.63627743

loop_
_atom_site_label
_atom_site_type_symbol
_atom_type_description
_atom_site_fract_x
_atom_site_fract_y
_atom_site_fract_z
_atom_type_partial_charge
O1    O     O_R   0.449650 0.506500 0.414480 -0.540225
O2    O     O_R   0.550350 0.006500 0.585520 -0.530076
O3    O     O_R   0.432010 0.173150 0.560250 -0.505192
O4    O     O_R   0.567990 0.673150 0.439750 -0.534076
C1    C     C_R   0.415108 0.343494 0.579920 0.722256
C2    C     C_R   0.585410 0.846178 0.421038 0.723720
O5    O     O_R   0.442320 0.176650 0.413480 -0.531184
O6    O     O_R   0.557680 0.676650 0.586520 -0.538835
O7    O     O_R   0.560730 0.008380 0.437700 -0.509012
O8    O     O_R   0.439270 0.508380 0.562300 -0.542695
C3    C     C_R   0.428455 0.345474 0.387541 0.687431
C4    C     C_R   0.571465 0.844764 0.612543 0.682829
O9    O     O_3   0.538840 0.339860 0.508120 -0.350385
O10   O     O_3   0.461160 0.839860 0.491880 -0.361675
V1    V     V_3+5 0.492800 0.064220 0.498490 1.559878
V2    V     V_3+5 0.507200 0.564220 0.501510 1.506581
C5    C     C_R   0.870980 0.979676 0.689681 -0.150815
C6    C     C_R   0.128438 0.461560 0.310689 -0.149804
H1    H     H_    0.959006 0.008162 0.753044 0.104185
H2    H     H_    0.040362 0.488369 0.247332 0.107014
H3    H     H_    0.789202 0.972408 0.573336 0.149775
H4    H     H_    0.210092 0.450525 0.427108 0.140119
H5    H     H_    0.890833 0.007382 0.639615 0.119006
H6    H     H_    0.108332 0.481336 0.360899 0.119663
C7    C     C_R   0.886239 0.943059 0.819697 -0.037537
C8    C     C_R   0.113697 0.440014 0.180354 -0.037977
C9    C     C_R   0.585782 0.816090 0.745089 -0.237028
C10   C     C_R   0.414440 0.328576 0.254915 -0.240108
C11   C     C_R   0.621695 0.812765 0.812097 0.346056
C12   C     C_R   0.378804 0.332171 0.187754 0.348973
C13   C     C_R   0.685668 0.846948 0.815746 -0.164890
C14   C     C_R   0.314453 0.355910 0.184323 -0.158608
C15   C     C_R   0.715406 0.879533 0.752750 0.016536
C16   C     C_R   0.284577 0.381920 0.247372 0.015064
C17   C     C_R   0.677844 0.881681 0.684561 0.048771
C18   C     C_R   0.322053 0.381026 0.315626 0.052553
C19   C     C_R   0.781150 0.910503 0.755244 0.086743
C20   C     C_R   0.218740 0.408214 0.244895 0.087804
C21   C     C_R   0.807134 0.945553 0.689437 0.123240
C22   C     C_R   0.192466 0.433587 0.310857 0.126729
C23   C     C_R   0.769417 0.946581 0.623595 -0.164945
C24   C     C_R   0.230091 0.431604 0.376766 -0.166234
C25   C     C_R   0.705993 0.914276 0.621074 -0.131456
C26   C     C_R   0.293709 0.405625 0.379238 -0.132221
C27   C     C_R   0.822347 0.908014 0.820371 -0.193997
C28   C     C_R   0.177775 0.411418 0.179593 -0.191150
C29   C     C_R   0.909990 0.979720 0.754200 -0.169964
C30   C     C_R   0.089557 0.465446 0.246079 -0.171633
C31   C     C_R   0.612768 0.850225 0.681332 -0.109878
C32   C     C_R   0.387192 0.353541 0.318795 -0.111105
H7    H     H_    0.806495 0.880832 0.872396 0.123124
H8    H     H_    0.193954 0.394096 0.127346 0.110658
H9    H     H_    0.536264 0.790496 0.742535 0.101831
H10   H     H_    0.464073 0.307282 0.257417 0.105333
H11   H     H_    0.710754 0.849611 0.868825 0.137386
H12   H     H_    0.288967 0.350820 0.131511 0.132847
H13   H     H_    0.679023 0.915380 0.568676 0.147264
H14   H     H_    0.320617 0.405029 0.431721 0.125775
C33   C     C_R   0.643929 0.719321 0.324047 -0.244151
C34   C     C_R   0.362800 0.510396 0.672941 -0.228197
C35   C     C_R   0.636881 0.861188 0.373848 -0.142609
C36   C     C_R   0.364850 0.352768 0.628995 -0.151806
C37   C     C_R   0.677545 0.017869 0.375829 0.308511
C38   C     C_R   0.319205 0.210908 0.632977 0.316170
C39   C     C_R   0.722029 0.034333 0.325459 0.024154
C40   C     C_R   0.273866 0.227352 0.682261 0.022603
C41   C     C_R   0.727412 0.891071 0.274976 0.021401
C42   C     C_R   0.273027 0.387813 0.725709 0.019515
C43   C     C_R   0.688567 0.733075 0.274989 0.094100
C44   C     C_R   0.317473 0.529276 0.720402 0.102670
C45   C     C_R   0.761316 0.191165 0.323936 -0.140051
C46   C     C_R   0.228929 0.087578 0.689209 -0.141007
C47   C     C_R   0.804950 0.205155 0.274182 -0.188516
C48   C     C_R   0.184362 0.106662 0.737375 -0.176860
C49   C     C_R   0.810818 0.063301 0.224489 0.095787
C50   C     C_R   0.183082 0.265854 0.779869 0.104085
C51   C     C_R   0.771913 0.905407 0.224419 0.021630
C52   C     C_R   0.227445 0.407513 0.774446 0.020155
C53   C     C_R   0.777209 0.762400 0.173797 0.024195
C54   C     C_R   0.226473 0.568284 0.817706 0.022973
C55   C     C_R   0.737821 0.605794 0.175167 -0.139405
C56   C     C_R   0.271523 0.707816 0.810904 -0.141754
C57   C     C_R   0.694306 0.591511 0.225096 -0.188225
C58   C     C_R   0.316248 0.688372 0.762958 -0.178821
C59   C     C_R   0.855653 0.076705 0.175701 -0.248167
C60   C     C_R   0.137777 0.284662 0.827372 -0.227534
C61   C     C_R   0.862670 0.934913 0.125909 -0.142808
C62   C     C_R   0.135456 0.442904 0.870919 -0.151917
C63   C     C_R   0.821709 0.779074 0.123438 0.315246
C64   C     C_R   0.180866 0.585310 0.866629 0.316172
H15   H     H_    0.613428 0.598959 0.322241 0.156556
H16   H     H_    0.397197 0.619873 0.670779 0.157366
H17   H     H_    0.758655 0.305609 0.360664 0.190434
H18   H     H_    0.227771 0.961355 0.658035 0.191391
H19   H     H_    0.834277 0.327864 0.274649 0.134803
H20   H     H_    0.150714 0.995924 0.741391 0.137473
H21   H     H_    0.886275 0.196806 0.177637 0.154539
H22   H     H_    0.103542 0.174821 0.829814 0.156947
H23   H     H_    0.740417 0.491696 0.138256 0.188961
H24   H     H_    0.272692 0.834051 0.842070 0.192568
H25   H     H_    0.664963 0.468833 0.224600 0.134696
H26   H     H_    0.349995 0.798893 0.759073 0.136458
O11   O     O_R   0.060820 0.290050 0.937800 -0.543890
O12   O     O_R   0.939180 0.790050 0.062200 -0.511766
O13   O     O_R   0.057690 0.616620 0.086540 -0.533132
O14   O     O_R   0.942310 0.116620 0.913460 -0.540862
C65   C     C_R   0.071654 0.448350 0.112517 0.683313
C66   C     C_R   0.928344 0.949000 0.887498 0.685878
O15   O     O_R   0.068010 0.619890 0.939770 -0.506989
O16   O     O_R   0.931990 0.119890 0.060230 -0.536392
O17   O     O_R   0.949640 0.787940 0.914460 -0.529989
O18   O     O_R   0.050360 0.287940 0.085540 -0.540393
C67   C     C_R   0.085180 0.452216 0.919955 0.739302
C68   C     C_R   0.914232 0.949564 0.078938 0.743851
O19   O     O_3   0.961210 0.453080 0.991940 -0.352393
O20   O     O_3   0.038790 0.953080 0.008060 -0.362613
V3    V     V_3+5 0.007200 0.728820 0.001500 1.561744
V4    V     V_3+5 0.992800 0.228820 0.998500 1.507807
Cl1   Cl    Cl    0.675739 0.188643 0.443728 -0.693666
Cl2   Cl    Cl    0.315751 0.018505 0.573752 -0.681936
Cl3   Cl    Cl    0.823023 0.610866 0.054538 -0.690000
Cl4   Cl    Cl    0.183457 0.779734 0.924792 -0.681189
N1    N     N_2   0.592919 0.780919 0.876496 -0.523093
H27   H     H_    0.545295 0.794126 0.870315 0.252567
C69   C     C_3   0.613126 0.615810 0.917226 -0.511813
H28   H     H_    0.588361 0.604817 0.966329 0.196836
H29   H     H_    0.663613 0.622330 0.934928 0.223956
H30   H     H_    0.602524 0.489878 0.883923 0.194525
N2    N     N_2   0.407589 0.304471 0.123389 -0.518110
H31   H     H_    0.451857 0.251214 0.131723 0.253123
C70   C     C_3   0.403094 0.459120 0.072784 -0.517013
H32   H     H_    0.426490 0.423020 0.024599 0.197816
H33   H     H_    0.426088 0.584239 0.098282 0.193337
H34   H     H_    0.353913 0.490821 0.054232 0.215017

loop_
_geom_bond_atom_site_label_1
_geom_bond_atom_site_label_2
_ccdc_geom_bond_type
C40   C42   A    
C37   C39   A    
C50   C60   A    
C9    C11   A    
C58   H26   S    
C65   O18   A    
O1    C3    A    
C70   H34   S    
O2    C4    A    
O16   V4    S    
C2    O7    A    
C4    C31   S    
O15   V3    S    
N1    H27   S    
C21   C23   A    
O5    C3    A    
O13   C65   A    
C5    H5    S    
C48   C50   A    
C6    H6    S    
C2    C35   S    
O11   C67   A    
C50   C52   A    
O12   V3    S    
C52   C54   A    
N1    C69   S    
C27   H7    S    
C28   H8    S    
O20   V3    S    
C34   C36   A    
C5    C21   A    
C62   C67   S    
C35   C37   A    
C6    C22   A    
C61   C68   S    
C36   C38   A    
C10   C32   A    
C49   C59   A    
C40   C46   A    
C18   C32   A    
C26   H14   S    
C39   C41   A    
C41   C51   A    
C17   C31   A    
C69   H30   S    
C13   C15   A    
C17   C25   A    
O16   C68   A    
C16   C18   A    
C8    C30   A    
C46   H18   S    
O14   C66   A    
C34   H16   S    
O6    V2    S    
C20   C22   A    
O14   V4    S    
C47   C49   A    
O13   V3    S    
C24   C26   A    
C55   C57   A    
C51   C53   A    
C42   C52   A    
C33   C35   A    
C53   C63   A    
C59   C61   A    
C48   H20   S    
C46   C48   A    
C53   C55   A    
C10   H10   S    
O5    V1    S    
C55   H23   S    
C70   H33   S    
C39   C45   A    
C15   C19   A    
C41   C43   A    
C38   C40   A    
O4    V2    S    
C43   C57   A    
O18   V4    S    
C37   Cl1   S    
C34   C44   A    
O6    C4    A    
O19   V4    S    
C25   H13   S    
H1    C29   S    
O1    V2    S    
C33   H15   S    
O2    V1    S    
C49   C51   A    
H2    C30   S    
C33   C43   A    
H3    C23   S    
O4    C2    A    
C62   C64   A    
C56   C58   A    
C61   C63   A    
C69   H28   S    
O12   C68   A    
C18   C26   A    
O11   V4    S    
C47   H19   S    
C19   C27   A    
C70   H32   S    
C7    C27   A    
C44   C58   A    
C45   C47   A    
N2    H31   S    
C64   Cl4   S    
C7    C29   A    
C57   H25   S    
C16   C20   A    
C56   H24   S    
C23   C25   A    
C5    C29   A    
O3    C1    A    
C6    C30   A    
C8    C65   S    
C9    H9    S    
C45   H17   S    
O15   C67   A    
C12   N2    S    
C38   Cl2   S    
C66   O17   A    
O17   V3    S    
C10   C12   A    
O7    V1    S    
C1    O8    A    
C19   C21   A    
C3    C32   S    
O8    V2    S    
C12   C14   A    
H4    C24   S    
C63   Cl3   S    
C11   N1    S    
C22   C24   A    
C15   C17   A    
C54   C56   A    
C1    C36   S    
C60   C62   A    
C54   C64   A    
C60   H22   S    
C20   C28   A    
C59   H21   S    
C8    C28   A    
C11   C13   A    
O9    V2    S    
C69   H29   S    
C42   C44   A    
O10   V1    S    
O3    V1    S    
C13   H11   S    
C14   H12   S    
C9    C31   A    
C7    C66   S    
C14   C16   A    
N2    C70   S    
