data_mof_unit_31449.cif
_audit_creation_date              2012-12-11T15:15:37-0500
_audit_creation_method            fapswitch 2.2
_symmetry_space_group_name_H-M    P1
_symmetry_Int_Tables_number       1
_space_group_crystal_system       triclinic
_cell_length_a                    20.67496
_cell_length_b                    22.764233
_cell_length_c                    6.9388
_cell_angle_alpha                 90.000564
_cell_angle_beta                  86.809251
_cell_angle_gamma                 89.999703
_cell_volume                      3260.6808181

loop_
_atom_site_label
_atom_site_type_symbol
_atom_type_description
_atom_site_fract_x
_atom_site_fract_y
_atom_site_fract_z
_atom_type_partial_charge
O1    O     O_R   0.387100 0.552640 0.378490 -0.540927
O2    O     O_R   0.612900 0.052640 0.621510 -0.540934
O3    O     O_R   0.249610 0.559600 0.072250 -0.550209
O4    O     O_R   0.750390 0.059600 0.927750 -0.550212
O5    O     O_R   0.249120 0.447360 0.902040 -0.544783
O6    O     O_R   0.750880 0.947360 0.097960 -0.544775
C1    C     C_R   0.227504 0.573874 0.244587 0.682653
C2    C     C_R   0.772491 0.073880 0.755414 0.682593
O7    O     O_R   0.386610 0.559560 0.048860 -0.540047
O8    O     O_R   0.613390 0.059560 0.951140 -0.540047
O9    O     O_R   0.387100 0.447320 0.878470 -0.538482
O10   O     O_R   0.612900 0.947320 0.121530 -0.538480
C3    C     C_R   0.407766 0.574853 0.214134 0.677097
C4    C     C_R   0.592234 0.074853 0.785869 0.677097
O11   O     O_R   0.249120 0.552680 0.402050 -0.547065
O12   O     O_R   0.750880 0.052680 0.597950 -0.547080
O13   O     O_3   0.318110 0.463180 0.223790 -0.350548
O14   O     O_3   0.681890 0.963180 0.776210 -0.350530
V1    V     V_3+5 0.318110 0.506830 0.948930 1.440223
V2    V     V_3+5 0.681890 0.006830 0.051070 1.440228
O15   O     O_R   0.386610 0.440400 0.548840 -0.537804
O16   O     O_R   0.613390 0.940400 0.451160 -0.537787
C5    C     C_R   0.407808 0.425132 0.714106 0.692699
C6    C     C_R   0.592193 0.925132 0.285891 0.692730
O17   O     O_R   0.249610 0.440440 0.572240 -0.500692
O18   O     O_R   0.750390 0.940440 0.427760 -0.500710
C7    C     C_R   0.227440 0.426133 0.744524 0.743438
C8    C     C_R   0.772558 0.926131 0.255474 0.743452
V3    V     V_3+5 0.318110 0.493170 0.448930 1.495064
V4    V     V_3+5 0.681890 0.993170 0.551070 1.495078
O19   O     O_3   0.318110 0.536820 0.723940 -0.381503
O20   O     O_3   0.681890 0.036820 0.276060 -0.381513
C9    C     C_R   0.174455 0.382422 0.762640 -0.189766
C10   C     C_R   0.825532 0.882410 0.237347 -0.189712
C11   C     C_R   0.155764 0.350046 0.601567 0.596492
C12   C     C_R   0.844162 0.849975 0.398357 0.596496
C13   C     C_R   0.105204 0.309572 0.621258 -0.203665
C14   C     C_R   0.894702 0.809479 0.378657 -0.203680
C15   C     C_R   0.072106 0.300633 0.801263 0.068539
C16   C     C_R   0.927843 0.800580 0.198705 0.068525
C17   C     C_R   0.091643 0.331672 0.962332 -0.130558
C18   C     C_R   0.908366 0.831680 0.037693 -0.130556
C19   C     C_R   0.141975 0.372417 0.943207 -0.209315
C20   C     C_R   0.858053 0.872445 0.056829 -0.209262
C21   C     C_R   0.896189 0.187041 0.888740 -0.123830
C22   C     C_R   0.103774 0.687003 0.111290 -0.123821
C23   C     C_R   0.846476 0.145678 0.903842 -0.178703
C24   C     C_R   0.153514 0.645669 0.096183 -0.178734
C25   C     C_R   0.853789 0.132929 0.556689 -0.168077
C26   C     C_R   0.146143 0.632859 0.443313 -0.168040
C27   C     C_R   0.903671 0.174248 0.541690 -0.146011
C28   C     C_R   0.096236 0.674152 0.458317 -0.146026
C29   C     C_R   0.925998 0.201079 0.707407 0.164977
C30   C     C_R   0.073926 0.701001 0.292610 0.164980
C31   C     C_2   0.018277 0.258115 0.827081 -0.157883
C32   C     C_2   0.981664 0.758054 0.172887 -0.157872
C33   C     C_2   0.979569 0.244083 0.684401 -0.199276
C34   C     C_2   0.020335 0.743987 0.315617 -0.199272
C35   C     C_R   0.824963 0.117901 0.738227 -0.048976
C36   C     C_R   0.175013 0.617876 0.261782 -0.048973
H1    H     H_    0.824679 0.135795 0.045671 0.123166
H2    H     H_    0.175344 0.635818 0.954361 0.123178
H3    H     H_    0.838122 0.112600 0.426100 0.121769
H4    H     H_    0.161793 0.612513 0.573893 0.121778
H5    H     H_    0.987833 0.263988 0.543035 0.122341
H6    H     H_    0.012033 0.763857 0.457025 0.122330
H7    H     H_    0.067289 0.324950 0.102974 0.130335
H8    H     H_    0.932755 0.824992 0.897093 0.130292
H9    H     H_    0.910084 0.208355 0.019345 0.096912
H10   H     H_    0.089888 0.708327 0.980699 0.096919
H11   H     H_    0.155074 0.396408 0.070000 0.204948
H12   H     H_    0.845002 0.896486 0.930089 0.204656
H13   H     H_    0.010244 0.238791 0.969221 0.120635
H14   H     H_    0.989734 0.738765 0.030704 0.120628
H15   H     H_    0.093174 0.284538 0.495654 0.131642
H16   H     H_    0.906687 0.784400 0.504210 0.131701
H17   H     H_    0.925416 0.184798 0.400227 0.098470
H18   H     H_    0.074458 0.684669 0.599773 0.098485
C37   C     C_R   0.575780 0.360974 0.659694 -0.159420
C38   C     C_R   0.424208 0.860988 0.340027 -0.159415
H19   H     H_    0.534456 0.446980 0.640063 0.107627
H20   H     H_    0.465532 0.946993 0.359668 0.107619
H21   H     H_    0.665938 0.278178 0.649028 0.126218
H22   H     H_    0.334043 0.778199 0.350541 0.126212
H23   H     H_    0.624375 0.377161 0.625625 0.113977
H24   H     H_    0.375607 0.877183 0.373961 0.113971
C39   C     C_R   0.461362 0.381902 0.712420 -0.038557
C40   C     C_R   0.538638 0.881903 0.287555 -0.038551
C41   C     C_R   0.475478 0.095441 0.830938 -0.165673
C42   C     C_R   0.524528 0.595433 0.169291 -0.165696
C43   C     C_R   0.422179 0.132781 0.841314 -0.116905
C44   C     C_R   0.577829 0.632768 0.159036 -0.116896
C45   C     C_R   0.429745 0.192964 0.810571 -0.150321
C46   C     C_R   0.570259 0.692955 0.189702 -0.150315
C47   C     C_R   0.491593 0.217753 0.767727 0.075726
C48   C     C_R   0.508406 0.717752 0.232329 0.075719
C49   C     C_R   0.546351 0.178863 0.755609 0.069142
C50   C     C_R   0.453645 0.678866 0.244332 0.069156
C51   C     C_R   0.500879 0.279728 0.736847 0.072037
C52   C     C_R   0.499119 0.779730 0.263127 0.072033
C53   C     C_R   0.564690 0.300869 0.693088 0.138870
C54   C     C_R   0.435301 0.800879 0.306712 0.138871
C55   C     C_R   0.617253 0.262040 0.682100 -0.198164
C56   C     C_R   0.382733 0.762055 0.317600 -0.198167
C57   C     C_R   0.608378 0.202163 0.713110 -0.194452
C58   C     C_R   0.391612 0.702174 0.286657 -0.194444
C59   C     C_R   0.449448 0.321712 0.746958 -0.206898
C60   C     C_R   0.550554 0.821709 0.253094 -0.206863
C61   C     C_R   0.524636 0.400927 0.668256 -0.170923
C62   C     C_R   0.475356 0.900937 0.331550 -0.170941
C63   C     C_R   0.537744 0.117398 0.787943 -0.081882
C64   C     C_R   0.462255 0.617398 0.212085 -0.081867
H25   H     H_    0.399763 0.309166 0.779144 0.101906
H26   H     H_    0.600243 0.809155 0.221004 0.101928
H27   H     H_    0.468109 0.048915 0.857064 0.107016
H28   H     H_    0.531901 0.548903 0.143247 0.107014
H29   H     H_    0.386136 0.218899 0.821570 0.115753
H30   H     H_    0.613867 0.718886 0.178837 0.115781
H31   H     H_    0.374325 0.114890 0.874424 0.122964
H32   H     H_    0.625686 0.614871 0.126098 0.122986
H33   H     H_    0.650747 0.174124 0.703136 0.109007
H34   H     H_    0.349240 0.674140 0.296548 0.108981
F1    F     F_    0.186815 0.356434 0.425256 -0.700346
F2    F     F_    0.813063 0.856320 0.574603 -0.700224

loop_
_geom_bond_atom_site_label_1
_geom_bond_atom_site_label_2
_ccdc_geom_bond_type
V4    O20   S    
C41   H27   S    
C25   H3    S    
C26   H4    S    
C42   C64   A    
O4    C2    A    
V1    O19   S    
C56   C58   A    
C15   C17   A    
C14   H16   S    
C7    C9    S    
C43   H31   S    
O9    V1    S    
C45   H29   S    
O10   V2    S    
H20   C62   S    
C11   C13   A    
O7    V1    S    
C3    C64   S    
O3    C1    A    
C2    C35   S    
C30   C34   S    
C49   C63   A    
C47   C51   A    
O12   V4    S    
O13   V3    S    
C60   H26   S    
O7    C3    A    
C59   H25   S    
C38   H24   S    
C9    C11   A    
O5    C7    A    
C42   C44   A    
C34   H6    S    
O6    C8    A    
O8    V2    S    
C16   C32   S    
C48   C50   A    
C26   C28   A    
O3    V1    S    
O14   V4    S    
C42   H28   S    
C41   C43   A    
C10   C12   A    
C24   C36   A    
C40   C62   A    
C1    O11   A    
C13   H15   S    
C8    C10   S    
C2    O12   A    
C5    C39   S    
C18   H8    S    
C17   C19   A    
C22   C30   A    
C18   C20   A    
C28   H18   S    
O1    V3    S    
C28   C30   A    
O11   V3    S    
C21   C23   A    
O17   V3    S    
C4    C63   S    
C13   C15   A    
C22   C24   A    
C52   C60   A    
C23   C35   A    
C50   C64   A    
C37   C61   A    
C21   H9    S    
C9    C19   A    
C57   H33   S    
C32   H14   S    
C17   H7    S    
O8    C4    A    
C29   C33   S    
C25   C27   A    
O15   V3    S    
C38   C54   A    
C27   C29   A    
C31   H13   S    
C54   C56   A    
C27   H17   S    
C43   C45   A    
C24   H2    S    
C58   H34   S    
C44   C46   A    
C10   C20   A    
C55   C57   A    
C46   C48   A    
C6    C40   S    
H21   C55   S    
O5    V1    S    
C51   C53   A    
H19   C61   S    
O18   V4    S    
C31   C33   D    
O17   C7    A    
H22   C56   S    
O16   C6    A    
O1    C3    A    
C12   C14   A    
C1    C36   S    
C37   H23   S    
O6    V2    S    
C52   C54   A    
V2    O20   S    
C41   C63   A    
C19   H11   S    
O16   V4    S    
C12   F2    S    
C33   H5    S    
C16   C18   A    
C25   C35   A    
C23   H1    S    
C11   F1    S    
C47   C49   A    
C39   C61   A    
C15   C31   S    
C51   C59   A    
O10   C6    A    
O18   C8    A    
C50   C58   A    
O2    V4    S    
C26   C36   A    
O15   C5    A    
C44   H32   S    
C49   C57   A    
V3    O19   S    
C14   C16   A    
C46   H30   S    
C45   C47   A    
C40   C60   A    
C48   C52   A    
O9    C5    A    
O13   V1    S    
C32   C34   D    
C20   H12   S    
O14   V2    S    
O2    C4    A    
C22   H10   S    
C21   C29   A    
O4    V2    S    
C39   C59   A    
C53   C55   A    
C38   C62   A    
C37   C53   A    
