data_mof_unit_49717.cif
_audit_creation_date              2012-12-10T18:13:54-0500
_audit_creation_method            fapswitch 2.2
_symmetry_space_group_name_H-M    P1
_symmetry_Int_Tables_number       1
_space_group_crystal_system       triclinic
_cell_length_a                    10.723636
_cell_length_b                    9.484219
_cell_length_c                    23.450462
_cell_angle_alpha                 89.770516
_cell_angle_beta                  89.489408
_cell_angle_gamma                 89.936052
_cell_volume                      2384.92133632

loop_
_atom_site_label
_atom_site_type_symbol
_atom_type_description
_atom_site_fract_x
_atom_site_fract_y
_atom_site_fract_z
_atom_type_partial_charge
C1    C     C_R   0.259834 0.499897 0.499718 0.767092
C2    C     C_R   0.378996 0.722353 0.969868 -0.191218
C3    C     C_R   0.378498 0.721028 0.029274 -0.173169
C4    C     C_R   0.438924 0.612635 0.059240 0.010890
C5    C     C_R   0.500540 0.504786 0.028872 -0.019241
C6    C     C_R   0.562646 0.397084 0.058675 -0.076270
C7    C     C_R   0.622765 0.289242 0.028270 -0.256655
C8    C     C_R   0.620054 0.285758 0.968562 0.447740
C9    C     C_R   0.438936 0.609047 0.119054 0.527402
C10   C     C_R   0.563332 0.399969 0.118501 0.559378
C11   C     C_R   0.547545 0.618930 0.238942 -0.096874
C12   C     C_R   0.499939 0.500283 0.391094 0.793389
C13   C     C_R   0.546152 0.618570 0.298380 -0.231136
C14   C     C_R   0.500249 0.501144 0.328527 -0.038531
C15   C     C_R   0.454620 0.384723 0.298429 -0.233030
C16   C     C_R   0.453784 0.386380 0.238989 -0.098079
C17   C     C_R   0.500807 0.503171 0.208851 0.340587
C18   C     C_R   0.392597 0.457021 0.761233 -0.270355
C19   C     C_R   0.391247 0.448986 0.701008 0.394575
C20   C     C_R   0.495999 0.500241 0.670656 -0.085673
C21   C     C_R   0.599087 0.555078 0.699288 -0.330026
C22   C     C_R   0.600164 0.558168 0.758515 -0.118275
C23   C     C_R   0.739848 0.499695 0.499793 0.739441
C24   C     C_R   0.497153 0.509066 0.789471 0.326485
C25   C     C_3   0.070263 0.575252 0.553113 -0.386527
C26   C     C_3   0.071371 0.345686 0.498650 -0.374793
C27   C     C_3   0.926517 0.572237 0.553917 -0.391004
C28   C     C_3   0.928654 0.345286 0.498768 -0.382019
C29   C     C_3   0.072716 0.576870 0.445728 -0.384498
C30   C     C_3   0.121672 0.499334 0.499369 0.169131
C31   C     C_3   0.877843 0.498783 0.499611 0.176618
C32   C     C_3   0.928641 0.577732 0.446164 -0.372017
C33   C     C_3   0.628491 0.081842 0.503844 -0.251299
C34   C     C_3   0.626943 0.916003 0.509405 -0.239811
C35   C     C_3   0.421291 0.082047 0.548723 0.446283
C36   C     C_3   0.410598 0.916410 0.544982 0.448406
C37   C     C_3   0.447962 0.083799 0.447407 -0.330172
C38   C     C_3   0.457258 0.916618 0.445687 -0.305459
C39   C     C_R   0.498208 0.499840 0.608625 0.869285
C40   C     C_R   0.559363 0.401270 0.878031 0.561090
C41   C     C_R   0.439961 0.614239 0.879441 0.524713
C42   C     C_R   0.439226 0.614816 0.939153 0.005635
C43   C     C_R   0.500367 0.505156 0.968654 -0.076726
C44   C     C_R   0.561062 0.396223 0.938121 -0.121612
Cu1   Cu    Cu3+1 0.499860 0.642410 0.500030 0.924287
Cu2   Cu    Cu3+1 0.499860 0.357590 0.500030 0.929180
H1    H     H_    0.331916 0.807858 0.948113 0.181672
H2    H     H_    0.679125 0.594416 0.675613 0.153058
H3    H     H_    0.680823 0.598897 0.780460 0.147301
H4    H     H_    0.101467 0.687039 0.552984 0.146250
H5    H     H_    0.106241 0.289723 0.459999 0.157544
H6    H     H_    0.106706 0.524437 0.592404 0.186340
H7    H     H_    0.105202 0.286298 0.536410 0.172476
H8    H     H_    0.892904 0.515070 0.592651 0.146488
H9    H     H_    0.894229 0.285986 0.536848 0.154930
H10   H     H_    0.890207 0.682079 0.556443 0.160835
H11   H     H_    0.895195 0.289198 0.460190 0.163759
H12   H     H_    0.107547 0.687381 0.444576 0.162995
H13   H     H_    0.107686 0.523683 0.406487 0.155266
H14   H     H_    0.894785 0.688724 0.445942 0.159861
H15   H     H_    0.893828 0.526584 0.406754 0.154448
H16   H     H_    0.685890 0.129118 0.537280 0.124185
H17   H     H_    0.666485 0.878506 0.550170 0.148515
H18   H     H_    0.330921 0.805442 0.051596 0.185929
H19   H     H_    0.680976 0.110449 0.464235 0.156610
H20   H     H_    0.691236 0.873447 0.476195 0.155219
H21   H     H_    0.349176 0.117211 0.442277 0.137974
H22   H     H_    0.365290 0.871301 0.434100 0.157078
H23   H     H_    0.498963 0.126053 0.409633 0.190805
H24   H     H_    0.522597 0.885779 0.410753 0.176399
H25   H     H_    0.324802 0.120086 0.540592 0.038321
H26   H     H_    0.314793 0.892736 0.528671 -0.028227
H27   H     H_    0.671990 0.206251 0.050619 0.198393
H28   H     H_    0.585137 0.709206 0.216215 0.152569
H29   H     H_    0.582619 0.709146 0.320737 0.144678
H30   H     H_    0.417918 0.293442 0.320829 0.144737
H31   H     H_    0.416409 0.296860 0.216294 0.151905
H32   H     H_    0.314047 0.423081 0.786992 0.129453
N1    N     N_R   0.499474 0.508809 0.850445 -0.460542
N2    N     N_R   0.501108 0.504165 0.147507 -0.466310
N3    N     N_3   0.500250 0.143650 0.501250 -0.169525
N4    N     N_3   0.500250 0.856350 0.501250 -0.153333
O1    O     O_R   0.317570 0.620260 0.500030 -0.604031
O2    O     O_R   0.317570 0.379740 0.500030 -0.586800
O3    O     O_R   0.499840 0.620290 0.417900 -0.590837
O4    O     O_R   0.499840 0.379710 0.417900 -0.591032
O5    O     O_R   0.682190 0.620260 0.500010 -0.600524
O6    O     O_R   0.682190 0.379740 0.500010 -0.602895
O7    O     O_R   0.499920 0.620230 0.582140 -0.534586
O8    O     O_R   0.499920 0.379770 0.582140 -0.528147
O9    O     O_2   0.616256 0.299826 0.847111 -0.501873
O10   O     O_2   0.382095 0.718278 0.850446 -0.555686
O11   O     O_2   0.376131 0.708749 0.148542 -0.547043
O12   O     O_2   0.626596 0.300021 0.147461 -0.545129
O13   O     O_3   0.289563 0.400357 0.669824 -0.590335
C45   C     C_3   0.216697 0.300108 0.699985 0.113423
H33   H     H_    0.155751 0.353997 0.731727 0.140461
H34   H     H_    0.276071 0.219763 0.721473 0.152663
C46   C     C_3   0.132522 0.223020 0.658671 -0.812632
H35   H     H_    0.189204 0.173007 0.624531 0.258522
H36   H     H_    0.079538 0.139646 0.681743 0.198177
H37   H     H_    0.065185 0.297832 0.639396 0.229020
O14   O     O_3   0.443180 0.133955 0.605351 -0.541345
C47   C     C_3   0.561500 0.106367 0.629964 0.157244
H38   H     H_    0.627578 0.192241 0.619273 0.138247
H39   H     H_    0.601658 0.004257 0.617966 0.143476
C48   C     C_3   0.551896 0.105529 0.694755 -0.761683
H40   H     H_    0.503876 0.201078 0.710357 0.253632
H41   H     H_    0.501549 0.011114 0.710057 0.251173
H42   H     H_    0.646909 0.102891 0.713226 0.203291
O15   O     O_3   0.425305 0.857345 0.600276 -0.556780
C49   C     C_3   0.307778 0.824824 0.625654 0.090243
H43   H     H_    0.276626 0.720737 0.609833 0.161756
H44   H     H_    0.234874 0.905190 0.615946 0.095844
C50   C     C_3   0.317942 0.815700 0.690275 -0.731267
H45   H     H_    0.306546 0.922035 0.709194 0.228179
H46   H     H_    0.242443 0.747483 0.707683 0.210530
H47   H     H_    0.409184 0.770955 0.702894 0.269566
O16   O     O_3   0.682473 0.178737 0.940288 -0.535463
C51   C     C_3   0.609026 0.055231 0.942671 0.097868
H48   H     H_    0.513602 0.074949 0.925838 0.148394
H49   H     H_    0.601700 0.014548 0.987177 0.130037
C52   C     C_3   0.670284 0.942135 0.906085 -0.701684
H50   H     H_    0.765628 0.919438 0.921803 0.240375
H51   H     H_    0.614476 0.843831 0.908147 0.199333
H52   H     H_    0.676198 0.978192 0.861018 0.263123

loop_
_geom_bond_atom_site_label_1
_geom_bond_atom_site_label_2
_ccdc_geom_bond_type
C38   H24   S    
C37   H23   S    
C41   C42   A    
O13   C45   S    
C34   H20   S    
C49   H44   S    
C35   N3    S    
C27   H8    S    
C33   H19   S    
C52   H50   S    
C7    H27   S    
C28   H11   S    
C1    O2    A    
C29   C30   S    
C12   O3    A    
C18   C24   A    
C1    C30   S    
Cu1   O5    S    
C32   H15   S    
C18   C19   A    
C29   C32   S    
C35   O14   S    
C5    C6    A    
C52   H51   S    
Cu1   N4    S    
C10   O12   S    
C50   H45   S    
C45   C46   S    
C16   H31   S    
C25   H4    S    
C49   H43   S    
C19   C20   A    
C36   N4    S    
C16   C17   A    
C50   H46   S    
C45   H34   S    
C48   H40   S    
Cu1   O7    S    
C39   O8    A    
C51   C52   S    
C21   H2    S    
C15   H30   S    
C5    C43   A    
C35   H25   S    
C23   O5    A    
C21   C22   A    
C38   N4    S    
C48   H41   S    
C37   N3    S    
Cu1   O1    S    
C47   H39   S    
C47   H38   S    
C28   H9    S    
C51   H49   S    
Cu2   O6    S    
C15   C16   A    
C27   C31   S    
C13   H29   S    
C7    C8    A    
C20   C39   S    
C10   N2    A    
C27   H10   S    
C33   H16   S    
C52   H52   S    
Cu1   Cu2   S    
C17   N2    S    
C9    N2    A    
C23   C31   S    
Cu1   O3    S    
C43   C44   A    
C41   N1    A    
C37   C38   S    
Cu2   N3    S    
C24   N1    S    
C31   C32   S    
C18   H32   S    
C50   H47   S    
C45   H33   S    
C41   O10   S    
C36   O15   S    
C33   C34   S    
C40   N1    A    
C29   H12   S    
C22   H3    S    
Cu2   O2    S    
C46   H36   S    
C12   C14   S    
C26   C30   S    
C23   O6    A    
C48   H42   S    
C22   C24   A    
C1    O1    A    
C42   C43   A    
C32   H14   S    
C3    C4    A    
C26   H7    S    
C9    O11   S    
C19   O13   S    
C51   H48   S    
C25   C30   S    
C11   C17   A    
O15   C49   S    
C28   C31   S    
C8    C44   A    
C38   H22   S    
C4    C5    A    
C11   H28   S    
C6    C10   A    
O16   C51   S    
C6    C7    A    
Cu2   O8    S    
C2    H1    S    
C25   C27   S    
C26   C28   S    
C46   H35   S    
C12   O4    A    
C2    C3    A    
C25   H6    S    
C26   H5    S    
C11   C13   A    
C2    C42   A    
C37   H21   S    
C34   H17   S    
C47   C48   S    
C40   O9    S    
C3    H18   S    
C40   C44   A    
C46   H37   S    
C20   C21   A    
O14   C47   S    
C29   H13   S    
C14   C15   A    
C35   C36   S    
C34   N4    S    
C4    C9    A    
C13   C14   A    
C33   N3    S    
C39   O7    A    
C49   C50   S    
C36   H26   S    
C8    O16   S    
Cu2   O4    S    
