data_mof_unit_64353.cif
_audit_creation_date              2012-12-10T17:51:52-0500
_audit_creation_method            fapswitch 2.2
_symmetry_space_group_name_H-M    P1
_symmetry_Int_Tables_number       1
_space_group_crystal_system       triclinic
_cell_length_a                    18.59063
_cell_length_b                    18.69858
_cell_length_c                    18.822163
_cell_angle_alpha                 109.425185
_cell_angle_beta                  109.453625
_cell_angle_gamma                 109.203942
_cell_volume                      5057.19300214

loop_
_atom_site_label
_atom_site_type_symbol
_atom_type_description
_atom_site_fract_x
_atom_site_fract_y
_atom_site_fract_z
_atom_type_partial_charge
C1    C     C_R   0.620376 0.120263 0.000155 0.861703
C2    C     C_R   0.498696 0.759049 0.679800 -0.202255
C3    C     C_R   0.497797 0.822226 0.743007 -0.180644
C4    C     C_R   0.497385 0.117589 0.119305 0.930671
C5    C     C_R   0.501021 0.815112 0.815416 -0.010892
C6    C     C_R   0.321582 0.821320 0.078786 -0.184436
C7    C     C_R   0.257084 0.757906 0.078765 -0.185696
C8    C     C_R   0.186345 0.686198 0.999692 -0.010408
C9    C     C_R   0.178741 0.677917 0.920610 -0.186686
C10   C     C_R   0.241880 0.742707 0.920619 -0.185728
C11   C     C_R   0.313312 0.813715 0.999720 -0.005931
C12   C     C_R   0.822300 0.242132 0.999768 -0.185504
C13   C     C_R   0.620075 0.502805 0.622482 0.935454
C14   C     C_R   0.502503 0.383807 0.385497 0.923676
C15   C     C_R   0.379614 0.503499 0.383266 0.859319
C16   C     C_R   0.379631 0.879763 0.999871 0.858061
C17   C     C_R   0.500058 0.622596 0.622683 0.890226
C18   C     C_R   0.879356 0.500997 0.880340 0.895995
C19   C     C_R   0.879711 0.379812 0.000113 0.863513
C20   C     C_R   0.119902 0.498750 0.119281 0.860720
C21   C     C_R   0.120207 0.620204 0.999803 0.862468
C22   C     C_R   0.731572 0.572617 0.773701 0.465651
C23   C     C_R   0.813871 0.313900 0.000589 -0.010225
C24   C     C_R   0.794261 0.570426 0.837523 -0.295431
C25   C     C_R   0.813102 0.502209 0.814562 -0.087802
C26   C     C_R   0.768057 0.434807 0.728452 -0.171039
C27   C     C_R   0.703811 0.435157 0.665476 -0.277000
C28   C     C_R   0.500297 0.880581 0.880729 0.861676
C29   C     C_R   0.686024 0.503536 0.688496 -0.089605
C30   C     C_R   0.323348 0.502187 0.245421 -0.181947
C31   C     C_R   0.258302 0.498734 0.179162 -0.188449
C32   C     C_R   0.184999 0.497362 0.185055 -0.010008
C33   C     C_R   0.175046 0.497267 0.255422 -0.182728
C34   C     C_R   0.742332 0.322473 0.001655 -0.183181
C35   C     C_R   0.238732 0.497984 0.320287 -0.186144
C36   C     C_R   0.313090 0.501512 0.315525 -0.008417
C37   C     C_2   0.494017 0.242935 0.320711 -0.158344
C38   C     C_2   0.511013 0.320083 0.325289 -0.333515
C39   C     C_2   0.505260 0.181346 0.259139 -0.155892
C40   C     C_2   0.488510 0.177588 0.182776 -0.334350
C41   C     C_R   0.759080 0.178826 0.001165 -0.185476
C42   C     C_3   0.778491 0.718332 0.825582 0.087271
C43   C     C_3   0.745949 0.783626 0.830219 -0.791958
C44   C     C_R   0.677742 0.257815 0.000316 -0.183280
C45   C     C_R   0.686747 0.186624 0.000656 -0.008303
C46   C     C_R   0.504389 0.745137 0.824986 -0.200234
C47   C     C_R   0.502659 0.680592 0.760478 -0.157078
C48   C     C_R   0.500179 0.688193 0.688498 -0.018916
H1    H     H_    0.475525 0.226506 0.364519 0.163641
H2    H     H_    0.781600 0.381418 0.710016 0.166918
H3    H     H_    0.539229 0.340508 0.288641 0.157034
H4    H     H_    0.668219 0.382574 0.598878 0.149005
H5    H     H_    0.380836 0.504225 0.241637 0.143203
H6    H     H_    0.265941 0.499270 0.124688 0.143159
H7    H     H_    0.117899 0.495943 0.259576 0.144091
H8    H     H_    0.231023 0.497517 0.374752 0.144104
H9    H     H_    0.523731 0.136952 0.275006 0.162306
H10   H     H_    0.460326 0.214781 0.162847 0.156810
H11   H     H_    0.765575 0.123284 0.001067 0.143324
H12   H     H_    0.504666 0.625784 0.767126 0.162113
H13   H     H_    0.878146 0.235990 0.999337 0.143966
H14   H     H_    0.735926 0.378109 0.001950 0.144675
H15   H     H_    0.621671 0.263741 0.000291 0.142669
H16   H     H_    0.506701 0.739876 0.881243 0.148735
H17   H     H_    0.806828 0.715382 0.781608 0.142070
H18   H     H_    0.830650 0.742423 0.892003 0.140129
H19   H     H_    0.716112 0.787504 0.872656 0.261145
H20   H     H_    0.801649 0.849160 0.857186 0.199792
H21   H     H_    0.696141 0.763336 0.764291 0.264623
H22   H     H_    0.496779 0.764468 0.623707 0.145136
H23   H     H_    0.495766 0.876957 0.736197 0.145791
H24   H     H_    0.376969 0.876713 0.139985 0.140352
H25   H     H_    0.262865 0.763885 0.139958 0.143924
H26   H     H_    0.123508 0.622364 0.859428 0.143858
H27   H     H_    0.236000 0.736917 0.859455 0.144107
H28   H     H_    0.827621 0.621350 0.904486 0.163503
O1    O     O_R   0.539900 0.091920 0.948590 -0.624247
O2    O     O_R   0.908310 0.551980 0.960300 -0.626949
O3    O     O_R   0.908280 0.357000 0.948510 -0.622005
O4    O     O_R   0.643340 0.091290 0.051390 -0.620165
O5    O     O_R   0.908310 0.459790 0.051330 -0.623399
O6    O     O_R   0.091510 0.448020 0.039520 -0.622512
O7    O     O_R   0.091540 0.550800 0.142340 -0.622458
O8    O     O_R   0.091520 0.540220 0.948490 -0.623340
O9    O     O_R   0.091540 0.643000 0.051310 -0.622880
O10   O     O_R   0.448270 0.091350 0.039630 -0.623381
O11   O     O_R   0.551710 0.090720 0.142430 -0.615975
O12   O     O_R   0.643360 0.554400 0.594170 -0.623745
O13   O     O_R   0.356660 0.908710 0.948610 -0.621385
O14   O     O_R   0.460100 0.908080 0.051410 -0.626959
O15   O     O_R   0.448290 0.909280 0.857570 -0.623373
O16   O     O_R   0.551730 0.908650 0.960370 -0.623919
O17   O     O_R   0.539910 0.450960 0.594180 -0.622955
O18   O     O_3   0.707555 0.636213 0.794418 -0.626806
O19   O     O_R   0.448310 0.360490 0.412110 -0.616809
O20   O     O_R   0.551750 0.463920 0.412090 -0.627203
O21   O     O_R   0.356690 0.452080 0.412090 -0.621303
O22   O     O_R   0.460130 0.555510 0.412070 -0.626167
O23   O     O_R   0.448290 0.542560 0.594160 -0.622869
O24   O     O_R   0.551730 0.645990 0.594150 -0.627626
O25   O     O_R   0.908290 0.449200 0.857490 -0.629903
Zn1   Zn    Zn3+2 0.430930 0.000420 0.931360 0.953393
Zn2   Zn    Zn3+2 0.569070 0.999580 0.068640 0.951793
Zn3   Zn    Zn3+2 0.430950 0.434180 0.503140 0.961629
Zn4   Zn    Zn3+2 0.569090 0.572300 0.503120 0.951096
Zn5   Zn    Zn3+2 0.999890 0.431370 0.931260 0.950344
Zn6   Zn    Zn3+2 0.999930 0.568630 0.068560 0.950989

loop_
_geom_bond_atom_site_label_1
_geom_bond_atom_site_label_2
_ccdc_geom_bond_type
C33   H7    S    
O20   Zn4   S    
O5    Zn6   S    
C16   O14   A    
O12   Zn4   S    
C22   C29   A    
C20   O6    A    
O13   Zn1   S    
C27   C29   A    
C1    O1    A    
C15   C36   S    
C19   C23   S    
C35   C36   A    
C17   C48   S    
C7    C8    A    
C7    H25   S    
C4    O11   A    
O19   Zn3   S    
C6    H24   S    
C12   C23   A    
O24   Zn4   S    
C12   C41   A    
O22   Zn4   S    
C13   C29   S    
C26   H2    S    
C30   C31   A    
C4    O10   A    
C39   H9    S    
C34   H14   S    
C11   C16   S    
O16   Zn2   S    
C47   H12   S    
C4    C40   S    
C8    C9    A    
C42   H17   S    
O8    Zn5   S    
C9    C10   A    
O23   Zn3   S    
C16   O13   A    
C43   H21   S    
C22   O18   S    
O1    Zn1   S    
C18   C25   S    
C15   O21   A    
O17   Zn3   S    
C14   O20   A    
C44   H15   S    
C30   H5    S    
C21   O9    A    
C40   H10   S    
O4    Zn2   S    
C34   C44   A    
C24   C25   A    
C41   H11   S    
C19   O5    A    
C39   C40   D    
C24   H28   S    
C38   H3    S    
C2    C48   A    
C25   C26   A    
O3    Zn5   S    
C46   H16   S    
O2    Zn6   S    
C18   O25   A    
C3    H23   S    
C37   C38   D    
C14   C38   S    
C5    C28   S    
C37   H1    S    
C10   H27   S    
C47   C48   A    
C21   O8    A    
C18   O2    A    
C23   C34   A    
C8    C21   S    
C26   C27   A    
C28   O16   A    
C19   O3    A    
C17   O23   A    
O11   Zn2   S    
C22   C24   A    
C9    H26   S    
O15   Zn1   S    
O10   Zn1   S    
C14   O19   A    
C6    C11   A    
C27   H4    S    
C20   C32   S    
O25   Zn5   S    
C46   C47   A    
C35   H8    S    
C42   O18   S    
C31   C32   A    
C44   C45   A    
C3    C5    A    
C6    C7    A    
C5    C46   A    
C43   H20   S    
C30   C36   A    
C32   C33   A    
C2    C3    A    
C37   C39   S    
C2    H22   S    
C12   H13   S    
C1    C45   S    
C13   O12   A    
C33   C35   A    
O7    Zn6   S    
C28   O15   A    
O6    Zn5   S    
C31   H6    S    
C17   O24   A    
O14   Zn2   S    
O21   Zn3   S    
C10   C11   A    
C43   H19   S    
C42   C43   S    
C20   O7    A    
C13   O17   A    
C42   H18   S    
C1    O4    A    
C41   C45   A    
C15   O22   A    
O9    Zn6   S    
