data_mof_unit_20784.cif
_audit_creation_date              2012-12-10T17:29:13-0500
_audit_creation_method            fapswitch 2.2
_symmetry_space_group_name_H-M    P1
_symmetry_Int_Tables_number       1
_space_group_crystal_system       triclinic
_cell_length_a                    18.674703
_cell_length_b                    18.554343
_cell_length_c                    51.161924
_cell_angle_alpha                 90.346834
_cell_angle_beta                  89.849851
_cell_angle_gamma                 90.236125
_cell_volume                      17726.9101887

loop_
_atom_site_label
_atom_site_type_symbol
_atom_type_description
_atom_site_fract_x
_atom_site_fract_y
_atom_site_fract_z
_atom_type_partial_charge
C1    C     C_R   0.000093 0.499809 0.180254 0.734747
C2    C     C_R   0.999921 0.500110 0.819740 0.733810
C3    C     C_R   0.500071 0.999772 0.180213 0.742332
C4    C     C_R   0.499870 0.000216 0.819797 0.743973
C5    C     C_R   0.500091 0.999805 0.680254 0.734262
C6    C     C_R   0.499921 0.000111 0.319740 0.733611
C7    C     C_R   0.000068 0.499775 0.680213 0.741709
C8    C     C_R   0.999869 0.500217 0.319798 0.743940
C9    C     C_R   0.631844 0.994653 0.013664 -0.052102
C10   C     C_R   0.369511 0.994273 0.986400 -0.052005
C11   C     C_R   0.002416 0.632612 0.014152 -0.052273
C12   C     C_R   0.001816 0.367889 0.985771 -0.052643
C13   C     C_R   0.369537 0.002748 0.014043 -0.052318
C14   C     C_R   0.631931 0.003618 0.986079 -0.052173
C15   C     C_R   0.993132 0.367893 0.013410 -0.051755
C16   C     C_R   0.993316 0.632448 0.986544 -0.051796
C17   C     C_R   0.131823 0.494690 0.513668 -0.052127
C18   C     C_R   0.869493 0.494305 0.486399 -0.051993
C19   C     C_R   0.502385 0.132602 0.514154 -0.052301
C20   C     C_R   0.501777 0.867883 0.485769 -0.052633
C21   C     C_R   0.869516 0.502784 0.514042 -0.052323
C22   C     C_R   0.131914 0.503649 0.486081 -0.052193
C23   C     C_R   0.493078 0.867884 0.513408 -0.051773
C24   C     C_R   0.493293 0.132443 0.486546 -0.051831
C25   C     C_R   0.943353 0.530329 0.389807 -0.066650
C26   C     C_R   0.058127 0.528370 0.610452 -0.051463
C27   C     C_R   0.469350 0.941604 0.389298 -0.064256
C28   C     C_R   0.470011 0.058390 0.610749 -0.045655
C29   C     C_R   0.058271 0.470551 0.389356 -0.065006
C30   C     C_R   0.942831 0.468309 0.610466 -0.053349
C31   C     C_R   0.527205 0.058537 0.389720 -0.069297
C32   C     C_R   0.528965 0.942501 0.610191 -0.047259
C33   C     C_R   0.443361 0.030316 0.889808 -0.066594
C34   C     C_R   0.558166 0.028301 0.110452 -0.051846
C35   C     C_R   0.969346 0.441607 0.889299 -0.064238
C36   C     C_R   0.970050 0.558402 0.110746 -0.046371
C37   C     C_R   0.558279 0.970538 0.889354 -0.064903
C38   C     C_R   0.442854 0.968271 0.110465 -0.053741
C39   C     C_R   0.027224 0.558529 0.889719 -0.069205
C40   C     C_R   0.029054 0.442538 0.110192 -0.047180
C41   C     C_R   0.940814 0.528368 0.362461 -0.052456
C42   C     C_R   0.060268 0.526652 0.637783 -0.050628
C43   C     C_R   0.472637 0.939242 0.361958 -0.054562
C44   C     C_R   0.472951 0.060582 0.638089 -0.041906
C45   C     C_R   0.060324 0.473154 0.362023 -0.050229
C46   C     C_R   0.940468 0.470985 0.637808 -0.050142
C47   C     C_R   0.525827 0.060700 0.362375 -0.051159
C48   C     C_R   0.527351 0.940087 0.637537 -0.042968
C49   C     C_R   0.440819 0.028360 0.862462 -0.052597
C50   C     C_R   0.560300 0.026590 0.137783 -0.051027
C51   C     C_R   0.972625 0.439247 0.861958 -0.054468
C52   C     C_R   0.972961 0.560586 0.138087 -0.042781
C53   C     C_R   0.560329 0.973144 0.862021 -0.050008
C54   C     C_R   0.440483 0.970963 0.137806 -0.050383
C55   C     C_R   0.025845 0.560692 0.862375 -0.051160
C56   C     C_R   0.027412 0.440114 0.137538 -0.042923
C57   C     C_R   0.000361 0.500709 0.348405 -0.172417
C58   C     C_R   0.000267 0.499147 0.651622 -0.163729
C59   C     C_R   0.499656 0.999955 0.348344 -0.172150
C60   C     C_R   0.500246 0.000173 0.651646 -0.149028
C61   C     C_R   0.500366 0.000705 0.848405 -0.172434
C62   C     C_R   0.500280 0.999127 0.151621 -0.164114
C63   C     C_R   0.999657 0.499953 0.848344 -0.172140
C64   C     C_R   0.000260 0.500181 0.151646 -0.150601
C65   C     C_R   0.000781 0.500095 0.403484 0.189905
C66   C     C_R   0.000599 0.498090 0.596570 0.191930
C67   C     C_R   0.497813 0.000163 0.403430 0.188984
C68   C     C_R   0.498985 0.000349 0.596550 0.193729
C69   C     C_R   0.500790 0.000080 0.903483 0.189909
C70   C     C_R   0.500630 0.998038 0.096569 0.191813
C71   C     C_R   0.997823 0.500160 0.903430 0.189011
C72   C     C_R   0.999055 0.500373 0.096549 0.193472
C73   C     C_R   0.860181 0.640730 0.250265 0.831248
C74   C     C_R   0.139156 0.358493 0.750633 0.836509
C75   C     C_R   0.359528 0.859773 0.249763 0.825508
C76   C     C_R   0.638508 0.142076 0.749467 0.838354
C77   C     C_R   0.140316 0.359812 0.249889 0.822883
C78   C     C_R   0.857763 0.638393 0.749296 0.838777
C79   C     C_R   0.640505 0.139761 0.249430 0.822971
C80   C     C_R   0.361610 0.857780 0.749243 0.833428
C81   C     C_R   0.859541 0.359756 0.749764 0.824777
C82   C     C_R   0.138527 0.642060 0.249480 0.838424
C83   C     C_R   0.360201 0.140750 0.750256 0.831117
C84   C     C_R   0.639279 0.858626 0.250610 0.835026
C85   C     C_R   0.140523 0.639784 0.749424 0.823074
C86   C     C_R   0.861496 0.357863 0.249254 0.834763
C87   C     C_R   0.640403 0.859790 0.749844 0.823068
C88   C     C_R   0.358227 0.138939 0.249448 0.841535
C89   C     C_R   0.232523 0.661903 0.204014 -0.195757
C90   C     C_R   0.766734 0.337663 0.794602 -0.243799
C91   C     C_R   0.344809 0.243132 0.205938 -0.244252
C92   C     C_R   0.670622 0.773055 0.795458 -0.245135
C93   C     C_R   0.763527 0.339827 0.204006 -0.205994
C94   C     C_R   0.226391 0.670075 0.794307 -0.226852
C95   C     C_R   0.654635 0.752804 0.207722 -0.253815
C96   C     C_R   0.345714 0.242988 0.795060 -0.259680
C97   C     C_R   0.237177 0.341311 0.796573 -0.229924
C98   C     C_R   0.769029 0.664235 0.205303 -0.226692
C99   C     C_R   0.357797 0.733540 0.788208 -0.254499
C100  C     C_R   0.663383 0.232057 0.202903 -0.222829
C101  C     C_R   0.736560 0.641069 0.789193 -0.256830
C102  C     C_R   0.232618 0.336234 0.203788 -0.230169
C103  C     C_R   0.641426 0.261731 0.790204 -0.258501
C104  C     C_R   0.336500 0.765411 0.203625 -0.226130
C105  C     C_R   0.732320 0.162090 0.703947 -0.195334
C106  C     C_R   0.266264 0.838257 0.294504 -0.243965
C107  C     C_R   0.840604 0.736240 0.704727 -0.235997
C108  C     C_R   0.170323 0.273358 0.295653 -0.245269
C109  C     C_R   0.266283 0.837878 0.703564 -0.198160
C110  C     C_R   0.726442 0.169991 0.294297 -0.226484
C111  C     C_R   0.152472 0.249891 0.708253 -0.255118
C112  C     C_R   0.845622 0.742810 0.295104 -0.259806
C113  C     C_R   0.737295 0.841376 0.296581 -0.229812
C114  C     C_R   0.268895 0.163952 0.705368 -0.224889
C115  C     C_R   0.857872 0.233314 0.288074 -0.254176
C116  C     C_R   0.163666 0.732249 0.702833 -0.223036
C117  C     C_R   0.239059 0.143178 0.289859 -0.262118
C118  C     C_R   0.734920 0.837302 0.703757 -0.235857
C119  C     C_R   0.141341 0.761803 0.290213 -0.258743
C120  C     C_R   0.836425 0.265507 0.703591 -0.226757
C121  C     C_R   0.288397 0.655223 0.186126 -0.007331
C122  C     C_R   0.710628 0.354477 0.811441 0.015147
C123  C     C_R   0.348436 0.299727 0.188361 -0.014285
C124  C     C_R   0.656643 0.718781 0.813479 0.014956
C125  C     C_R   0.707666 0.344142 0.186054 -0.013291
C126  C     C_R   0.282099 0.645312 0.809612 0.005193
C127  C     C_R   0.654242 0.698338 0.189192 -0.024256
C128  C     C_R   0.348543 0.297033 0.813814 -0.006710
C129  C     C_R   0.290887 0.344332 0.815971 0.024011
C130  C     C_R   0.713684 0.653353 0.187379 -0.006155
C131  C     C_R   0.347771 0.681849 0.808008 -0.039265
C132  C     C_R   0.657810 0.287743 0.184679 -0.043455
C133  C     C_R   0.696160 0.654904 0.811857 -0.016712
C134  C     C_R   0.289265 0.345258 0.186094 -0.014661
C135  C     C_R   0.650451 0.310214 0.811154 -0.028460
C136  C     C_R   0.340683 0.709329 0.185242 -0.043084
C137  C     C_R   0.788121 0.155496 0.686015 -0.004180
C138  C     C_R   0.210023 0.855206 0.311224 0.015006
C139  C     C_R   0.847540 0.793215 0.687448 -0.007080
C140  C     C_R   0.156663 0.218912 0.313624 0.016620
C141  C     C_R   0.210613 0.842909 0.685553 -0.010803
C142  C     C_R   0.782264 0.145002 0.309490 0.004604
C143  C     C_R   0.153024 0.195665 0.689623 -0.025790
C144  C     C_R   0.848455 0.796787 0.313891 -0.006627
C145  C     C_R   0.790882 0.844202 0.316023 0.025471
C146  C     C_R   0.213417 0.152061 0.687576 -0.003448
C147  C     C_R   0.847982 0.181426 0.307821 -0.039044
C148  C     C_R   0.159327 0.787644 0.684424 -0.046692
C149  C     C_R   0.197417 0.156022 0.312267 -0.017206
C150  C     C_R   0.791773 0.843406 0.685920 -0.018091
C151  C     C_R   0.150094 0.810637 0.311046 -0.029023
C152  C     C_R   0.840494 0.209530 0.685164 -0.044364
C153  C     C_R   0.292326 0.760342 0.226424 0.080126
C154  C     C_R   0.693104 0.254873 0.769310 0.099238
C155  C     C_R   0.240278 0.294012 0.226826 0.078557
C156  C     C_R   0.745646 0.694155 0.769015 0.092710
C157  C     C_R   0.706826 0.239060 0.225693 0.081297
C158  C     C_R   0.305128 0.745219 0.768378 0.098377
C159  C     C_R   0.759687 0.705362 0.228695 0.072149
C160  C     C_R   0.244349 0.298644 0.773168 0.082020
C161  C     C_R   0.299498 0.246356 0.772755 0.090161
C162  C     C_R   0.702485 0.754152 0.229545 0.077510
C163  C     C_R   0.241814 0.704615 0.770376 0.073135
C164  C     C_R   0.760688 0.292812 0.225973 0.054787
C165  C     C_R   0.704931 0.757807 0.771263 0.073675
C166  C     C_R   0.295238 0.242114 0.227245 0.069694
C167  C     C_R   0.754664 0.298853 0.770984 0.075037
C168  C     C_R   0.237427 0.707955 0.226397 0.047135
C169  C     C_R   0.792287 0.260380 0.726396 0.080278
C170  C     C_R   0.193002 0.754974 0.269305 0.099526
C171  C     C_R   0.740310 0.793469 0.726537 0.081341
C172  C     C_R   0.247216 0.195687 0.269479 0.092228
C173  C     C_R   0.207272 0.738844 0.725609 0.082235
C174  C     C_R   0.804978 0.245289 0.268342 0.097401
C175  C     C_R   0.259287 0.204897 0.728788 0.071306
C176  C     C_R   0.744588 0.798865 0.273142 0.082283
C177  C     C_R   0.799592 0.746410 0.272753 0.089803
C178  C     C_R   0.201401 0.252866 0.729788 0.079616
C179  C     C_R   0.741714 0.204657 0.270381 0.073140
C180  C     C_R   0.261872 0.791898 0.725781 0.050710
C181  C     C_R   0.205330 0.258519 0.271562 0.074947
C182  C     C_R   0.793058 0.739102 0.726583 0.064856
C183  C     C_R   0.254451 0.799122 0.270947 0.075143
C184  C     C_R   0.737341 0.208034 0.726356 0.046636
C185  C     C_R   0.301938 0.804933 0.249049 -0.164190
C186  C     C_R   0.688760 0.203627 0.748055 -0.171552
C187  C     C_R   0.196241 0.303553 0.249392 -0.163246
C188  C     C_R   0.796419 0.689078 0.747775 -0.172893
C189  C     C_R   0.696692 0.195759 0.248450 -0.162336
C190  C     C_R   0.310667 0.796409 0.747405 -0.173782
C191  C     C_R   0.806424 0.699022 0.250501 -0.165220
C192  C     C_R   0.195206 0.302261 0.751355 -0.171283
C193  C     C_R   0.306349 0.198958 0.750512 -0.165480
C194  C     C_R   0.695776 0.802868 0.251246 -0.170073
C195  C     C_R   0.196791 0.695768 0.748426 -0.162210
C196  C     C_R   0.810154 0.296826 0.247456 -0.174062
C197  C     C_R   0.696385 0.803409 0.749194 -0.163092
C198  C     C_R   0.298202 0.191096 0.248260 -0.172286
C199  C     C_R   0.802005 0.304848 0.749050 -0.163989
C200  C     C_R   0.188789 0.703604 0.248082 -0.171609
C201  C     C_R   0.439856 0.016285 0.054994 0.513279
C202  C     C_R   0.561732 0.017542 0.945195 0.509617
C203  C     C_R   0.980598 0.438763 0.054723 0.513254
C204  C     C_R   0.979600 0.561441 0.945337 0.510819
C205  C     C_R   0.561624 0.980461 0.054745 0.512633
C206  C     C_R   0.439686 0.981506 0.945192 0.509373
C207  C     C_R   0.016158 0.561749 0.054922 0.512659
C208  C     C_R   0.015432 0.438895 0.944996 0.508700
C209  C     C_R   0.939828 0.516328 0.554994 0.513486
C210  C     C_R   0.061719 0.517566 0.445196 0.509613
C211  C     C_R   0.480525 0.938751 0.554720 0.513348
C212  C     C_R   0.479583 0.061441 0.445337 0.510826
C213  C     C_R   0.061598 0.480510 0.554748 0.512500
C214  C     C_R   0.939673 0.481531 0.445192 0.509315
C215  C     C_R   0.516104 0.061731 0.554924 0.512394
C216  C     C_R   0.515415 0.938895 0.444996 0.508652
C217  C     C_R   0.565813 0.991942 0.027479 -0.059434
C218  C     C_R   0.435555 0.992261 0.972537 -0.059612
C219  C     C_R   0.004876 0.565943 0.027695 -0.059086
C220  C     C_R   0.004358 0.434573 0.972257 -0.057360
C221  C     C_R   0.435632 0.005371 0.027681 -0.059291
C222  C     C_R   0.565857 0.006170 0.972428 -0.058782
C223  C     C_R   0.991234 0.434530 0.027384 -0.059880
C224  C     C_R   0.990870 0.565795 0.972624 -0.059573
C225  C     C_R   0.065790 0.491985 0.527481 -0.059368
C226  C     C_R   0.935539 0.492291 0.472537 -0.059614
C227  C     C_R   0.504831 0.065931 0.527697 -0.058997
C228  C     C_R   0.504328 0.934570 0.472257 -0.057359
C229  C     C_R   0.935609 0.505411 0.527681 -0.059445
C230  C     C_R   0.065841 0.506199 0.472430 -0.058800
C231  C     C_R   0.491176 0.934520 0.527383 -0.060068
C232  C     C_R   0.490846 0.065791 0.472625 -0.059594
C233  C     C_R   0.500718 0.998846 0.013800 -0.029700
C234  C     C_R   0.500704 0.999129 0.986262 -0.030558
C235  C     C_R   0.997969 0.500227 0.013756 -0.029587
C236  C     C_R   0.997747 0.500195 0.986229 -0.030775
C237  C     C_R   0.000697 0.498885 0.513801 -0.029685
C238  C     C_R   0.000686 0.499163 0.486263 -0.030569
C239  C     C_R   0.497922 0.000218 0.513756 -0.029586
C240  C     C_R   0.497713 0.000190 0.486230 -0.030799
H1    H     H_    0.185262 0.631651 0.199089 0.195589
H2    H     H_    0.818784 0.357933 0.800138 0.162435
H3    H     H_    0.379286 0.199423 0.200857 0.190936
H4    H     H_    0.650880 0.826326 0.800118 0.156263
H5    H     H_    0.809123 0.372628 0.199291 0.196253
H6    H     H_    0.172305 0.654630 0.799616 0.150198
H7    H     H_    0.619517 0.795069 0.202451 0.190119
H8    H     H_    0.383550 0.201378 0.799015 0.175453
H9    H     H_    0.188074 0.368800 0.801510 0.160489
H10   H     H_    0.819832 0.641524 0.199867 0.161599
H11   H     H_    0.409685 0.758369 0.788343 0.184151
H12   H     H_    0.633519 0.183785 0.198502 0.165095
H13   H     H_    0.755124 0.585686 0.787750 0.183619
H14   H     H_    0.183121 0.362458 0.198901 0.163883
H15   H     H_    0.590944 0.234307 0.791216 0.184771
H16   H     H_    0.367214 0.812830 0.199080 0.167109
H17   H     H_    0.685047 0.131805 0.699058 0.195756
H18   H     H_    0.318223 0.858550 0.300119 0.162824
H19   H     H_    0.870494 0.688866 0.699352 0.184620
H20   H     H_    0.149727 0.326277 0.300264 0.156918
H21   H     H_    0.312962 0.869381 0.698876 0.195913
H22   H     H_    0.672382 0.154535 0.299639 0.150146
H23   H     H_    0.115068 0.290309 0.703231 0.191007
H24   H     H_    0.883302 0.701055 0.299068 0.175382
H25   H     H_    0.688243 0.868981 0.301491 0.160766
H26   H     H_    0.320022 0.142034 0.699863 0.160745
H27   H     H_    0.909793 0.258065 0.288172 0.184012
H28   H     H_    0.132797 0.684540 0.698528 0.165621
H29   H     H_    0.259815 0.089220 0.288969 0.185939
H30   H     H_    0.687298 0.866949 0.699006 0.168214
H31   H     H_    0.091167 0.733975 0.291359 0.184716
H32   H     H_    0.867204 0.312902 0.699073 0.167289
H33   H     H_    0.899704 0.554519 0.400683 0.195149
H34   H     H_    0.101991 0.552731 0.599735 0.195108
H35   H     H_    0.445350 0.897051 0.399811 0.197066
H36   H     H_    0.445862 0.102680 0.600287 0.194148
H37   H     H_    0.102192 0.446191 0.399872 0.196010
H38   H     H_    0.898824 0.443941 0.599785 0.194845
H39   H     H_    0.550496 0.103122 0.400550 0.196165
H40   H     H_    0.552821 0.898476 0.599284 0.193522
H41   H     H_    0.399712 0.054503 0.900685 0.195147
H42   H     H_    0.602041 0.052644 0.099736 0.195200
H43   H     H_    0.945341 0.397058 0.899813 0.197045
H44   H     H_    0.945894 0.602685 0.100283 0.194300
H45   H     H_    0.602199 0.946174 0.899869 0.195993
H46   H     H_    0.398846 0.943905 0.099783 0.194922
H47   H     H_    0.050524 0.603109 0.900549 0.196158
H48   H     H_    0.052933 0.398524 0.099285 0.193763
N1    N     N_R   0.500675 0.998091 0.068221 -0.341156
N2    N     N_R   0.500752 0.999593 0.931824 -0.339989
N3    N     N_R   0.998483 0.500308 0.068199 -0.341011
N4    N     N_R   0.997441 0.500141 0.931784 -0.339462
N5    N     N_R   0.000647 0.498139 0.568222 -0.341197
N6    N     N_R   0.000740 0.499614 0.431825 -0.339980
N7    N     N_R   0.498414 0.000291 0.568199 -0.341080
N8    N     N_R   0.497427 0.000142 0.431784 -0.339452
O1    O     O_3   1.000000 0.500000 0.250000 -0.464717
O2    O     O_3   0.000000 0.500000 0.750000 -0.464666
O3    O     O_3   0.500000 0.000000 0.250000 -0.464501
O4    O     O_3   0.500000 0.000000 0.750000 -0.464950
O5    O     O_R   0.060810 0.500000 0.192410 -0.649341
O6    O     O_R   0.939190 0.500000 0.807590 -0.652234
O7    O     O_R   0.500000 0.060810 0.192410 -0.653448
O8    O     O_R   0.500000 0.939190 0.807590 -0.651788
O9    O     O_R   0.939190 0.500000 0.192410 -0.650420
O10   O     O_R   0.060810 0.500000 0.807590 -0.660291
O11   O     O_R   0.500000 0.939190 0.192410 -0.654411
O12   O     O_R   0.500000 0.060810 0.807590 -0.656157
O13   O     O_R   0.560810 0.000000 0.692410 -0.649087
O14   O     O_R   0.439190 0.000000 0.307590 -0.652880
O15   O     O_R   1.000000 0.560810 0.692410 -0.654713
O16   O     O_R   0.000000 0.439190 0.307590 -0.651810
O17   O     O_R   0.439190 0.000000 0.692410 -0.649431
O18   O     O_R   0.560810 0.000000 0.307590 -0.660151
O19   O     O_R   1.000000 0.439190 0.692410 -0.653477
O20   O     O_R   1.000000 0.560810 0.307590 -0.656270
O21   O     O_R   0.853910 0.585600 0.235240 -0.654590
O22   O     O_R   0.146090 0.414400 0.764760 -0.640888
O23   O     O_R   0.414400 0.853910 0.235240 -0.661642
O24   O     O_R   0.585600 0.146090 0.764760 -0.660870
O25   O     O_R   0.146090 0.414400 0.235240 -0.657312
O26   O     O_R   0.853910 0.585600 0.764760 -0.657659
O27   O     O_R   0.585600 0.146090 0.235240 -0.662182
O28   O     O_R   0.414400 0.853910 0.764760 -0.657561
O29   O     O_R   0.853910 0.414400 0.764760 -0.656323
O30   O     O_R   0.146090 0.585600 0.235240 -0.655608
O31   O     O_R   0.414400 0.146090 0.764760 -0.664854
O32   O     O_R   0.585600 0.853910 0.235240 -0.663579
O33   O     O_R   0.146090 0.585600 0.764760 -0.643144
O34   O     O_R   0.853910 0.414400 0.235240 -0.656798
O35   O     O_R   0.585600 0.853910 0.764760 -0.653301
O36   O     O_R   0.414400 0.146090 0.235240 -0.658820
O37   O     O_R   0.353910 0.085600 0.735240 -0.654018
O38   O     O_R   0.646090 0.914400 0.264760 -0.641055
O39   O     O_R   0.914400 0.353910 0.735240 -0.662080
O40   O     O_R   0.085600 0.646090 0.264760 -0.660777
O41   O     O_R   0.646090 0.914400 0.735240 -0.658495
O42   O     O_R   0.353910 0.085600 0.264760 -0.658621
O43   O     O_R   0.085600 0.646090 0.735240 -0.661492
O44   O     O_R   0.914400 0.353910 0.264760 -0.657460
O45   O     O_R   0.353910 0.914400 0.264760 -0.655898
O46   O     O_R   0.646090 0.085600 0.735240 -0.655593
O47   O     O_R   0.914400 0.646090 0.264760 -0.664554
O48   O     O_R   0.085600 0.353910 0.735240 -0.664227
O49   O     O_R   0.646090 0.085600 0.264760 -0.643201
O50   O     O_R   0.353910 0.914400 0.735240 -0.655497
O51   O     O_R   0.085600 0.353910 0.264760 -0.654236
O52   O     O_R   0.914400 0.646090 0.735240 -0.655770
O53   O     O_2   0.384857 0.046771 0.068074 -0.530362
O54   O     O_2   0.617009 0.048209 0.932315 -0.538925
O55   O     O_2   0.950721 0.383009 0.067638 -0.528217
O56   O     O_2   0.949177 0.616821 0.932584 -0.537251
O57   O     O_2   0.616824 0.950146 0.067523 -0.531797
O58   O     O_2   0.384286 0.951389 0.932179 -0.539738
O59   O     O_2   0.046474 0.617455 0.067921 -0.529287
O60   O     O_2   0.045892 0.383566 0.931921 -0.543665
O61   O     O_2   0.884825 0.546809 0.568073 -0.529682
O62   O     O_2   0.116999 0.548228 0.432317 -0.538964
O63   O     O_2   0.450632 0.882999 0.567632 -0.527676
O64   O     O_2   0.449163 0.116823 0.432585 -0.537253
O65   O     O_2   0.116798 0.450203 0.567528 -0.532016
O66   O     O_2   0.884275 0.451411 0.432180 -0.539820
O67   O     O_2   0.546428 0.117430 0.567924 -0.529381
O68   O     O_2   0.545883 0.883569 0.431923 -0.543735
Zn1   Zn    Zn3+2 1.000000 0.586890 0.272200 0.942987
Zn2   Zn    Zn3+2 0.000000 0.413110 0.727800 0.941456
Zn3   Zn    Zn3+2 0.413110 0.000000 0.272200 0.942503
Zn4   Zn    Zn3+2 0.586890 0.000000 0.727800 0.950185
Zn5   Zn    Zn3+2 1.000000 0.413110 0.272200 0.947276
Zn6   Zn    Zn3+2 0.000000 0.586890 0.727800 0.945130
Zn7   Zn    Zn3+2 0.586890 0.000000 0.272200 0.957761
Zn8   Zn    Zn3+2 0.413110 0.000000 0.727800 0.951079
Zn9   Zn    Zn3+2 0.500000 0.086890 0.772200 0.942853
Zn10  Zn    Zn3+2 0.500000 0.913110 0.227800 0.941774
Zn11  Zn    Zn3+2 0.913110 0.500000 0.772200 0.942192
Zn12  Zn    Zn3+2 0.086890 0.500000 0.227800 0.950181
Zn13  Zn    Zn3+2 0.500000 0.913110 0.772200 0.947628
Zn14  Zn    Zn3+2 0.500000 0.086890 0.227800 0.945007
Zn15  Zn    Zn3+2 0.086890 0.500000 0.772200 0.958063
Zn16  Zn    Zn3+2 0.913110 0.500000 0.227800 0.949655
C241  C     C_2   0.101761 0.805814 0.334107 0.569129
H49   H     H_    0.058549 0.766984 0.334031 0.019903
O69   O     O_2   0.112217 0.840964 0.354036 -0.473013
C242  C     C_2   0.896329 0.213160 0.664341 0.422108
H50   H     H_    0.931632 0.259617 0.663377 0.066320
O70   O     O_2   0.904432 0.164891 0.648281 -0.509950
C243  C     C_2   0.208554 0.109147 0.335314 0.573563
H51   H     H_    0.251868 0.070735 0.334977 0.017071
O71   O     O_2   0.174201 0.115780 0.355593 -0.459953
C244  C     C_2   0.789083 0.900798 0.665756 0.425081
H52   H     H_    0.741201 0.933264 0.663883 0.076849
O72   O     O_2   0.839929 0.913685 0.651426 -0.496194
C245  C     C_2   0.902665 0.175868 0.328579 0.528750
H53   H     H_    0.941096 0.219263 0.330719 0.054935
O73   O     O_2   0.903923 0.125916 0.343976 -0.438816
C246  C     C_2   0.104232 0.782575 0.663435 0.424590
H54   H     H_    0.069858 0.735403 0.662243 0.072595
O74   O     O_2   0.095619 0.830490 0.647489 -0.506421
C247  C     C_2   0.778374 0.886535 0.340477 0.509736
H55   H     H_    0.724206 0.900406 0.345982 0.024201
O75   O     O_2   0.827269 0.906477 0.354645 -0.444460
C248  C     C_2   0.222391 0.094976 0.667465 0.438203
H56   H     H_    0.272543 0.065936 0.666341 0.074667
O76   O     O_2   0.174156 0.077932 0.652636 -0.492309
C249  C     C_2   0.091717 0.192689 0.671378 0.532039
H57   H     H_    0.037899 0.190295 0.679407 0.020071
O77   O     O_2   0.100453 0.198607 0.647907 -0.465657
C250  C     C_2   0.911272 0.798268 0.331717 0.479507
H58   H     H_    0.930267 0.748665 0.340379 0.019862
O78   O     O_2   0.945611 0.853749 0.334962 -0.442672
C251  C     C_2   0.209497 0.905128 0.667790 0.507400
H59   H     H_    0.167811 0.946555 0.670569 0.102159
O79   O     O_2   0.254499 0.910150 0.650047 -0.510492
C252  C     C_2   0.772707 0.075192 0.323071 0.536803
H60   H     H_    0.724181 0.063519 0.333915 0.023273
O80   O     O_2   0.816848 0.027425 0.320168 -0.479413
C253  C     C_2   0.912084 0.795271 0.670766 0.531997
H61   H     H_    0.963523 0.808917 0.679543 0.028474
O81   O     O_2   0.908566 0.779394 0.647504 -0.477471
C254  C     C_2   0.092585 0.225262 0.330684 0.475885
H62   H     H_    0.070361 0.277726 0.335339 0.031005
O82   O     O_2   0.060195 0.171471 0.337891 -0.472534
C255  C     C_2   0.787871 0.093543 0.667776 0.499716
H63   H     H_    0.828379 0.051308 0.669911 0.097278
O83   O     O_2   0.742922 0.089749 0.650209 -0.518416
C256  C     C_2   0.212628 0.923558 0.326182 0.496153
H64   H     H_    0.263602 0.946224 0.332160 0.019573
O84   O     O_2   0.157853 0.957779 0.330449 -0.473444
C257  C     C_2   0.601934 0.305393 0.834174 0.568145
H65   H     H_    0.558628 0.266566 0.834017 0.019232
O85   O     O_2   0.612281 0.340565 0.854150 -0.472571
C258  C     C_2   0.396498 0.712920 0.164415 0.422602
H66   H     H_    0.431285 0.759720 0.163262 0.065649
O86   O     O_2   0.405154 0.664239 0.148563 -0.510544
C259  C     C_2   0.707730 0.608023 0.834873 0.574107
H67   H     H_    0.751347 0.569934 0.834457 0.018048
O87   O     O_2   0.673458 0.614288 0.855197 -0.458130
C260  C     C_2   0.283027 0.400900 0.165441 0.427738
H68   H     H_    0.233458 0.430536 0.163452 0.077854
O88   O     O_2   0.332640 0.415384 0.150776 -0.493805
C261  C     C_2   0.402277 0.676594 0.828847 0.529218
H69   H     H_    0.440805 0.719951 0.830908 0.056593
O89   O     O_2   0.403281 0.626967 0.844396 -0.439282
C262  C     C_2   0.602582 0.282172 0.163765 0.425336
H70   H     H_    0.568645 0.234745 0.162622 0.073031
O90   O     O_2   0.593389 0.329949 0.147823 -0.501253
C263  C     C_2   0.278468 0.386760 0.840413 0.510704
H71   H     H_    0.224353 0.401044 0.845851 0.024489
O91   O     O_2   0.327378 0.406308 0.854648 -0.444903
C264  C     C_2   0.722018 0.596100 0.167301 0.440204
H72   H     H_    0.771850 0.566506 0.166186 0.072390
O92   O     O_2   0.673572 0.579512 0.152503 -0.489953
C265  C     C_2   0.593214 0.696432 0.170839 0.533407
H73   H     H_    0.539291 0.695129 0.178766 0.020318
O93   O     O_2   0.602391 0.701652 0.147376 -0.466829
C266  C     C_2   0.411481 0.298714 0.831584 0.480749
H74   H     H_    0.430478 0.249201 0.840320 0.019708
O94   O     O_2   0.445884 0.354235 0.834694 -0.442927
C267  C     C_2   0.705342 0.406670 0.168466 0.512586
H75   H     H_    0.666393 0.449747 0.172350 0.092087
O95   O     O_2   0.746897 0.410359 0.149742 -0.504459
C268  C     C_2   0.272499 0.575606 0.823257 0.535799
H76   H     H_    0.223681 0.563787 0.833914 0.023216
O96   O     O_2   0.316979 0.528038 0.820603 -0.478893
C269  C     C_2   0.413143 0.305333 0.171882 0.524279
H77   H     H_    0.463632 0.320689 0.180821 0.031234
O97   O     O_2   0.411062 0.289727 0.148621 -0.470864
C270  C     C_2   0.593168 0.726386 0.830844 0.474834
H78   H     H_    0.571965 0.779322 0.835597 0.032588
O98   O     O_2   0.560020 0.673180 0.838198 -0.473974
C271  C     C_2   0.288224 0.593165 0.167935 0.504048
H79   H     H_    0.328275 0.550647 0.170259 0.098194
O99   O     O_2   0.243821 0.589582 0.150214 -0.516607
C272  C     C_2   0.713487 0.422588 0.826589 0.493380
H80   H     H_    0.764504 0.444605 0.832889 0.021937
O100  O     O_2   0.658892 0.457296 0.830689 -0.474923
C273  C     C_R   0.701381 0.994819 0.027859 0.173636
C274  C     C_R   0.752225 0.940662 0.023109 -0.091546
C275  C     C_R   0.820139 0.945172 0.034403 -0.144228
C276  C     C_R   0.837013 0.002261 0.051225 -0.123521
C277  C     C_R   0.786106 0.055300 0.056630 -0.098296
C278  C     C_R   0.718765 0.052114 0.044815 -0.114073
H81   H     H_    0.739917 0.896326 0.009983 0.126461
H82   H     H_    0.859793 0.904636 0.029939 0.133953
H83   H     H_    0.889612 0.005565 0.060008 0.125882
H84   H     H_    0.799266 0.099465 0.069697 0.163938
H85   H     H_    0.680411 0.094506 0.048633 0.133052
C279  C     C_R   0.299903 0.994637 0.972238 0.176224
C280  C     C_R   0.248416 0.940607 0.976717 -0.097163
C281  C     C_R   0.180482 0.945498 0.965495 -0.144823
C282  C     C_R   0.164258 0.002762 0.948981 -0.123664
C283  C     C_R   0.215803 0.055614 0.943828 -0.104514
C284  C     C_R   0.283117 0.052118 0.955610 -0.110901
H86   H     H_    0.260241 0.896068 0.989580 0.126506
H87   H     H_    0.140299 0.905133 0.969770 0.133686
H88   H     H_    0.111670 0.006354 0.940238 0.124116
H89   H     H_    0.203166 0.099896 0.930985 0.156436
H90   H     H_    0.321969 0.094398 0.952002 0.128088
C285  C     C_R   0.003013 0.703010 0.028608 0.172708
C286  C     C_R   0.056824 0.754635 0.023855 -0.091711
C287  C     C_R   0.052735 0.823237 0.035244 -0.143870
C288  C     C_R   0.996539 0.840154 0.052221 -0.124006
C289  C     C_R   0.944046 0.788553 0.057732 -0.098141
C290  C     C_R   0.946719 0.720556 0.045801 -0.111142
H91   H     H_    0.100592 0.742441 0.010639 0.125774
H92   H     H_    0.092870 0.863466 0.030720 0.133690
H93   H     H_    0.993510 0.893292 0.061048 0.125650
H94   H     H_    0.900628 0.801734 0.070972 0.162958
H95   H     H_    0.904618 0.681836 0.049741 0.133203
C291  C     C_R   0.002047 0.297625 0.971243 0.174810
C292  C     C_R   0.056157 0.246581 0.975584 -0.094980
C293  C     C_R   0.052129 0.178232 0.963978 -0.144584
C294  C     C_R   0.995576 0.160971 0.947245 -0.125751
C295  C     C_R   0.942672 0.211987 0.942185 -0.103165
C296  C     C_R   0.945388 0.279757 0.954293 -0.112248
H96   H     H_    0.100208 0.259059 0.988596 0.125999
H97   H     H_    0.092627 0.138480 0.968129 0.133388
H98   H     H_    0.992595 0.108017 0.938257 0.124987
H99   H     H_    0.898956 0.198542 0.929148 0.159723
H100  H     H_    0.903055 0.318038 0.950671 0.130539
C297  C     C_R   0.299960 0.002294 0.028469 0.171948
C298  C     C_R   0.249136 0.056714 0.024356 -0.089145
C299  C     C_R   0.181475 0.052270 0.036003 -0.141659
C300  C     C_R   0.164787 0.994971 0.052532 -0.123205
C301  C     C_R   0.215668 0.941700 0.057323 -0.096999
C302  C     C_R   0.282740 0.944832 0.045166 -0.115409
H101  H     H_    0.261311 0.101388 0.011526 0.126191
H102  H     H_    0.141849 0.093060 0.032066 0.132435
H103  H     H_    0.112359 0.991696 0.061574 0.126937
H104  H     H_    0.202695 0.897416 0.070202 0.163779
H105  H     H_    0.321048 0.902305 0.048566 0.132342
C303  C     C_R   0.701621 0.003636 0.971719 0.175059
C304  C     C_R   0.752929 0.057823 0.976408 -0.094866
C305  C     C_R   0.820854 0.053467 0.964985 -0.146459
C306  C     C_R   0.837345 0.996530 0.948074 -0.124748
C307  C     C_R   0.785996 0.943560 0.942681 -0.100915
C308  C     C_R   0.718642 0.946565 0.954627 -0.112869
H106  H     H_    0.740966 0.102143 0.989567 0.126492
H107  H     H_    0.860826 0.094011 0.969407 0.134652
H108  H     H_    0.889970 0.993293 0.939206 0.124713
H109  H     H_    0.798829 0.899573 0.929511 0.160115
H110  H     H_    0.679988 0.904198 0.950790 0.130308
C309  C     C_R   0.992923 0.297594 0.027426 0.174339
C310  C     C_R   0.939348 0.245785 0.022502 -0.093737
C311  C     C_R   0.943914 0.177155 0.033464 -0.143101
C312  C     C_R   0.000448 0.160459 0.050144 -0.122512
C313  C     C_R   0.052856 0.212212 0.055724 -0.101377
C314  C     C_R   0.049695 0.280213 0.044199 -0.110118
H111  H     H_    0.895403 0.257851 0.009477 0.126425
H112  H     H_    0.903849 0.136828 0.028861 0.133879
H113  H     H_    0.003814 0.107366 0.058695 0.124485
H114  H     H_    0.096560 0.199217 0.068695 0.160926
H115  H     H_    0.091734 0.319116 0.048101 0.131846
C315  C     C_R   0.993123 0.702619 0.972451 0.176513
C316  C     C_R   0.939658 0.754063 0.977483 -0.096253
C317  C     C_R   0.944152 0.822600 0.966403 -0.145039
C318  C     C_R   0.000501 0.839558 0.949512 -0.123690
C319  C     C_R   0.052800 0.788136 0.943826 -0.104561
C320  C     C_R   0.049702 0.720222 0.955452 -0.112518
H116  H     H_    0.895858 0.741775 0.990677 0.126527
H117  H     H_    0.904166 0.862670 0.971080 0.134511
H118  H     H_    0.003790 0.892602 0.940879 0.123550
H119  H     H_    0.096370 0.801338 0.930685 0.157635
H120  H     H_    0.091654 0.681587 0.951454 0.128210
C321  C     C_R   0.201359 0.494854 0.527863 0.173682
C322  C     C_R   0.252198 0.440690 0.523116 -0.091637
C323  C     C_R   0.320109 0.445193 0.534412 -0.144274
C324  C     C_R   0.336986 0.502283 0.551233 -0.123520
C325  C     C_R   0.286085 0.555331 0.556635 -0.098319
C326  C     C_R   0.218746 0.552150 0.544818 -0.114054
H121  H     H_    0.239887 0.396352 0.509991 0.126440
H122  H     H_    0.359759 0.404650 0.529951 0.133951
H123  H     H_    0.389583 0.505582 0.560018 0.125898
H124  H     H_    0.299248 0.599496 0.569700 0.163961
H125  H     H_    0.180397 0.594548 0.548633 0.133051
C327  C     C_R   0.799887 0.494667 0.472236 0.176238
C328  C     C_R   0.748401 0.440636 0.476714 -0.097230
C329  C     C_R   0.680469 0.445525 0.465490 -0.144845
C330  C     C_R   0.664247 0.502787 0.448975 -0.123675
C331  C     C_R   0.715792 0.555640 0.443823 -0.104542
C332  C     C_R   0.783103 0.552147 0.455606 -0.110892
H126  H     H_    0.760224 0.396099 0.489578 0.126482
H127  H     H_    0.640287 0.405160 0.469765 0.133685
H128  H     H_    0.611661 0.506377 0.440231 0.124106
H129  H     H_    0.703156 0.599921 0.430979 0.156403
H130  H     H_    0.821955 0.594427 0.451999 0.128068
C333  C     C_R   0.502986 0.202999 0.528612 0.172761
C334  C     C_R   0.556804 0.254618 0.523861 -0.091743
C335  C     C_R   0.552720 0.323220 0.535251 -0.143843
C336  C     C_R   0.496520 0.340142 0.552226 -0.123951
C337  C     C_R   0.444020 0.288546 0.557734 -0.098202
C338  C     C_R   0.446689 0.220549 0.545803 -0.111145
H131  H     H_    0.600574 0.242420 0.510646 0.125746
H132  H     H_    0.592860 0.363444 0.530729 0.133670
H133  H     H_    0.493495 0.393280 0.561053 0.125643
H134  H     H_    0.400600 0.301731 0.570973 0.162879
H135  H     H_    0.404583 0.181833 0.549741 0.133159
C339  C     C_R   0.502015 0.797622 0.471240 0.174825
C340  C     C_R   0.556122 0.746577 0.475584 -0.095020
C341  C     C_R   0.552099 0.678229 0.463977 -0.144609
C342  C     C_R   0.495555 0.660970 0.447240 -0.125779
C343  C     C_R   0.442653 0.711987 0.442177 -0.103164
C344  C     C_R   0.445365 0.779757 0.454286 -0.112253
H136  H     H_    0.600167 0.759052 0.488599 0.125980
H137  H     H_    0.592595 0.638476 0.468130 0.133393
H138  H     H_    0.492577 0.608017 0.438251 0.124983
H139  H     H_    0.398943 0.698544 0.429137 0.159730
H140  H     H_    0.403034 0.818039 0.450662 0.130536
C345  C     C_R   0.799937 0.502328 0.528466 0.171886
C346  C     C_R   0.749111 0.556746 0.524353 -0.088977
C347  C     C_R   0.681449 0.552300 0.535998 -0.141555
C348  C     C_R   0.664761 0.495000 0.552527 -0.123151
C349  C     C_R   0.715644 0.441731 0.557319 -0.096953
C350  C     C_R   0.782717 0.444865 0.545164 -0.115470
H141  H     H_    0.761285 0.601420 0.511523 0.126177
H142  H     H_    0.641821 0.593087 0.532061 0.132404
H143  H     H_    0.612332 0.491723 0.561568 0.126921
H144  H     H_    0.702672 0.397448 0.570199 0.163781
H145  H     H_    0.821027 0.402341 0.548565 0.132327
C351  C     C_R   0.201605 0.503660 0.471723 0.175079
C352  C     C_R   0.252917 0.557843 0.476412 -0.094878
C353  C     C_R   0.320843 0.553480 0.464990 -0.146461
C354  C     C_R   0.337332 0.496538 0.448081 -0.124771
C355  C     C_R   0.285980 0.443571 0.442689 -0.100916
C356  C     C_R   0.218624 0.446584 0.454632 -0.112865
H146  H     H_    0.240955 0.602168 0.489569 0.126474
H147  H     H_    0.360817 0.594022 0.469411 0.134656
H148  H     H_    0.389959 0.493295 0.439215 0.124704
H149  H     H_    0.298813 0.399580 0.429520 0.160140
H150  H     H_    0.179968 0.404219 0.450797 0.130302
C357  C     C_R   0.492865 0.797584 0.527423 0.174333
C358  C     C_R   0.439296 0.745772 0.522494 -0.093717
C359  C     C_R   0.443862 0.677141 0.533455 -0.143110
C360  C     C_R   0.500387 0.660446 0.550139 -0.122451
C361  C     C_R   0.552786 0.712202 0.555724 -0.101252
C362  C     C_R   0.549627 0.780206 0.544200 -0.110191
H151  H     H_    0.395358 0.757837 0.509466 0.126401
H152  H     H_    0.403802 0.636811 0.528846 0.133881
H153  H     H_    0.503752 0.607352 0.558689 0.124477
H154  H     H_    0.596484 0.699208 0.568698 0.160987
H155  H     H_    0.591661 0.819110 0.548107 0.131725
C363  C     C_R   0.493112 0.202615 0.472454 0.176545
C364  C     C_R   0.439651 0.254065 0.477484 -0.096240
C365  C     C_R   0.444155 0.322602 0.466405 -0.145022
C366  C     C_R   0.500510 0.339554 0.449516 -0.123678
C367  C     C_R   0.552804 0.288127 0.443831 -0.104593
C368  C     C_R   0.549696 0.220213 0.455456 -0.112552
H156  H     H_    0.395848 0.241782 0.490677 0.126500
H157  H     H_    0.404172 0.362676 0.471081 0.134504
H158  H     H_    0.503806 0.392597 0.440883 0.123536
H159  H     H_    0.596379 0.301324 0.430691 0.157585
H160  H     H_    0.591645 0.181573 0.451460 0.128145
C369  C     C_2   0.874784 0.553169 0.348901 0.403963
H161  H     H_    0.871233 0.552547 0.327744 0.058639
O101  O     O_2   0.822620 0.573789 0.361303 -0.564661
C370  C     C_2   0.126175 0.551875 0.651576 0.418028
H162  H     H_    0.129359 0.551407 0.672748 0.052250
O102  O     O_2   0.178628 0.572708 0.639366 -0.550572
C371  C     C_2   0.449442 0.872465 0.347890 0.402183
H163  H     H_    0.450876 0.869347 0.326713 0.050125
O103  O     O_2   0.429260 0.819255 0.359865 -0.559712
C372  C     C_2   0.449311 0.126979 0.652225 0.424898
H164  H     H_    0.450892 0.130133 0.673397 0.047358
O104  O     O_2   0.428630 0.179861 0.640307 -0.551729
C373  C     C_2   0.126072 0.448828 0.347950 0.401695
H165  H     H_    0.129050 0.450023 0.326773 0.051573
O105  O     O_2   0.178593 0.428004 0.359921 -0.561377
C374  C     C_2   0.874476 0.446287 0.651667 0.418007
H166  H     H_    0.871383 0.447016 0.672846 0.050911
O106  O     O_2   0.821893 0.425641 0.639510 -0.550439
C375  C     C_2   0.549866 0.127478 0.348779 0.403243
H167  H     H_    0.550144 0.130520 0.327618 0.051209
O107  O     O_2   0.568802 0.180783 0.361146 -0.562445
C376  C     C_2   0.552167 0.873698 0.651040 0.426952
H168  H     H_    0.552225 0.870377 0.672195 0.049056
O108  O     O_2   0.572081 0.820986 0.638591 -0.551338
C377  C     C_2   0.374787 0.053161 0.848904 0.404281
H169  H     H_    0.371235 0.052546 0.827747 0.058720
O109  O     O_2   0.322621 0.073772 0.861306 -0.564504
C378  C     C_2   0.626221 0.051764 0.151578 0.417932
H170  H     H_    0.629408 0.051267 0.172749 0.051575
O110  O     O_2   0.678683 0.072584 0.139369 -0.550335
C379  C     C_2   0.949410 0.372476 0.847890 0.401539
H171  H     H_    0.950845 0.369357 0.826713 0.050022
O111  O     O_2   0.929210 0.319273 0.859866 -0.559801
C380  C     C_2   0.949290 0.626973 0.152222 0.424673
H172  H     H_    0.950865 0.630127 0.173395 0.047713
O112  O     O_2   0.928590 0.679846 0.140304 -0.551620
C381  C     C_2   0.626073 0.948810 0.847946 0.400918
H173  H     H_    0.629034 0.949965 0.826769 0.051711
O113  O     O_2   0.678608 0.928019 0.859917 -0.561612
C382  C     C_2   0.374487 0.946270 0.151664 0.418383
H174  H     H_    0.371390 0.946998 0.172844 0.051697
O114  O     O_2   0.321904 0.925627 0.139506 -0.550624
C383  C     C_2   0.049900 0.627464 0.848779 0.403398
H175  H     H_    0.050172 0.630509 0.827618 0.051401
O115  O     O_2   0.068856 0.680763 0.861146 -0.562379
C384  C     C_2   0.052232 0.373729 0.151041 0.423416
H176  H     H_    0.052126 0.370351 0.172195 0.048321
O116  O     O_2   0.072330 0.321086 0.138594 -0.551863

loop_
_geom_bond_atom_site_label_1
_geom_bond_atom_site_label_2
_ccdc_geom_bond_type
C340  C341  A    
C128  C266  S    
C174  C196  A    
C177  C191  A    
C37   C69   A    
C90   C167  A    
C251  O79   D    
C18   C21   A    
C225  C237  A    
C91   C166  A    
C267  H75   S    
C276  C277  A    
C42   C58   A    
C38   C70   A    
C181  C187  A    
C343  H139  S    
C318  C319  A    
C317  C318  A    
C31   C67   A    
C379  O111  D    
C45   C57   A    
C124  C133  A    
C254  H62   S    
C371  O103  D    
C72   N3    S    
C246  O74   D    
C115  C174  A    
C339  C344  A    
C23   C357  S    
C355  H149  S    
C212  C232  A    
C268  O96   D    
C29   H37   S    
C278  H85   S    
C76   O46   A    
C215  O67   S    
C351  C352  A    
C3    O7    A    
C109  C141  A    
C333  C334  A    
C353  C354  A    
C125  C267  S    
C292  H96   S    
C110  C142  A    
C215  N7    A    
O38   Zn7   S    
C331  C332  A    
C130  C264  S    
C300  H103  S    
C230  C238  A    
C270  O98   D    
C354  H148  S    
C168  C200  A    
C319  H119  S    
C33   C69   A    
O3    Zn7   S    
C378  O110  D    
C218  C234  A    
C203  O55   S    
C366  H158  S    
C144  C250  S    
C209  O61   S    
C340  H136  S    
C8    O20   A    
C252  O80   D    
C314  H115  S    
C271  O99   D    
C126  C268  S    
C129  C263  S    
O22   Zn15  S    
C382  O114  D    
C376  O108  D    
C79   O49   A    
C120  C152  A    
C123  C134  A    
C294  H98   S    
C9    C273  S    
C79   O27   A    
C99   H11   S    
C296  H100  S    
C25   C41   A    
C339  C340  A    
C85   C195  S    
O7    Zn14  S    
C244  O72   D    
C39   H47   S    
C365  H157  S    
C335  C336  A    
C4    C61   S    
C28   C44   A    
O51   Zn5   S    
C29   C45   A    
C351  C356  A    
C101  H13   S    
C297  C302  A    
C166  C198  A    
C205  O57   S    
C338  H135  S    
C219  C235  A    
C8    C57   S    
C138  C256  S    
C299  H102  S    
C375  H167  S    
C22   C230  A    
C145  C247  S    
C293  C294  A    
C9    C14   A    
C25   C65   A    
C332  H130  S    
C307  C308  A    
C36   H44   S    
C359  C360  A    
C214  O66   S    
C93   H5    S    
C112  H24   S    
C301  H104  S    
C258  H66   S    
C250  O78   D    
C305  H107  S    
C34   H42   S    
C153  C168  A    
C35   C51   A    
C366  C367  A    
C156  C165  A    
C154  C167  A    
C16   C224  A    
C281  C282  A    
C229  C237  A    
C364  C365  A    
C52   C380  S    
C367  H159  S    
C119  H31   S    
C27   H35   S    
C308  H110  S    
C247  O75   D    
C319  C320  A    
C73   O47   A    
C336  C337  A    
C73   O21   A    
C17   C22   A    
C144  C145  A    
O45   Zn3   S    
C242  O70   D    
C117  H29   S    
C321  C326  A    
C100  C132  A    
C320  H120  S    
C101  C133  A    
C138  C151  A    
C46   C374  S    
C245  H53   S    
C139  C150  A    
C311  H112  S    
C120  H32   S    
C327  C328  A    
C51   C379  S    
C363  C364  A    
C155  C187  A    
C352  C353  A    
C88   O36   A    
C117  C172  A    
C272  H80   S    
C118  C171  A    
C237  C238  A    
C142  C147  A    
C82   O40   A    
C279  C280  A    
C54   C382  S    
O6    Zn11  S    
C313  H114  S    
C105  C184  A    
C205  N1    A    
C380  O112  D    
C106  C183  A    
C47   C59   A    
C303  C304  A    
C381  H173  S    
C79   C189  S    
C202  N2    A    
C77   O25   A    
C305  C306  A    
C133  C259  S    
C117  C149  A    
C124  C270  S    
C342  C343  A    
C249  H57   S    
C211  N7    A    
C94   C163  A    
C12   C220  A    
C23   C231  A    
C346  H141  S    
C259  O87   D    
C264  O92   D    
C287  H92   S    
C377  H169  S    
C43   C59   A    
C86   O34   A    
C201  C221  A    
C128  C129  A    
C102  C134  A    
C345  C346  A    
C325  H124  S    
C257  H65   S    
C324  C325  A    
C49   C377  S    
C154  C186  A    
C205  C217  A    
C348  H143  S    
C216  C228  A    
C116  C173  A    
C274  H81   S    
C374  H166  S    
C28   C68   A    
C142  C252  S    
C228  C240  A    
C114  H26   S    
C210  N6    A    
C337  H134  S    
C120  C169  A    
C88   C198  S    
C247  H55   S    
C102  C155  A    
C137  C255  S    
O19   Zn2   S    
C286  C287  A    
C107  H19   S    
C330  H128  S    
C360  H153  S    
C19   C227  A    
C86   C196  S    
C307  H109  S    
C53   C61   A    
C100  C157  A    
C208  N4    A    
C84   C194  S    
C266  H74   S    
C275  C276  A    
C55   C63   A    
C67   N8    S    
C56   C64   A    
C172  C198  A    
O50   Zn8   S    
C104  C153  A    
O37   Zn8   S    
C233  C234  A    
C36   C52   A    
C111  C143  A    
C37   C53   A    
C91   C123  A    
C301  C302  A    
C84   O32   A    
O43   Zn6   S    
C8    O16   A    
C211  O63   S    
O27   Zn14  S    
C92   C165  A    
C355  C356  A    
C253  O81   D    
C269  H77   S    
O17   Zn8   S    
C322  H121  S    
C81   O29   A    
C30   H38   S    
C295  H99   S    
C83   O31   A    
C26   C66   A    
C14   C303  S    
O23   Zn10  S    
C275  H82   S    
C209  C229  A    
C3    O11   A    
C74   O48   A    
C331  H129  S    
C306  H108  S    
O9    Zn16  S    
C1    O9    A    
C44   C372  S    
C262  H70   S    
C146  C248  S    
C83   C193  S    
O46   Zn4   S    
C169  C184  A    
C212  N8    A    
C95   C127  A    
C113  H25   S    
C178  C192  A    
C103  C154  A    
C309  C310  A    
C179  C189  A    
C20   C23   A    
C132  C262  S    
C277  C278  A    
C161  C193  A    
C182  C188  A    
C341  C342  A    
C87   O41   A    
C157  C164  A    
C310  H111  S    
C158  C163  A    
C4    O12   A    
C29   C65   A    
O13   Zn4   S    
C87   O35   A    
C265  O93   D    
C12   C15   A    
C90   H2    S    
O18   Zn7   S    
C372  O104  D    
C45   C373  S    
C71   N4    S    
C17   C225  A    
C292  C293  A    
C1    C64   S    
C11   C219  A    
C2    C63   S    
C26   C42   A    
C75   O45   A    
C248  H56   S    
C3    C62   S    
C5    O13   A    
C349  H144  S    
C373  H165  S    
C12   C291  S    
C34   C70   A    
C322  C323  A    
C39   C71   A    
C104  C136  A    
C5    C60   S    
C221  C233  A    
O35   Zn13  S    
C6    C59   S    
C30   C46   A    
O10   Zn15  S    
O1    Zn5   S    
C116  H28   S    
C53   C381  S    
C289  C290  A    
C164  C196  A    
C201  O53   S    
C20   C228  A    
C78   O52   A    
O42   Zn3   S    
C254  O82   D    
C295  C296  A    
C210  O62   S    
C359  H152  S    
C333  C338  A    
C109  C180  A    
C361  H154  S    
C110  C179  A    
C150  C244  S    
C80   O28   A    
C269  O97   D    
O25   Zn12  S    
C175  C193  A    
C82   O30   A    
C215  C227  A    
C281  H87   S    
O1    Zn12  S    
C107  C139  A    
C274  C275  A    
C212  O64   S    
C213  C225  A    
C298  C299  A    
C35   C71   A    
C270  H78   S    
C285  C290  A    
C33   C49   A    
O32   Zn10  S    
C55   C383  S    
C31   C47   A    
C323  H122  S    
C282  C283  A    
O52   Zn6   S    
C140  C149  A    
C36   C72   A    
C118  H30   S    
C143  C146  A    
C304  H106  S    
O49   Zn7   S    
C349  C350  A    
C17   C321  S    
C103  H15   S    
C282  H88   S    
C363  C368  A    
C10   C279  S    
C356  H150  S    
C213  N5    A    
C255  O83   D    
C47   C375  S    
C289  H94   S    
C158  C190  A    
C38   H46   S    
O44   Zn5   S    
C211  C231  A    
C108  C181  A    
O21   Zn16  S    
C14   C222  A    
C85   O43   A    
C239  C240  A    
C206  N2    A    
C369  O101  D    
C256  H64   S    
O2    Zn11  S    
C261  O89   D    
C303  C308  A    
C9    C217  A    
C68   N7    S    
C115  C147  A    
O4    Zn13  S    
O11   Zn10  S    
C69   N2    S    
C96   C128  A    
C203  N3    A    
C312  C313  A    
C4    O8    A    
C113  C145  A    
C342  H138  S    
C118  C150  A    
C24   C363  S    
C260  H68   S    
C77   O51   A    
C25   H33   S    
C122  C272  S    
C344  H140  S    
C65   N6    S    
C39   C55   A    
C371  H163  S    
C115  H27   S    
C40   C56   A    
C235  C236  A    
C375  O107  D    
C137  C152  A    
C373  O105  D    
C40   C72   A    
C202  O54   S    
C345  C350  A    
C169  C199  A    
C258  O86   D    
C347  H142  S    
C10   C13   A    
O1    Zn1   S    
C304  C305  A    
C32   C48   A    
C283  C284  A    
C127  C265  S    
C265  H73   S    
C123  C269  S    
C152  C242  S    
C175  C178  A    
C288  H93   S    
C156  C188  A    
C80   O50   A    
C368  H160  S    
C335  H132  S    
C49   C61   A    
C286  H91   S    
O31   Zn9   S    
C107  C182  A    
C330  C331  A    
C97   C160  A    
C159  C191  A    
C51   C63   A    
C246  H54   S    
C160  C192  A    
C370  O102  D    
C52   C64   A    
C13   C221  A    
O8    Zn13  S    
C98   H10   S    
C358  H151  S    
C81   O39   A    
C54   C62   A    
C173  C180  A    
C243  O71   D    
C321  C322  A    
O29   Zn11  S    
C204  O56   S    
C263  H71   S    
C73   C191  S    
C102  H14   S    
C283  H89   S    
C206  O58   S    
C271  H79   S    
C309  C314  A    
C89   C168  A    
C41   C369  S    
C273  C274  A    
C165  C197  A    
C260  O88   D    
C267  O95   D    
C11   C16   A    
C6    O18   A    
C272  O100  D    
C38   C54   A    
O41   Zn4   S    
C7    O15   A    
C299  C300  A    
C21   C229  A    
C98   C130  A    
C210  C230  A    
C159  C162  A    
C203  C223  A    
C208  O60   S    
C94   H6    S    
O3    Zn14  S    
C216  N8    A    
C113  C176  A    
C213  O65   S    
O4    Zn4   S    
O5    Zn12  S    
C114  C175  A    
O26   Zn11  S    
C252  H60   S    
C315  C316  A    
C87   C197  S    
C217  C233  A    
C16   C315  S    
C310  C311  A    
C382  H174  S    
C116  C148  A    
C376  H168  S    
C288  C289  A    
C105  H17   S    
C2    O10   A    
C284  H90   S    
C268  H76   S    
C302  H105  S    
C280  H86   S    
C24   C232  A    
O28   Zn13  S    
C81   C199  S    
C97   H9    S    
C357  C358  A    
C15   C309  S    
C244  H52   S    
O15   Zn6   S    
C99   C131  A    
C222  C234  A    
C277  H84   S    
C101  C156  A    
O36   Zn14  S    
C383  O115  D    
C19   C24   A    
C224  C236  A    
C41   C57   A    
C263  O91   D    
C184  C186  A    
C180  C190  A    
C276  H83   S    
C343  C344  A    
C89   C121  A    
C291  C296  A    
C44   C60   A    
C7    O19   A    
C313  C314  A    
C86   O44   A    
C362  H155  S    
C121  C136  A    
C15   C223  A    
C93   C125  A    
C122  C135  A    
C43   C371  S    
O3    Zn10  S    
C204  N4    A    
C27   C43   A    
C250  H58   S    
O4    Zn8   S    
C266  O94   D    
C346  C347  A    
C78   O26   A    
C251  H59   S    
C241  O69   D    
C324  H123  S    
C149  C243  S    
C176  C194  A    
C384  H176  S    
C108  C140  A    
C353  H147  S    
C96   H8    S    
C328  H126  S    
C112  C177  A    
C317  H117  S    
C208  C220  A    
O34   Zn16  S    
C379  H171  S    
C226  C238  A    
C318  H118  S    
C170  C183  A    
C202  C222  A    
C171  C182  A    
C354  C355  A    
C85   O33   A    
C316  C317  A    
C242  H50   S    
C170  C200  A    
C253  H61   S    
C261  H69   S    
C361  C362  A    
C357  C362  A    
C6    O14   A    
C245  O73   D    
C153  C185  A    
O4    Zn9   S    
O1    Zn16  S    
C262  O90   D    
C336  H133  S    
C298  H101  S    
C249  O77   D    
C28   H36   S    
C48   C376  S    
C155  C166  A    
C285  C286  A    
C84   O38   A    
C370  H162  S    
C11   C285  S    
C96   C161  A    
C231  C239  A    
C294  C295  A    
C66   N5    S    
O48   Zn2   S    
C131  C261  S    
C103  C135  A    
C380  H172  S    
O20   Zn1   S    
C18   C226  A    
C141  C148  A    
O2    Zn6   S    
C329  H127  S    
C35   H43   S    
C365  C366  A    
C381  O113  D    
C214  N6    A    
O40   Zn1   S    
C173  C195  A    
C111  C178  A    
O16   Zn5   S    
C206  C218  A    
C163  C195  A    
C140  C254  S    
C31   H39   S    
C297  C298  A    
C7    C58   S    
C32   H40   S    
C147  C245  S    
C95   H7    S    
O12   Zn9   S    
C329  C330  A    
C227  C239  A    
C162  C194  A    
C377  O109  D    
C293  H97   S    
C204  C224  A    
C90   C122  A    
C1    O5    A    
C75   C185  S    
O3    Zn3   S    
C172  C181  A    
C207  O59   S    
O2    Zn15  S    
C48   C60   A    
C248  O76   D    
C94   C126  A    
C119  C151  A    
C216  O68   S    
C33   H41   S    
C34   C50   A    
C257  O85   D    
C312  H113  S    
C70   N1    S    
C143  C249  S    
C27   C67   A    
C334  C335  A    
C114  C146  A    
C364  H156  S    
C95   C162  A    
O30   Zn12  S    
C255  H63   S    
C26   H34   S    
C37   H45   S    
C290  H95   S    
C151  C241  S    
C93   C164  A    
C105  C137  A    
C273  C278  A    
C2    O6    A    
O24   Zn9   S    
C259  H67   S    
C20   C339  S    
C136  C258  S    
C82   C200  S    
C291  C292  A    
C384  O116  D    
C183  C185  A    
C21   C345  S    
C347  C348  A    
C306  C307  A    
C148  C246  S    
C311  C312  A    
C56   C384  S    
C350  H145  S    
C83   O37   A    
C88   O42   A    
C327  C332  A    
C98   C159  A    
C111  H23   S    
C30   C66   A    
C223  C235  A    
C352  H146  S    
C74   C192  S    
C121  C271  S    
C176  C177  A    
C92   C124  A    
C91   H3    S    
C40   H48   S    
C42   C370  S    
C279  C284  A    
C50   C62   A    
C89   H1    S    
C108  H20   S    
C78   C188  S    
C135  C257  S    
C76   C186  S    
C358  C359  A    
C10   C218  A    
C106  H18   S    
C316  H116  S    
C326  H125  S    
C383  H175  S    
C341  H137  S    
C378  H170  S    
C201  N1    A    
O39   Zn2   S    
C80   C190  S    
C220  C236  A    
C167  C199  A    
C207  N3    A    
C100  H12   S    
C323  C324  A    
C334  H131  S    
C75   O23   A    
C367  C368  A    
O47   Zn1   S    
C5    O17   A    
C207  C219  A    
C104  H16   S    
C32   C68   A    
C280  C281  A    
C160  C161  A    
C112  C144  A    
O2    Zn2   S    
C127  C130  A    
C97   C129  A    
C171  C197  A    
C374  O106  D    
C74   O22   A    
C369  H161  S    
C50   C378  S    
C92   H4    S    
C125  C132  A    
C18   C327  S    
C325  C326  A    
C241  H49   S    
C256  O84   D    
C126  C131  A    
C134  C260  S    
C22   C351  S    
C174  C179  A    
C348  C349  A    
O14   Zn3   S    
C264  H72   S    
C315  C320  A    
C106  C138  A    
C214  C226  A    
C157  C189  A    
C110  H22   S    
C77   C187  S    
O33   Zn15  S    
C76   O24   A    
C119  C170  A    
C337  C338  A    
C139  C253  S    
C300  C301  A    
C328  C329  A    
C99   C158  A    
C232  C240  A    
C209  N5    A    
C372  H164  S    
C141  C251  S    
C360  C361  A    
C287  C288  A    
C109  H21   S    
C19   C333  S    
C46   C58   A    
C243  H51   S    
C13   C297  S    
