data_mof_unit_18124.cif
_audit_creation_date              2012-12-11T14:10:42-0500
_audit_creation_method            fapswitch 2.2
_symmetry_space_group_name_H-M    P1
_symmetry_Int_Tables_number       1
_space_group_crystal_system       triclinic
_cell_length_a                    19.775726
_cell_length_b                    17.520703
_cell_length_c                    15.290944
_cell_angle_alpha                 89.999541
_cell_angle_beta                  52.660952
_cell_angle_gamma                 89.999333
_cell_volume                      4212.2906766

loop_
_atom_site_label
_atom_site_type_symbol
_atom_type_description
_atom_site_fract_x
_atom_site_fract_y
_atom_site_fract_z
_atom_type_partial_charge
C1    C     C_R   0.371965 0.195134 0.999020 -0.234013
C2    C     C_R   0.658543 0.823401 0.954077 -0.200720
C3    C     C_R   0.628037 0.195133 0.000974 -0.234038
C4    C     C_R   0.341462 0.823396 0.045912 -0.200715
C5    C     C_R   0.871959 0.695132 0.999030 -0.234021
C6    C     C_R   0.158545 0.323402 0.954073 -0.200717
C7    C     C_R   0.128036 0.695133 0.000975 -0.234039
C8    C     C_R   0.841463 0.323396 0.045911 -0.200711
C9    C     C_3   0.212924 0.206843 0.584216 -0.165755
C10   C     C_3   0.677310 0.740121 0.444716 -0.175121
C11   C     C_3   0.787060 0.206862 0.415801 -0.165760
C12   C     C_3   0.322727 0.740082 0.555257 -0.175153
C13   C     C_3   0.712917 0.706849 0.584219 -0.165749
C14   C     C_3   0.177314 0.240121 0.444715 -0.175122
C15   C     C_3   0.287043 0.706875 0.415813 -0.165768
C16   C     C_3   0.822714 0.240094 0.555267 -0.175146
C17   C     C_2   0.196129 0.740917 0.086056 -0.160129
C18   C     C_2   0.727513 0.303443 0.024518 -0.189541
C19   C     C_2   0.803868 0.740915 0.913943 -0.160120
C20   C     C_2   0.272523 0.303465 0.975425 -0.189491
C21   C     C_2   0.696131 0.240916 0.086053 -0.160132
C22   C     C_2   0.227511 0.803444 0.024521 -0.189535
C23   C     C_2   0.303875 0.240916 0.913928 -0.160132
C24   C     C_2   0.772508 0.803458 0.975448 -0.189537
C25   C     C_R   0.399241 0.801625 0.208979 -0.236720
C26   C     C_R   0.648264 0.174671 0.777848 -0.227084
C27   C     C_R   0.600750 0.801625 0.791026 -0.236702
C28   C     C_R   0.351741 0.174675 0.222151 -0.227077
C29   C     C_R   0.899243 0.301625 0.208978 -0.236713
C30   C     C_R   0.148264 0.674671 0.777848 -0.227081
C31   C     C_R   0.100758 0.301625 0.791023 -0.236711
C32   C     C_R   0.851742 0.674678 0.222152 -0.227076
C33   C     C_R   0.329585 0.912278 0.952435 0.564478
C34   C     C_R   0.636199 0.111320 0.100879 0.602248
C35   C     C_R   0.670422 0.912284 0.047549 0.564453
C36   C     C_R   0.363798 0.111317 0.899124 0.602272
C37   C     C_R   0.829586 0.412277 0.952433 0.564459
C38   C     C_R   0.136197 0.611321 0.100881 0.602259
C39   C     C_R   0.170425 0.412285 0.047542 0.564454
C40   C     C_R   0.863792 0.611319 0.899131 0.602206
C41   C     C_R   0.359319 0.084460 0.319385 0.566107
C42   C     C_R   0.585669 0.889368 0.699965 0.711885
C43   C     C_R   0.640685 0.084457 0.680615 0.566115
C44   C     C_R   0.414322 0.889366 0.300041 0.711908
C45   C     C_R   0.859320 0.584462 0.319386 0.566114
C46   C     C_R   0.085676 0.389366 0.699960 0.711874
C47   C     C_R   0.140684 0.584459 0.680615 0.566113
C48   C     C_R   0.914325 0.389366 0.300040 0.711901
C49   C     C_R   0.341744 0.183975 0.939805 -0.032998
C50   C     C_R   0.709835 0.849005 0.980749 -0.040600
C51   C     C_R   0.658259 0.183974 0.060186 -0.032945
C52   C     C_R   0.290175 0.848997 0.019231 -0.040626
C53   C     C_R   0.841734 0.683973 0.939821 -0.032926
C54   C     C_R   0.209840 0.349008 0.980739 -0.040612
C55   C     C_R   0.158257 0.683975 0.060189 -0.032955
C56   C     C_R   0.790176 0.348996 0.019229 -0.040605
C57   C     C_R   0.395424 0.813863 0.300363 -0.186164
C58   C     C_R   0.690269 0.143362 0.674240 -0.120725
C59   C     C_R   0.604561 0.813863 0.699647 -0.186197
C60   C     C_R   0.309738 0.143367 0.325759 -0.120699
C61   C     C_R   0.895428 0.313862 0.300360 -0.186169
C62   C     C_R   0.190270 0.643362 0.674240 -0.120721
C63   C     C_R   0.104574 0.313862 0.699641 -0.186165
C64   C     C_R   0.809740 0.643371 0.325760 -0.120704
C65   C     C_3   0.180158 0.149116 0.541466 -0.120541
C66   C     C_3   0.709637 0.797728 0.488140 -0.117328
C67   C     C_3   0.819828 0.149113 0.458524 -0.120543
C68   C     C_3   0.290389 0.797721 0.511878 -0.117330
C69   C     C_3   0.680157 0.649119 0.541467 -0.120552
C70   C     C_3   0.209646 0.297725 0.488137 -0.117306
C71   C     C_3   0.319815 0.649114 0.458518 -0.120536
C72   C     C_3   0.790380 0.297721 0.511871 -0.117333
C73   C     C_3   0.612723 0.707446 0.562751 -0.192350
C74   C     C_3   0.276022 0.240331 0.468420 -0.188300
C75   C     C_3   0.387278 0.707413 0.437209 -0.192372
C76   C     C_3   0.723984 0.240347 0.531603 -0.188279
C77   C     C_3   0.112727 0.207446 0.562751 -0.192361
C78   C     C_3   0.776015 0.740337 0.468425 -0.188289
C79   C     C_3   0.887279 0.207424 0.437224 -0.192369
C80   C     C_3   0.223982 0.740358 0.531620 -0.188291
C81   C     C_3   0.646733 0.764192 0.603926 0.235612
C82   C     C_3   0.243495 0.182878 0.426203 0.232971
C83   C     C_3   0.353258 0.764190 0.396080 0.235617
C84   C     C_3   0.756514 0.182871 0.573795 0.232990
C85   C     C_3   0.146742 0.264189 0.603924 0.235616
C86   C     C_3   0.743493 0.682881 0.426205 0.232971
C87   C     C_3   0.853262 0.264189 0.396077 0.235614
C88   C     C_3   0.256514 0.682870 0.573794 0.232993
H1    H     H_    0.380534 0.249047 0.025400 0.127667
H2    H     H_    0.665399 0.772213 0.910078 0.130216
H3    H     H_    0.619470 0.249047 0.974592 0.127670
H4    H     H_    0.334608 0.772205 0.089906 0.130219
H5    H     H_    0.880527 0.749046 0.025409 0.127664
H6    H     H_    0.165402 0.272215 0.910073 0.130212
H7    H     H_    0.119469 0.749047 0.974593 0.127671
H8    H     H_    0.834609 0.272205 0.089905 0.130216
H9    H     H_    0.396353 0.746932 0.178638 0.133103
H10   H     H_    0.666530 0.225026 0.799551 0.138324
H11   H     H_    0.603637 0.746931 0.821368 0.133095
H12   H     H_    0.333476 0.225029 0.200445 0.138323
H13   H     H_    0.896356 0.246932 0.178636 0.133100
H14   H     H_    0.166530 0.725025 0.799551 0.138325
H15   H     H_    0.103644 0.246932 0.821367 0.133093
H16   H     H_    0.833479 0.725033 0.200446 0.138320
H17   H     H_    0.544510 0.695016 0.604147 0.111456
H18   H     H_    0.343803 0.254179 0.428201 0.111676
H19   H     H_    0.455492 0.694962 0.395777 0.111472
H20   H     H_    0.656203 0.254210 0.571841 0.111681
H21   H     H_    0.044513 0.195018 0.604149 0.111457
H22   H     H_    0.843795 0.754187 0.428208 0.111678
H23   H     H_    0.955493 0.194980 0.395807 0.111467
H24   H     H_    0.156200 0.754227 0.571871 0.111691
H25   H     H_    0.167765 0.087406 0.561447 0.133087
H26   H     H_    0.721414 0.859378 0.467170 0.148261
H27   H     H_    0.832211 0.087404 0.438532 0.133094
H28   H     H_    0.278635 0.859369 0.532862 0.148275
H29   H     H_    0.667765 0.587409 0.561448 0.133087
H30   H     H_    0.221427 0.359374 0.467167 0.148263
H31   H     H_    0.332190 0.587405 0.438520 0.133102
H32   H     H_    0.778616 0.359370 0.532851 0.148268
H33   H     H_    0.227856 0.193780 0.641870 0.109984
H34   H     H_    0.663877 0.752608 0.385429 0.114233
H35   H     H_    0.772107 0.193818 0.358163 0.109994
H36   H     H_    0.336191 0.752541 0.614520 0.114229
H37   H     H_    0.727850 0.693788 0.641872 0.109988
H38   H     H_    0.163881 0.252611 0.385428 0.114233
H39   H     H_    0.272078 0.693842 0.358185 0.110003
H40   H     H_    0.836166 0.252564 0.614540 0.114231
H41   H     H_    0.207022 0.727442 0.145890 0.155698
H42   H     H_    0.718564 0.315014 0.962568 0.151667
H43   H     H_    0.792959 0.727428 0.854127 0.155701
H44   H     H_    0.281505 0.315059 0.037342 0.151657
H45   H     H_    0.707023 0.227441 0.145888 0.155699
H46   H     H_    0.218561 0.815016 0.962571 0.151667
H47   H     H_    0.292955 0.227421 0.854123 0.155685
H48   H     H_    0.781479 0.815045 0.037376 0.151666
N1    N     N_R   0.408680 0.130810 0.995780 -0.065300
N2    N     N_R   0.591320 0.869190 0.004220 -0.070620
N3    N     N_R   0.591320 0.130810 0.004220 -0.065295
N4    N     N_R   0.408680 0.869190 0.995780 -0.070620
N5    N     N_R   0.908680 0.630810 0.995780 -0.065292
N6    N     N_R   0.091320 0.369190 0.004220 -0.070618
N7    N     N_R   0.091320 0.630810 0.004220 -0.065295
N8    N     N_R   0.908680 0.369190 0.995780 -0.070615
N9    N     N_R   0.421410 0.867210 0.153620 -0.063413
N10   N     N_R   0.578590 0.132790 0.846380 -0.060323
N11   N     N_R   0.578590 0.867210 0.846380 -0.063417
N12   N     N_R   0.421410 0.132790 0.153620 -0.060322
N13   N     N_R   0.921410 0.367210 0.153620 -0.063412
N14   N     N_R   0.078590 0.632790 0.846380 -0.060319
N15   N     N_R   0.078590 0.367210 0.846380 -0.063412
N16   N     N_R   0.921410 0.632790 0.153620 -0.060320
N17   N     N_R   0.403840 0.921910 0.935760 -0.106395
N18   N     N_R   0.596160 0.078090 0.064240 -0.113846
N19   N     N_R   0.596160 0.921910 0.064240 -0.106410
N20   N     N_R   0.403840 0.078090 0.935760 -0.113832
N21   N     N_R   0.903840 0.421910 0.935760 -0.106409
N22   N     N_R   0.096160 0.578090 0.064240 -0.113845
N23   N     N_R   0.096160 0.421910 0.064240 -0.106411
N24   N     N_R   0.903840 0.578090 0.935760 -0.113850
N25   N     N_R   0.426250 0.076100 0.213650 -0.114501
N26   N     N_R   0.573750 0.923900 0.786350 -0.098836
N27   N     N_R   0.573750 0.076100 0.786350 -0.114494
N28   N     N_R   0.426250 0.923900 0.213650 -0.098838
N29   N     N_R   0.926250 0.576100 0.213650 -0.114499
N30   N     N_R   0.073750 0.423900 0.786350 -0.098849
N31   N     N_R   0.073750 0.576100 0.786350 -0.114505
N32   N     N_R   0.926250 0.423900 0.213650 -0.098836
Ni1   Ni    Ni4+2 0.500000 0.131570 0.000000 0.171300
Ni2   Ni    Ni4+2 0.500000 0.868430 0.000000 0.172870
Ni3   Ni    Ni4+2 0.000000 0.631570 0.000000 0.171302
Ni4   Ni    Ni4+2 0.000000 0.368430 0.000000 0.172871
Ni5   Ni    Ni4+2 0.488900 0.000000 0.862310 0.246788
Ni6   Ni    Ni4+2 0.511100 0.000000 0.137690 0.246744
Ni7   Ni    Ni4+2 0.988900 0.500000 0.862310 0.246733
Ni8   Ni    Ni4+2 0.011100 0.500000 0.137690 0.246750
O1    O     O_3   0.306337 0.949793 0.894982 -0.600481
C89   C     C_3   0.223623 0.980520 0.970043 -0.174203
H49   H     H_    0.217004 0.013168 0.037420 0.101295
H50   H     H_    0.173611 0.936185 0.005146 0.106606
H51   H     H_    0.211391 0.020851 0.925159 0.184527
O2    O     O_3   0.637948 0.085068 0.184537 -0.605695
C90   C     C_3   0.555600 0.087892 0.283828 -0.233054
H52   H     H_    0.515376 0.044578 0.283289 0.207771
H53   H     H_    0.527220 0.145917 0.299939 0.100304
H54   H     H_    0.558764 0.073688 0.351972 0.155322
O3    O     O_3   0.693682 0.949807 0.104982 -0.600484
C91   C     C_3   0.776389 0.980546 0.029902 -0.174205
H55   H     H_    0.782984 0.013192 0.962538 0.101292
H56   H     H_    0.826409 0.936217 0.994779 0.106608
H57   H     H_    0.788630 0.020880 0.074773 0.184524
O4    O     O_3   0.362050 0.085058 0.815468 -0.605623
C92   C     C_3   0.444407 0.087946 0.716154 -0.233202
H58   H     H_    0.484676 0.044640 0.716639 0.207755
H59   H     H_    0.472743 0.145995 0.700088 0.100327
H60   H     H_    0.441251 0.073759 0.647998 0.155295
O5    O     O_3   0.806338 0.449793 0.894981 -0.600502
C93   C     C_3   0.723623 0.480518 0.970041 -0.174191
H61   H     H_    0.717001 0.513163 0.037422 0.101299
H62   H     H_    0.673612 0.436182 0.005139 0.106605
H63   H     H_    0.711391 0.520851 0.925159 0.184536
O6    O     O_3   0.137947 0.585068 0.184539 -0.605687
C94   C     C_3   0.055599 0.587894 0.283830 -0.233067
H64   H     H_    0.015373 0.544581 0.283295 0.207772
H65   H     H_    0.027221 0.645921 0.299940 0.100307
H66   H     H_    0.058763 0.573691 0.351975 0.155323
O7    O     O_3   0.193692 0.449813 0.104966 -0.600473
C95   C     C_3   0.276396 0.480559 0.029873 -0.174200
H67   H     H_    0.282979 0.513205 0.962516 0.101285
H68   H     H_    0.326423 0.436234 0.994738 0.106604
H69   H     H_    0.288642 0.520895 0.074738 0.184516
O8    O     O_3   0.862039 0.585068 0.815476 -0.605708
C96   C     C_3   0.944396 0.587878 0.716183 -0.232992
H70   H     H_    0.984616 0.544560 0.716734 0.207765
H71   H     H_    0.972784 0.645904 0.700059 0.100297
H72   H     H_    0.941236 0.573670 0.648038 0.155301
O9    O     O_3   0.337002 0.034247 0.402690 -0.618709
C97   C     C_3   0.350230 0.067322 0.475749 -0.230002
H73   H     H_    0.289854 0.065929 0.560343 0.154817
H74   H     H_    0.375663 0.126570 0.455289 0.086923
H75   H     H_    0.395454 0.032072 0.478281 0.192268
O10   O     O_3   0.559007 0.920903 0.642557 -0.634405
C98   C     C_3   0.495038 0.876288 0.652771 -0.300498
H76   H     H_    0.452993 0.914748 0.647661 0.196595
H77   H     H_    0.453923 0.845240 0.732566 0.142427
H78   H     H_    0.523991 0.835863 0.583007 0.152069
O11   O     O_3   0.662990 0.034255 0.597305 -0.618702
C99   C     C_3   0.649747 0.067345 0.524268 -0.230017
H79   H     H_    0.710118 0.065960 0.439667 0.154824
H80   H     H_    0.624311 0.126595 0.544749 0.086922
H81   H     H_    0.604520 0.032098 0.521738 0.192255
O12   O     O_3   0.440990 0.920891 0.357448 -0.634438
C100  C     C_3   0.504963 0.876269 0.347215 -0.300642
H82   H     H_    0.546993 0.914718 0.352367 0.196565
H83   H     H_    0.546092 0.845250 0.267398 0.142469
H84   H     H_    0.476014 0.835818 0.416948 0.152099
O13   O     O_3   0.837001 0.534249 0.402691 -0.618706
C101  C     C_3   0.850228 0.567324 0.475751 -0.230021
H85   H     H_    0.789851 0.565934 0.560343 0.154817
H86   H     H_    0.875663 0.626571 0.455291 0.086927
H87   H     H_    0.895446 0.532072 0.478290 0.192275
O14   O     O_3   0.059019 0.420895 0.642543 -0.634413
C102  C     C_3   0.995054 0.376276 0.652755 -0.300630
H88   H     H_    0.953009 0.414730 0.647639 0.196563
H89   H     H_    0.953938 0.345228 0.732550 0.142448
H90   H     H_    0.024010 0.335850 0.582992 0.152113
O15   O     O_3   0.162989 0.534257 0.597304 -0.618699
C103  C     C_3   0.149740 0.567347 0.524272 -0.229992
H91   H     H_    0.210102 0.565944 0.439665 0.154826
H92   H     H_    0.124329 0.626604 0.544734 0.086930
H93   H     H_    0.104492 0.532113 0.521769 0.192234
O16   O     O_3   0.940990 0.420894 0.357448 -0.634433
C104  C     C_3   0.004960 0.376273 0.347223 -0.300641
H94   H     H_    0.046990 0.414723 0.352373 0.196558
H95   H     H_    0.046090 0.345250 0.267409 0.142463
H96   H     H_    0.976008 0.335826 0.416962 0.152102

loop_
_geom_bond_atom_site_label_1
_geom_bond_atom_site_label_2
_ccdc_geom_bond_type
N2    N19   A    
C68   C80   S    
C94   H64   S    
C75   H19   S    
C15   C71   S    
C41   N25   A    
N2    Ni2   S    
N13   Ni4   S    
C98   H76   S    
C8    H8    S    
C7    C55   A    
N6    N23   A    
C72   C76   S    
C75   C83   S    
C16   C72   S    
C76   C84   S    
C47   C62   A    
C7    N7    A    
N16   N29   A    
C97   H73   S    
C98   H78   S    
N26   Ni5   S    
C96   H70   S    
C12   H36   S    
C33   C52   A    
C12   C68   S    
C101  H87   S    
C27   H11   S    
C34   C51   A    
C19   C24   D    
C22   H46   S    
C91   H57   S    
N12   N25   A    
N17   Ni5   S    
C22   C52   S    
C35   N19   A    
C42   N26   A    
C11   C76   S    
C90   H53   S    
C104  H94   S    
C10   C73   S    
C33   N17   A    
C23   C49   S    
C39   C54   A    
C74   H18   S    
C102  H88   S    
C18   C21   D    
C13   C81   S    
N5    Ni3   S    
C31   N15   A    
C3    H3    S    
C1    C49   A    
C14   C77   S    
C37   N21   A    
C26   N10   A    
C67   H27   S    
O2    C90   S    
N22   Ni8   S    
C61   C87   S    
C43   C58   A    
C9    C85   S    
C101  H85   S    
C37   C56   A    
C5    N5    A    
C21   H45   S    
C6    C54   A    
C38   C55   A    
C15   C80   S    
C91   H56   S    
C43   O11   S    
C95   H67   S    
C92   H59   S    
C68   H28   S    
C39   O7    S    
C70   C74   S    
C9    H33   S    
C32   H16   S    
C69   C73   S    
C93   H61   S    
C37   O5    S    
C6    N6    A    
C46   N30   A    
C100  H82   S    
C17   C55   S    
N1    Ni1   S    
N11   Ni2   S    
C18   C56   S    
N4    N17   A    
C13   H37   S    
C5    H5    S    
C78   C86   S    
C10   C66   S    
C19   C53   S    
C77   C85   S    
C67   C84   S    
C76   H20   S    
C15   H39   S    
O13   C101  S    
C63   C85   S    
C24   C50   S    
C8    C56   A    
C14   C70   S    
C80   H24   S    
O5    C93   S    
N13   N32   A    
C25   C57   A    
C20   H44   S    
C94   H65   S    
C64   C86   S    
C99   H79   S    
C26   H10   S    
C11   C67   S    
C89   H49   S    
C101  H86   S    
C34   N18   A    
N14   Ni3   S    
C19   H43   S    
C66   C78   S    
C94   H66   S    
C29   C61   A    
N20   Ni5   S    
C28   N12   A    
C65   C77   S    
O6    C94   S    
N18   Ni6   S    
N12   Ni1   S    
C33   O1    S    
O7    C95   S    
C2    N2    A    
C45   O13   S    
C31   C63   A    
C67   C79   S    
C32   C64   A    
C20   C54   S    
N10   Ni1   S    
C90   H54   S    
C11   C87   S    
C26   C58   A    
C104  H95   S    
N16   Ni3   S    
C3    C51   A    
C99   H81   S    
C15   C83   S    
N3    N18   A    
C102  H89   S    
O9    C97   S    
C62   C88   S    
N3    Ni1   S    
C16   C84   S    
N15   Ni4   S    
N1    N20   A    
C91   H55   S    
N29   Ni8   S    
C31   H15   S    
C48   O16   S    
C77   H21   S    
C90   H52   S    
C36   C49   A    
C58   C84   S    
C4    N4    A    
C47   N31   A    
N5    N24   A    
C73   H17   S    
O11   C99   S    
C32   N16   A    
C20   C23   D    
C44   C57   A    
C102  H90   S    
C72   H32   S    
C35   C50   A    
C57   C83   S    
O14   C102  S    
N30   Ni7   S    
C29   H13   S    
C23   H47   S    
C78   H22   S    
N28   Ni6   S    
C100  H83   S    
C28   H12   S    
C38   N22   A    
C79   C87   S    
C28   C60   A    
C60   C82   S    
C30   H14   S    
C73   C81   S    
N19   Ni6   S    
C25   H9    S    
N9    Ni2   S    
N21   Ni7   S    
C40   C53   A    
N23   Ni8   S    
C30   C62   A    
C2    C50   A    
C99   H80   S    
N24   Ni7   S    
C18   H42   S    
C3    N3    A    
C9    C74   S    
C14   C82   S    
N27   Ni5   S    
C21   C51   S    
C72   C87   S    
C1    N1    A    
C103  H91   S    
C36   N20   A    
C97   H75   S    
N6    Ni4   S    
C74   C82   S    
C96   H72   S    
C5    C53   A    
N7    N22   A    
N32   Ni8   S    
N8    Ni4   S    
C13   C78   S    
C10   C86   S    
C1    H1    S    
C2    H2    S    
C66   H26   S    
C39   N23   A    
C36   O4    S    
C68   C83   S    
C65   H25   S    
O1    C89   S    
C40   N24   A    
C25   N9    A    
C11   H35   S    
C59   C81   S    
C41   C60   A    
C10   H34   S    
N11   N26   A    
C42   C59   A    
C104  H96   S    
C89   H50   S    
O15   C103  S    
C103  H93   S    
N4    Ni2   S    
N9    N28   A    
C79   H23   S    
N15   N30   A    
C7    H7    S    
N10   N27   A    
C40   O8    S    
C45   C64   A    
C17   C22   D    
C14   H38   S    
C71   H31   S    
C97   H74   S    
C16   C79   S    
O4    C92   S    
C103  H92   S    
C44   O12   S    
C96   H71   S    
N7    Ni3   S    
O3    C91   S    
C80   C88   S    
C95   H68   S    
C27   C59   A    
C66   C81   S    
C71   C75   S    
N25   Ni6   S    
C98   H77   S    
C24   H48   S    
C65   C82   S    
C46   C63   A    
C13   C69   S    
C70   H30   S    
C95   H69   S    
C27   N11   A    
N14   N31   A    
C69   H29   S    
O12   C100  S    
N31   Ni7   S    
C34   O2    S    
C93   H63   S    
C4    C52   A    
C16   H40   S    
O10   C98   S    
C100  H84   S    
C9    C65   S    
C89   H51   S    
C30   N14   A    
C12   C75   S    
C29   N13   A    
C71   C88   S    
C8    N8    A    
C92   H60   S    
O8    C96   S    
C35   O3    S    
C92   H58   S    
C38   O6    S    
C6    H6    S    
C48   C61   A    
C46   O14   S    
C47   O15   S    
O16   C104  S    
C93   H62   S    
C44   N28   A    
N8    N21   A    
C42   O10   S    
C70   C85   S    
C45   N29   A    
C48   N32   A    
C17   H41   S    
C12   C88   S    
C69   C86   S    
C41   O9    S    
C4    H4    S    
C43   N27   A    
