data_mof_unit_9489.cif
_audit_creation_date              2012-12-10T16:35:57-0500
_audit_creation_method            fapswitch 2.2
_symmetry_space_group_name_H-M    P1
_symmetry_Int_Tables_number       1
_space_group_crystal_system       triclinic
_cell_length_a                    14.185251
_cell_length_b                    16.481125
_cell_length_c                    13.089234
_cell_angle_alpha                 90.484329
_cell_angle_beta                  107.807188
_cell_angle_gamma                 90.002646
_cell_volume                      2913.39526617

loop_
_atom_site_label
_atom_site_type_symbol
_atom_type_description
_atom_site_fract_x
_atom_site_fract_y
_atom_site_fract_z
_atom_type_partial_charge
C1    C     C_R   0.314943 0.844272 0.475410 0.536303
C2    C     C_R   0.686757 0.844388 0.521855 0.512366
C3    C     C_R   0.185964 0.656306 0.523921 0.529689
C4    C     C_R   0.186756 0.344387 0.521857 0.512363
C5    C     C_R   0.548318 0.001762 0.787070 0.522105
C6    C     C_R   0.048319 0.501770 0.787067 0.522035
C7    C     C_R   0.452343 0.999627 0.214482 0.558815
C8    C     C_R   0.952334 0.499626 0.214485 0.558796
C9    C     C_2   0.440754 0.997943 0.099104 0.165385
C10   C     C_2   0.940727 0.497943 0.099108 0.165503
C11   C     C_2   0.520970 0.977504 0.068867 0.277822
C12   C     C_R   0.314254 0.154748 0.475592 0.536645
C13   C     C_2   0.020962 0.477586 0.068864 0.277814
C14   C     C_2   0.570713 0.005084 0.906537 0.262482
C15   C     C_2   0.070720 0.505125 0.906529 0.262449
C16   C     C_2   0.509757 0.965357 0.951457 0.235962
C17   C     C_2   0.009750 0.465438 0.951463 0.235977
C18   C     C_2   0.759226 0.220519 0.535313 0.243594
C19   C     C_2   0.762796 0.783062 0.526207 0.251376
C20   C     C_2   0.259209 0.720535 0.535345 0.243537
C21   C     C_2   0.262796 0.283060 0.526215 0.251361
C22   C     C_3   0.421721 0.843698 0.927873 0.018487
C23   C     C_R   0.814941 0.344273 0.475406 0.536344
C24   C     C_3   0.494781 0.783849 0.903507 -0.265733
C25   C     C_3   0.484560 0.700285 0.947721 -0.493150
C26   C     C_3   0.922070 0.343645 0.927797 0.018396
C27   C     C_3   0.995063 0.284028 0.902844 -0.265476
C28   C     C_3   0.985318 0.200348 0.946996 -0.492968
C29   C     C_3   0.678776 0.917529 0.135572 0.010259
C30   C     C_3   0.671973 0.842118 0.199838 -0.253632
C31   C     C_3   0.745935 0.778217 0.187718 -0.480101
C32   C     C_3   0.178757 0.417612 0.135584 0.010293
C33   C     C_3   0.171979 0.342239 0.199926 -0.253569
C34   C     C_R   0.814249 0.654745 0.475585 0.536662
C35   C     C_3   0.245911 0.278313 0.187803 -0.480127
C36   C     C_3   0.731808 0.063605 0.941594 0.014835
C37   C     C_3   0.790242 0.984010 0.945814 -0.254152
C38   C     C_3   0.871973 0.992797 0.893360 -0.463521
C39   C     C_3   0.231851 0.563573 0.941563 0.014812
C40   C     C_3   0.290218 0.483945 0.945738 -0.254122
C41   C     C_3   0.371883 0.492672 0.893176 -0.463413
C42   C     C_3   0.264168 0.035264 0.060173 -0.323995
C43   C     C_3   0.764112 0.535157 0.060209 -0.324006
C44   C     C_3   0.424907 0.689570 0.602803 0.005815
C45   C     C_2   0.242946 0.780505 0.462085 0.253996
C46   C     C_3   0.454248 0.609058 0.661190 -0.270146
C47   C     C_3   0.557906 0.583097 0.662844 -0.481364
C48   C     C_3   0.408797 0.357255 0.581834 -0.015085
C49   C     C_3   0.459436 0.336635 0.497047 -0.254660
C50   C     C_3   0.521977 0.407410 0.479976 -0.483219
C51   C     C_3   0.924892 0.189436 0.602662 0.005714
C52   C     C_3   0.953914 0.108746 0.660684 -0.269988
C53   C     C_3   0.057617 0.082725 0.662586 -0.481397
C54   C     C_3   0.908801 0.857250 0.581666 -0.015115
C55   C     C_3   0.959153 0.836639 0.496626 -0.254780
C56   C     C_2   0.238303 0.215228 0.464678 0.263235
C57   C     C_3   0.021617 0.907394 0.479349 -0.483272
C58   C     C_3   0.693310 0.243747 0.282991 0.024163
C59   C     C_3   0.690869 0.308171 0.198587 -0.261937
C60   C     C_3   0.726109 0.273964 0.107839 -0.476469
C61   C     C_3   0.610002 0.628480 0.364861 -0.000682
C62   C     C_3   0.628086 0.592602 0.264116 -0.277135
C63   C     C_3   0.581346 0.508735 0.236850 -0.495248
C64   C     C_3   0.193363 0.743692 0.283017 0.024156
C65   C     C_3   0.190964 0.808085 0.198587 -0.261927
C66   C     C_3   0.226204 0.773830 0.107865 -0.476466
C67   C     C_2   0.742942 0.280506 0.462077 0.253939
C68   C     C_3   0.110031 0.128459 0.364861 -0.000682
C69   C     C_3   0.128144 0.092607 0.264118 -0.277116
C70   C     C_3   0.081589 0.008669 0.236942 -0.495261
C71   C     C_2   0.738300 0.715227 0.464675 0.263198
C72   C     C_R   0.685968 0.156301 0.523913 0.529637
H1    H     H_    0.345433 0.821181 0.887586 0.174765
H2    H     H_    0.980263 0.279628 0.814673 0.204143
H3    H     H_    0.028760 0.131907 0.350396 0.146933
H4    H     H_    0.138222 0.087602 0.434737 0.134179
H5    H     H_    0.095694 0.133457 0.195327 0.163593
H6    H     H_    0.208864 0.087554 0.276247 0.151126
H7    H     H_    0.120549 0.964961 0.299653 0.161464
H8    H     H_    0.088675 0.987756 0.158792 0.134352
H9    H     H_    0.001700 0.010265 0.230614 0.144145
H10   H     H_    0.072103 0.305749 0.938888 0.129933
H11   H     H_    0.998649 0.203859 0.035007 0.137694
H12   H     H_    0.040657 0.158653 0.930787 0.137170
H13   H     H_    0.909768 0.176000 0.907879 0.151867
H14   H     H_    0.754870 0.942502 0.168541 0.152824
H15   H     H_    0.669957 0.900111 0.051429 0.114334
H16   H     H_    0.688872 0.859007 0.285924 0.193041
H17   H     H_    0.595847 0.816530 0.171087 0.178468
H18   H     H_    0.726225 0.756579 0.103175 0.133026
H19   H     H_    0.429776 0.844800 0.015057 0.119632
H20   H     H_    0.745155 0.725818 0.239506 0.191544
H21   H     H_    0.822195 0.803643 0.212144 0.146735
H22   H     H_    0.254856 0.442586 0.168490 0.152847
H23   H     H_    0.169894 0.400136 0.051450 0.114359
H24   H     H_    0.188921 0.359167 0.286005 0.192923
H25   H     H_    0.095848 0.316654 0.171235 0.178424
H26   H     H_    0.226175 0.256663 0.103263 0.133082
H27   H     H_    0.245121 0.225926 0.239605 0.191572
H28   H     H_    0.322179 0.303722 0.212209 0.146744
H29   H     H_    0.781442 0.106511 0.999454 0.134496
H30   H     H_    0.480390 0.779306 0.815403 0.203925
H31   H     H_    0.714504 0.095362 0.863658 0.162632
H32   H     H_    0.824828 0.966478 0.030714 0.130987
H33   H     H_    0.740677 0.933670 0.905007 0.168804
H34   H     H_    0.841412 0.015974 0.810324 0.178060
H35   H     H_    0.906253 0.932694 0.889759 0.150674
H36   H     H_    0.930432 0.034359 0.941626 0.128801
H37   H     H_    0.281526 0.606446 0.999437 0.134500
H38   H     H_    0.214559 0.595348 0.863640 0.162656
H39   H     H_    0.324854 0.466414 0.030630 0.130933
H40   H     H_    0.240599 0.433619 0.904984 0.168755
H41   H     H_    0.571824 0.805443 0.939902 0.130100
H42   H     H_    0.341290 0.515883 0.810159 0.178177
H43   H     H_    0.406079 0.432543 0.889506 0.150660
H44   H     H_    0.430418 0.534184 0.941409 0.128772
H45   H     H_    0.348709 0.045299 0.955024 0.274671
H46   H     H_    0.195519 0.040070 0.991184 0.138880
H47   H     H_    0.278583 0.094751 0.102705 0.147228
H48   H     H_    0.252226 0.987806 0.114705 0.141018
H49   H     H_    0.848613 0.545248 0.955034 0.274676
H50   H     H_    0.695448 0.539927 0.991232 0.138851
H51   H     H_    0.778488 0.594653 0.102725 0.147147
H52   H     H_    0.497259 0.703956 0.035618 0.137807
H53   H     H_    0.752219 0.487695 0.114763 0.141026
H54   H     H_    0.486593 0.733788 0.632563 0.150038
H55   H     H_    0.414911 0.680059 0.515422 0.107490
H56   H     H_    0.452570 0.615149 0.745062 0.178420
H57   H     H_    0.400236 0.561304 0.620460 0.163490
H58   H     H_    0.562134 0.577857 0.579819 0.143761
H59   H     H_    0.575498 0.523304 0.702549 0.147237
H60   H     H_    0.613682 0.628071 0.708323 0.160094
H61   H     H_    0.466801 0.373339 0.657976 0.156837
H62   H     H_    0.362738 0.412452 0.557384 0.137759
H63   H     H_    0.540097 0.658468 0.932167 0.137005
H64   H     H_    0.507737 0.282876 0.523111 0.212469
H65   H     H_    0.402422 0.322323 0.419519 0.167914
H66   H     H_    0.475664 0.462510 0.455788 0.124141
H67   H     H_    0.553913 0.391512 0.415171 0.196504
H68   H     H_    0.583524 0.420227 0.554440 0.162892
H69   H     H_    0.986723 0.233492 0.632667 0.149976
H70   H     H_    0.914939 0.180147 0.515253 0.107591
H71   H     H_    0.951982 0.114603 0.744488 0.178549
H72   H     H_    0.899873 0.061132 0.619554 0.163320
H73   H     H_    0.062108 0.077731 0.579641 0.143790
H74   H     H_    0.409083 0.675974 0.908105 0.151873
H75   H     H_    0.074963 0.022803 0.701987 0.147123
H76   H     H_    0.113407 0.127535 0.708477 0.160078
H77   H     H_    0.966974 0.873268 0.657709 0.156829
H78   H     H_    0.862767 0.912481 0.557407 0.137816
H79   H     H_    0.007461 0.782867 0.522536 0.212720
H80   H     H_    0.901972 0.822356 0.419206 0.167745
H81   H     H_    0.975324 0.962527 0.455378 0.124167
H82   H     H_    0.053267 0.891499 0.414316 0.196403
H83   H     H_    0.083368 0.920148 0.553655 0.162985
H84   H     H_    0.639075 0.195324 0.245016 0.186843
H85   H     H_    0.845769 0.321050 0.887770 0.174664
H86   H     H_    0.767552 0.213902 0.309151 0.115335
H87   H     H_    0.613933 0.330897 0.164599 0.158767
H88   H     H_    0.739057 0.360176 0.236484 0.177221
H89   H     H_    0.803767 0.252447 0.139647 0.150642
H90   H     H_    0.723036 0.322126 0.048074 0.148446
H91   H     H_    0.677830 0.222777 0.067132 0.181739
H92   H     H_    0.528735 0.631959 0.350409 0.146968
H93   H     H_    0.638184 0.587625 0.434741 0.134136
H94   H     H_    0.595755 0.633500 0.195344 0.163741
H95   H     H_    0.708803 0.587432 0.276288 0.151051
H96   H     H_    0.930492 0.344563 0.015070 0.119384
H97   H     H_    0.620126 0.464975 0.299575 0.161455
H98   H     H_    0.588490 0.487790 0.158738 0.134358
H99   H     H_    0.501433 0.510468 0.230399 0.144156
H100  H     H_    0.139127 0.695268 0.245050 0.186873
H101  H     H_    0.267600 0.713840 0.309220 0.115308
H102  H     H_    0.114039 0.830831 0.164576 0.158765
H103  H     H_    0.239170 0.860085 0.236465 0.177271
H104  H     H_    0.303841 0.752267 0.139697 0.150599
H105  H     H_    0.223194 0.821979 0.048100 0.148310
H106  H     H_    0.177885 0.722667 0.067150 0.181853
N1    N     N_2   0.346303 0.013437 0.021669 -0.538222
N2    N     N_2   0.846251 0.513375 0.021686 -0.538032
O1    O     O_3   0.500010 0.000000 0.500000 -0.441674
O2    O     O_R   0.103010 0.337110 0.452470 -0.509609
O3    O     O_R   0.316670 0.095240 0.537470 -0.554956
O4    O     O_R   0.316670 0.904760 0.537470 -0.531990
O5    O     O_R   0.816670 0.595240 0.537470 -0.554959
O6    O     O_R   0.816670 0.404760 0.537470 -0.532033
O7    O     O_R   0.703490 0.904800 0.585920 -0.554803
O8    O     O_R   0.703490 0.095200 0.585920 -0.549648
O9    O     O_R   0.203490 0.404800 0.585920 -0.554841
O10   O     O_R   0.203490 0.595200 0.585920 -0.549619
O11   O     O_R   0.458050 0.000000 0.725250 -0.484683
O12   O     O_3   0.000010 0.500000 0.500000 -0.441661
O13   O     O_R   0.958050 0.500000 0.725250 -0.484719
O14   O     O_R   0.461630 0.932310 0.264690 -0.550630
O15   O     O_R   0.461630 0.067690 0.264690 -0.541759
O16   O     O_R   0.961630 0.432310 0.264690 -0.550646
O17   O     O_R   0.961630 0.567690 0.264690 -0.541766
O18   O     O_R   0.618750 0.000000 0.745380 -0.577916
O19   O     O_R   0.118750 0.500000 0.745380 -0.577913
O20   O     O_3   0.430028 0.921122 0.885407 -0.574888
O21   O     O_3   0.930021 0.421185 0.885464 -0.574885
O22   O     O_3   0.613081 0.978517 0.148492 -0.569072
O23   O     O_R   0.376880 0.837120 0.424150 -0.579829
O24   O     O_3   0.113078 0.478622 0.148480 -0.569106
O25   O     O_3   0.646436 0.053019 0.974778 -0.599553
O26   O     O_3   0.146477 0.553035 0.974758 -0.599561
O27   O     O_3   0.341255 0.722022 0.626336 -0.604364
O28   O     O_3   0.355865 0.289484 0.602518 -0.598065
O29   O     O_3   0.841315 0.221983 0.626255 -0.604503
O30   O     O_3   0.855887 0.789509 0.602466 -0.598039
O31   O     O_3   0.663910 0.278766 0.367857 -0.607283
O32   O     O_3   0.647467 0.708800 0.383580 -0.600832
O33   O     O_3   0.163937 0.778748 0.367845 -0.607252
O34   O     O_R   0.376880 0.162880 0.424150 -0.574366
O35   O     O_3   0.147458 0.208789 0.383600 -0.600817
O36   O     O_R   0.876880 0.337120 0.424150 -0.579780
O37   O     O_R   0.876880 0.662880 0.424150 -0.574392
O38   O     O_R   0.603010 0.162890 0.452470 -0.522196
O39   O     O_R   0.603010 0.837110 0.452470 -0.509626
O40   O     O_R   0.103010 0.662890 0.452470 -0.522252
Zn1   Zn    Zn3+2 0.485630 0.096680 0.411850 0.923859
Zn2   Zn    Zn3+2 0.485630 0.903320 0.411850 0.921332
Zn3   Zn    Zn3+2 0.985630 0.596680 0.411850 0.923837
Zn4   Zn    Zn3+2 0.985630 0.403320 0.411850 0.921349
Zn5   Zn    Zn3+2 0.399590 0.000000 0.573760 0.957563
Zn6   Zn    Zn3+2 0.899590 0.500000 0.573760 0.957511
Zn7   Zn    Zn3+2 0.629190 0.000000 0.602520 0.905425
Zn8   Zn    Zn3+2 0.129190 0.500000 0.602520 0.905405

loop_
_geom_bond_atom_site_label_1
_geom_bond_atom_site_label_2
_ccdc_geom_bond_type
O37   Zn3   S    
C32   H22   S    
C31   H20   S    
C44   H55   S    
C32   O24   S    
C49   H65   S    
C65   H102  S    
C28   H12   S    
C19   O30   S    
C69   H5    S    
C12   O34   A    
C41   H42   S    
O8    Zn7   S    
C42   H48   S    
C43   H53   S    
C46   H57   S    
C69   H6    S    
C34   O37   A    
C55   H80   S    
C40   H40   S    
C58   O31   S    
O1    Zn7   S    
C68   H3    S    
C66   H106  S    
C26   H96   S    
C26   C27   S    
C37   C38   S    
C48   O28   S    
C36   H31   S    
O10   Zn8   S    
C21   O28   S    
C22   O20   S    
C36   C37   S    
O13   Zn6   S    
C6    O19   A    
C4    O2    A    
C50   H68   S    
C42   H47   S    
C63   H97   S    
C12   O3    A    
C54   O30   S    
C61   H92   S    
C39   O26   S    
C53   H75   S    
C60   H91   S    
C26   H85   S    
C15   C17   D    
C11   C16   S    
C23   C67   S    
C38   H35   S    
C70   H9    S    
C68   O35   S    
C2    O7    A    
C72   O8    A    
C56   O35   S    
C6    C15   S    
C46   C47   S    
O12   Zn8   S    
C19   C71   D    
C39   H38   S    
C3    O40   A    
C57   H83   S    
C45   O33   S    
C22   H19   S    
C67   O31   S    
C25   H74   S    
C14   C16   D    
H49   N2    S    
C35   H26   S    
O19   Zn8   S    
C24   H30   S    
C20   C45   D    
C9    N1    S    
O14   Zn2   S    
C37   H32   S    
O12   Zn6   S    
C62   H95   S    
C2    C19   S    
C59   C60   S    
O11   Zn5   S    
C65   H103  S    
C28   H11   S    
C66   H104  S    
C8    O17   A    
C61   C62   S    
C59   H87   S    
O4    Zn5   S    
C41   H43   S    
C30   H17   S    
C35   H27   S    
C1    O4    A    
C44   C46   S    
C40   H39   S    
C23   O36   A    
C51   H69   S    
C18   C72   S    
C66   H105  S    
C43   N2    S    
C52   H71   S    
C47   H58   S    
O1    Zn1   S    
C51   C52   S    
C64   O33   S    
C18   O29   S    
C24   C25   S    
O12   Zn4   S    
C54   H78   S    
C58   H86   S    
C3    O10   A    
C39   C40   S    
O15   Zn1   S    
C50   H67   S    
C68   C69   S    
C63   H98   S    
O1    Zn5   S    
C58   C59   S    
C31   H21   S    
C70   H8    S    
C44   O27   S    
O23   Zn2   S    
C47   H59   S    
C36   H29   S    
C61   O32   S    
C38   H34   S    
C34   O5    A    
O36   Zn4   S    
C37   H33   S    
C62   C63   S    
O34   Zn1   S    
C23   O6    A    
O7    Zn7   S    
C59   H88   S    
C51   O29   S    
C63   H99   S    
O6    Zn6   S    
C39   H37   S    
C42   N1    S    
C31   H18   S    
C44   H54   S    
C26   O21   S    
C53   H73   S    
C60   H89   S    
C5    C14   S    
C3    C20   S    
C12   C56   S    
C52   C53   S    
C7    O14   A    
C17   O21   S    
C9    C11   D    
C43   H50   S    
C5    O11   A    
C29   H14   S    
O16   Zn4   S    
C58   H84   S    
O40   Zn3   S    
C40   C41   S    
C62   H94   S    
C49   H64   S    
C49   C50   S    
C52   H72   S    
C2    O39   A    
C22   C24   S    
O9    Zn8   S    
O1    Zn2   S    
C41   H44   S    
C7    O15   A    
C35   H28   S    
C27   H2    S    
C33   H24   S    
C43   H51   S    
C28   H13   S    
O18   Zn7   S    
O38   Zn1   S    
C51   H70   S    
C46   H56   S    
C7    C9    S    
C54   C55   S    
C48   C49   S    
C29   O22   S    
C70   H7    S    
C48   H61   S    
C4    O9    A    
C27   H10   S    
C42   H46   S    
O12   Zn3   S    
O17   Zn3   S    
C10   C13   D    
C16   O20   S    
C48   H62   S    
C21   C56   D    
C50   H66   S    
C55   H79   S    
C5    O18   A    
C68   H4    S    
C72   O38   A    
C57   H82   S    
O2    Zn4   S    
C20   O27   S    
C13   O24   S    
C13   C17   S    
C47   H60   S    
C10   N2    S    
C64   C65   S    
C55   C57   S    
C18   C67   D    
C65   C66   S    
C32   C33   S    
O39   Zn2   S    
C4    C21   S    
C1    C45   S    
C30   C31   S    
C57   H81   S    
C60   H90   S    
O5    Zn6   S    
C33   C35   S    
C8    O16   A    
C61   H93   S    
C36   O25   S    
C53   H76   S    
C38   H36   S    
C69   C70   S    
C25   H63   S    
C25   H52   S    
C64   H100  S    
C29   H15   S    
C15   O26   S    
C29   C30   S    
C24   H41   S    
C32   H23   S    
C8    C10   S    
C71   O32   S    
C14   O25   S    
C27   C28   S    
C22   H1    S    
C33   H25   S    
C64   H101  S    
C30   H16   S    
C34   C71   S    
C11   O22   S    
C6    O13   A    
C54   H77   S    
H45   N1    S    
O3    Zn5   S    
C1    O23   A    
