data_mof_unit_53885.cif
_audit_creation_date              2012-12-11T14:34:15-0500
_audit_creation_method            fapswitch 2.2
_symmetry_space_group_name_H-M    P1
_symmetry_Int_Tables_number       1
_space_group_crystal_system       triclinic
_cell_length_a                    13.941588
_cell_length_b                    14.014238
_cell_length_c                    27.339602
_cell_angle_alpha                 90.154742
_cell_angle_beta                  89.789675
_cell_angle_gamma                 119.684119
_cell_volume                      4640.60914512

loop_
_atom_site_label
_atom_site_type_symbol
_atom_type_description
_atom_site_fract_x
_atom_site_fract_y
_atom_site_fract_z
_atom_type_partial_charge
C1    C     C_R   0.236852 0.784922 0.570174 0.516153
C2    C     C_1   0.699687 0.854809 0.861637 0.057071
C3    C     C_3   0.741883 0.621511 0.796111 -0.001188
C4    C     C_3   0.368503 0.121887 0.803217 -0.012286
C5    C     C_3   0.875836 0.272570 0.797292 -0.019853
C6    C     C_3   0.621655 0.494703 0.213877 -0.148502
C7    C     C_3   0.504513 0.175739 0.234278 -0.145321
C8    C     C_3   0.847555 0.307258 0.218596 -0.148700
C9    C     C_3   0.848048 0.007026 0.651983 -0.005691
C10   C     C_3   0.031447 0.902967 0.662116 -0.002193
C11   C     C_3   0.182898 0.191359 0.636720 -0.047407
C12   C     C_3   0.675607 0.060808 0.683978 -0.133699
C13   C     C_1   0.150201 0.841043 0.863788 0.070363
C14   C     C_3   0.953219 0.656882 0.672839 -0.105580
C15   C     C_3   0.393383 0.351111 0.687854 -0.107198
C16   C     C_1   0.124996 0.248908 0.854257 0.041744
C17   C     C_1   0.601373 0.809480 0.662420 -0.026131
C18   C     C_1   0.193767 0.798784 0.662853 -0.026225
C19   C     C_1   0.215190 0.428470 0.666334 -0.039697
C20   C     C_1   0.581755 0.789216 0.619683 0.000214
C21   C     C_1   0.211070 0.795279 0.619865 -0.012621
C22   C     C_1   0.222255 0.458098 0.624530 -0.006621
C23   C     C_R   0.065519 0.151970 0.095954 0.570413
C24   C     C_R   0.231312 0.490433 0.574415 0.519473
C25   C     C_R   0.776831 0.883469 0.087911 0.551408
C26   C     C_R   0.116056 0.894033 0.088349 0.550335
C27   C     C_R   0.071536 0.163541 0.942890 0.550449
C28   C     C_R   0.780044 0.886756 0.950868 0.552431
C29   C     C_R   0.114510 0.892528 0.951698 0.551900
C30   C     C_R   0.618135 0.894176 0.360498 0.316829
C31   C     C_R   0.098147 0.729830 0.362577 0.319953
C32   C     C_R   0.267537 0.364978 0.362238 0.316308
C33   C     C_R   0.639074 0.905727 0.310288 0.015731
C34   C     C_R   0.082186 0.741873 0.312956 0.020329
C35   C     C_R   0.547503 0.762864 0.570129 0.519214
C36   C     C_R   0.245870 0.318630 0.315340 0.027073
C37   C     C_R   0.671270 0.921254 0.208598 0.033963
C38   C     C_R   0.063570 0.759677 0.211522 0.024681
C39   C     C_R   0.205915 0.241906 0.218329 0.028178
C40   C     C_R   0.232322 0.788438 0.431950 0.582833
C41   C     C_R   0.211692 0.444121 0.431737 0.594514
C42   C     C_R   0.555670 0.767122 0.431791 0.585723
C43   C     C_R   0.645880 0.993672 0.232983 -0.091240
C44   C     C_R   0.983666 0.667410 0.236785 -0.129418
C45   C     C_R   0.309809 0.278933 0.239342 -0.139711
C46   C     C_3   0.661550 0.733222 0.788570 0.600114
C47   C     C_R   0.630781 0.986714 0.283567 -0.065049
C48   C     C_R   0.993539 0.657889 0.287064 -0.076631
C49   C     C_R   0.329672 0.316480 0.287529 -0.087860
C50   C     C_R   0.697948 0.934847 0.158784 -0.135269
C51   C     C_R   0.053403 0.770842 0.161263 -0.127451
C52   C     C_R   0.186985 0.207814 0.169548 -0.119615
C53   C     C_R   0.721803 0.860409 0.135336 -0.024125
C54   C     C_R   0.135039 0.863008 0.136723 -0.024589
C55   C     C_R   0.085331 0.179274 0.147809 -0.026971
C56   C     C_R   0.654723 0.741209 0.362493 0.337967
C57   C     C_3   0.270088 0.930716 0.791045 0.609711
C58   C     C_R   0.257092 0.914552 0.363831 0.335007
C59   C     C_R   0.076586 0.324379 0.369239 0.331998
C60   C     C_R   0.671669 0.749344 0.312194 -0.033753
C61   C     C_R   0.246434 0.924557 0.313825 -0.032158
C62   C     C_R   0.055686 0.282931 0.321782 -0.037184
C63   C     C_R   0.661928 0.830533 0.285844 -0.070070
C64   C     C_R   0.160462 0.837082 0.288046 -0.066770
C65   C     C_R   0.140473 0.280488 0.294564 -0.066069
C66   C     C_R   0.691580 0.673162 0.287541 -0.053454
C67   C     C_R   0.325001 0.018263 0.288975 -0.073685
C68   C     C_3   0.063813 0.329657 0.788655 0.580618
C69   C     C_R   0.953650 0.251876 0.299921 -0.055392
C70   C     C_R   0.697430 0.673894 0.236578 0.250455
C71   C     C_R   0.324759 0.023215 0.237546 0.256646
C72   C     C_R   0.936832 0.223359 0.250502 0.255775
C73   C     C_R   0.692600 0.757922 0.210484 0.025018
C74   C     C_R   0.237114 0.935867 0.212161 0.035476
C75   C     C_R   0.018266 0.213810 0.224016 0.029882
C76   C     C_3   0.532152 0.832816 0.744829 -0.247885
C77   C     C_3   0.172331 0.705627 0.743581 -0.268760
C78   C     C_3   0.285948 0.462951 0.753328 -0.187600
C79   C     C_3   0.637768 0.729805 0.732629 0.284733
C80   C     C_R   0.675036 0.836440 0.234976 0.022290
C81   C     C_R   0.153615 0.844313 0.237272 0.024778
C82   C     C_R   0.120909 0.243565 0.245889 0.024595
C83   C     C_R   0.709456 0.767482 0.160416 -0.105855
C84   C     C_R   0.229526 0.940427 0.161700 -0.106570
C85   C     C_R   0.001002 0.180222 0.175306 -0.113568
C86   C     C_R   0.617582 0.806377 0.385886 0.017443
C87   C     C_R   0.190943 0.813105 0.387071 0.016156
C88   C     C_R   0.184332 0.372918 0.388361 0.014132
C89   C     C_3   0.737875 0.942449 0.724508 0.534226
C90   C     C_3   0.279800 0.911849 0.735161 0.299389
C91   C     C_3   0.068213 0.812076 0.727217 0.525647
C92   C     C_3   0.200364 0.268693 0.716644 0.551849
C93   C     C_3   0.766787 0.937539 0.779572 -0.216553
C94   C     C_3   0.064831 0.825632 0.783899 -0.209764
C95   C     C_3   0.147623 0.213042 0.766842 -0.168248
C96   C     C_1   0.731473 0.869376 0.903327 0.024970
C97   C     C_1   0.134149 0.859127 0.905118 0.029681
C98   C     C_1   0.101876 0.209409 0.894684 0.015458
C99   C     C_3   0.626828 0.830767 0.714819 -0.051671
C100  C     C_3   0.176244 0.805041 0.715708 -0.044661
C101  C     C_3   0.085191 0.364751 0.733768 0.261079
C102  C     C_3   0.199798 0.382513 0.716007 -0.062598
C103  C     C_3   0.554114 0.834015 0.800981 0.628862
C104  C     C_3   0.173903 0.722522 0.800093 0.608505
C105  C     C_3   0.269393 0.404637 0.803837 0.620805
C106  C     C_3   0.670460 0.841525 0.809365 -0.021187
C107  C     C_3   0.163875 0.828107 0.811300 -0.011316
C108  C     C_3   0.151618 0.298123 0.804869 0.010653
C109  C     C_3   0.608751 0.019930 0.823975 -0.099657
C110  C     C_3   0.987741 0.586785 0.820840 -0.117942
C111  C     C_3   0.398719 0.394456 0.856443 -0.022297
Cr1   Cr    Cr6+3 0.164410 0.584450 0.499910 1.125074
Cr2   Cr    Cr6+3 0.415550 0.579960 0.499910 1.121311
Cr3   Cr    Cr6+3 0.420040 0.835590 0.499910 1.123032
Cr4   Cr    Cr6+3 0.155170 0.075460 0.019960 1.033890
Cr5   Cr    Cr6+3 0.924540 0.079710 0.019960 1.030883
Cr6   Cr    Cr6+3 0.920290 0.844830 0.019960 1.023983
F1    F     F_    0.472468 0.732869 0.817906 -0.461251
F2    F     F_    0.719304 0.723531 0.705746 -0.605825
F3    F     F_    0.296788 0.002671 0.708073 -0.606869
F4    F     F_    0.001692 0.287211 0.704459 -0.612620
F5    F     F_    0.574343 0.642865 0.811454 -0.622755
F6    F     F_    0.361360 0.939289 0.815523 -0.593542
F7    F     F_    0.077431 0.417909 0.817231 -0.585366
F8    F     F_    0.277257 0.743679 0.815357 -0.460382
F9    F     F_    0.275909 0.478210 0.839987 -0.504947
F10   F     F_    0.590105 0.963131 0.383497 -0.585565
F11   F     F_    0.028055 0.634391 0.385711 -0.588259
F12   F     F_    0.371167 0.408245 0.380835 -0.590570
F13   F     F_    0.665050 0.663232 0.387769 -0.579758
F14   F     F_    0.338907 0.000477 0.388680 -0.581774
F15   F     F_    0.993040 0.323576 0.395489 -0.583014
H1    H     H_    0.452394 0.758683 0.735305 0.138402
H2    H     H_    0.612517 0.044587 0.301754 0.181023
H3    H     H_    0.932252 0.584318 0.305473 0.186918
H4    H     H_    0.411568 0.346604 0.302447 0.174946
H5    H     H_    0.723614 0.707343 0.141630 0.183875
H6    H     H_    0.293322 0.010190 0.142032 0.186164
H7    H     H_    0.922494 0.156977 0.158069 0.166278
H8    H     H_    0.700156 0.611156 0.307529 0.195974
H9    H     H_    0.387927 0.085738 0.309847 0.185899
H10   H     H_    0.888572 0.255539 0.320160 0.202353
H11   H     H_    0.521264 0.903006 0.734779 0.121545
H12   H     H_    0.245337 0.698193 0.732579 0.127555
H13   H     H_    0.101379 0.626356 0.733060 0.107358
H14   H     H_    0.371759 0.496136 0.740101 0.140993
H15   H     H_    0.795546 0.017894 0.797667 0.144219
H16   H     H_    0.985406 0.763858 0.799499 0.122120
H17   H     H_    0.189095 0.169462 0.781907 0.180438
H18   H     H_    0.841655 0.928507 0.781570 0.188239
H19   H     H_    0.062923 0.902486 0.792541 0.181989
H20   H     H_    0.060445 0.147021 0.761500 0.188110
H21   H     H_    0.558954 0.652950 0.724912 0.119855
H22   H     H_    0.354100 0.903270 0.729395 0.125333
H23   H     H_    0.275344 0.536223 0.757688 0.177085
H24   H     H_    0.082746 0.442553 0.729736 0.122514
H25   H     H_    0.622189 0.046339 0.785616 0.131329
H26   H     H_    0.685230 0.042500 0.844569 0.085435
H27   H     H_    0.572761 0.066395 0.841649 0.166509
H28   H     H_    0.964096 0.590311 0.782662 0.101373
H29   H     H_    0.960187 0.629110 0.846910 0.093854
H30   H     H_    0.942456 0.499129 0.831472 0.166072
H31   H     H_    0.334513 0.349508 0.884586 0.135282
H32   H     H_    0.444843 0.483521 0.865095 0.257074
H33   H     H_    0.458395 0.363933 0.858005 0.079739
H34   H     H_    0.705017 0.005075 0.139054 0.122778
H35   H     H_    0.679064 0.568100 0.768701 0.165174
H36   H     H_    0.716843 0.584898 0.833162 0.125699
H37   H     H_    0.818273 0.621797 0.785920 0.128912
H38   H     H_    0.361256 0.196214 0.798463 0.178231
H39   H     H_    0.427823 0.124995 0.775041 0.167979
H40   H     H_    0.401754 0.125507 0.840476 0.133108
H41   H     H_    0.794754 0.202661 0.787428 0.132639
H42   H     H_    0.892145 0.339782 0.771168 0.140460
H43   H     H_    0.870045 0.297739 0.835246 0.132103
H44   H     H_    0.548894 0.497809 0.199044 0.127847
H45   H     H_    0.980625 0.710837 0.141812 0.131884
H46   H     H_    0.604178 0.460383 0.251557 0.118082
H47   H     H_    0.635099 0.437569 0.190482 0.134363
H48   H     H_    0.533318 0.123000 0.251537 0.120408
H49   H     H_    0.499827 0.232044 0.261608 0.117294
H50   H     H_    0.567075 0.227275 0.206605 0.130058
H51   H     H_    0.922316 0.362015 0.196611 0.131959
H52   H     H_    0.846213 0.348673 0.253170 0.128635
H53   H     H_    0.774394 0.292588 0.196918 0.127727
H54   H     H_    0.895351 0.096452 0.659659 0.237108
H55   H     H_    0.773346 0.985140 0.630285 0.098127
H56   H     H_    0.252192 0.206796 0.148207 0.142176
H57   H     H_    0.898269 0.986776 0.627402 0.088228
H58   H     H_    0.941219 0.844602 0.662209 0.214478
H59   H     H_    0.076269 0.886720 0.632789 0.092556
H60   H     H_    0.041931 0.983837 0.653746 0.151994
H61   H     H_    0.230122 0.148185 0.643943 0.194292
H62   H     H_    0.235823 0.272551 0.619933 0.122565
H63   H     H_    0.119540 0.143238 0.608816 0.105961
H64   H     H_    0.627861 0.096824 0.700451 0.129619
H65   H     H_    0.616389 0.987992 0.663578 0.106086
H66   H     H_    0.734423 0.122945 0.657925 0.160007
H67   H     H_    0.639537 0.056699 0.212848 0.144313
H68   H     H_    0.990348 0.603804 0.676702 0.103803
H69   H     H_    0.984184 0.706986 0.639451 0.109641
H70   H     H_    0.864011 0.600414 0.666433 0.170818
H71   H     H_    0.463843 0.404818 0.711828 0.152772
H72   H     H_    0.374845 0.403498 0.664627 0.091230
H73   H     H_    0.422138 0.306804 0.663548 0.146286
H74   H     H_    0.914663 0.601769 0.217525 0.147931
H75   H     H_    0.376794 0.282616 0.217851 0.143222
O1    O     O_R   0.137150 0.468200 0.553200 -0.481112
O2    O     O_R   0.140110 0.470540 0.446010 -0.411712
O3    O     O_R   0.529460 0.669570 0.446010 -0.413045
O4    O     O_R   0.330430 0.859890 0.446010 -0.409217
O5    O     O_R   0.176710 0.690910 0.450560 -0.441086
O6    O     O_R   0.309090 0.485800 0.450560 -0.436762
O7    O     O_R   0.514200 0.823290 0.450560 -0.437271
O8    O     O_3   0.333333 0.666667 0.499990 -0.352287
O9    O     O_R   0.176750 0.985260 0.074180 -0.532471
O10   O     O_R   0.014740 0.191490 0.074180 -0.493769
O11   O     O_R   0.808510 0.823250 0.074180 -0.517010
O12   O     O_R   0.531800 0.668950 0.553200 -0.500782
O13   O     O_R   0.146100 0.172630 0.068980 -0.477764
O14   O     O_R   0.827370 0.973470 0.068980 -0.517759
O15   O     O_R   0.026530 0.853900 0.068980 -0.491714
O16   O     O_3   1.000000 0.000000 0.020040 -0.273181
O17   O     O_R   0.148270 0.170520 0.969620 -0.483099
O18   O     O_R   0.829480 0.977750 0.969620 -0.522238
O19   O     O_R   0.022250 0.851730 0.969620 -0.502850
O20   O     O_3   0.532465 0.907673 0.828749 -0.407208
O21   O     O_3   0.101272 0.625310 0.826533 -0.418041
O22   O     O_3   0.353674 0.375819 0.808889 -0.579744
O23   O     O_R   0.331050 0.862850 0.553200 -0.493492
O24   O     O_3   0.761271 0.730878 0.796610 -0.532343
O25   O     O_3   0.262769 0.027695 0.798494 -0.548667
O26   O     O_3   0.955712 0.238463 0.794888 -0.535733
O27   O     O_3   0.717906 0.598750 0.212493 -0.598021
O28   O     O_3   0.402179 0.113380 0.210487 -0.602157
O29   O     O_3   0.840729 0.205116 0.227958 -0.599690
O30   O     O_3   0.826014 0.946309 0.695892 -0.494309
O31   O     O_3   0.079121 0.911736 0.708164 -0.476647
O32   O     O_3   0.128654 0.196761 0.679538 -0.511799
O33   O     O_3   0.735016 0.043871 0.721749 -0.583784
O34   O     O_R   0.179100 0.982980 0.967000 -0.509283
O35   O     O_3   0.962872 0.717612 0.715866 -0.569153
O36   O     O_3   0.306016 0.273191 0.717276 -0.539462
O37   O     O_R   0.017020 0.196120 0.967000 -0.467407
O38   O     O_R   0.803880 0.820900 0.967000 -0.498854
O39   O     O_R   0.173970 0.688730 0.549930 -0.522987
O40   O     O_R   0.311270 0.485240 0.549930 -0.511577
O41   O     O_R   0.514760 0.826030 0.549930 -0.514284

loop_
_geom_bond_atom_site_label_1
_geom_bond_atom_site_label_2
_ccdc_geom_bond_type
Cr5   O37   S    
C92   O32   S    
C1    C21   S    
C101  C102  S    
C4    H39   S    
C77   H13   S    
C6    H47   S    
C78   C102  S    
C18   C21   T    
C5    H43   S    
C46   O24   S    
Cr3   O7    S    
C48   H3    S    
C11   H62   S    
Cr2   O6    S    
C13   C107  S    
C109  H25   S    
C27   O37   A    
C68   F7    S    
C54   C84   A    
C15   H72   S    
C110  H30   S    
C3    H35   S    
C27   C98   S    
C76   C99   S    
Cr1   O39   S    
C40   O4    A    
C27   O17   A    
C10   H58   S    
C4    H38   S    
C105  F9    S    
C89   C99   S    
C78   C105  S    
C4    O25   S    
C40   C87   S    
Cr4   O16   S    
C25   C53   S    
Cr2   O3    S    
C1    O39   A    
C46   C79   S    
C92   O36   S    
C78   H23   S    
C57   F6    S    
C103  O20   S    
C32   C88   A    
C14   H69   S    
C14   H70   S    
C17   C20   T    
C77   C100  S    
C26   O9    A    
C70   O27   S    
Cr1   O8    S    
Cr5   O14   S    
C23   O10   A    
C59   C88   A    
Cr2   O12   S    
C14   O35   S    
C20   C35   S    
C1    O23   A    
C75   C85   A    
Cr3   O41   S    
C104  F8    S    
C79   F2    S    
C26   O15   A    
C12   H65   S    
C25   O14   A    
C42   C86   S    
C71   O28   S    
C91   C100  S    
C90   H22   S    
C43   C47   A    
C85   H7    S    
C7    H50   S    
C52   C55   A    
C92   C102  S    
C39   C45   A    
C41   O2    A    
C8    H52   S    
C76   C103  S    
C39   C52   A    
C6    O27   S    
C84   H6    S    
C45   H75   S    
C5    H42   S    
Cr4   O34   S    
C58   C87   A    
C94   H16   S    
C12   H64   S    
C89   O33   S    
C25   O11   A    
C18   C100  S    
C29   O19   A    
C72   C75   A    
C9    H57   S    
C109  H26   S    
C26   C54   S    
C90   C100  S    
C32   F12   S    
C105  C108  S    
C110  H29   S    
C3    H36   S    
C104  O21   S    
C15   O36   S    
C63   C80   A    
C109  O20   S    
Cr6   O19   S    
C37   C80   A    
C7    O28   S    
C59   F15   S    
C50   C53   A    
C31   C87   A    
C57   C90   S    
C7    H49   S    
C31   F11   S    
C89   O30   S    
Cr4   O17   S    
C19   C22   T    
C111  H31   S    
C68   C101  S    
Cr1   O1    S    
C9    H54   S    
C95   C108  S    
C3    O24   S    
C57   O25   S    
C78   H14   S    
C36   C65   A    
C3    H37   S    
C38   C51   A    
C101  H24   S    
C69   H10   S    
Cr2   O40   S    
C14   H68   S    
C24   O1    A    
C92   C95   S    
C10   H60   S    
C72   O29   S    
C62   C69   A    
C90   F3    S    
Cr3   O4    S    
C55   C85   A    
C61   C64   A    
C38   C44   A    
C42   O7    A    
C93   C106  S    
C79   H21   S    
C41   O6    A    
C61   C67   A    
C56   C86   A    
C91   O35   S    
C45   C49   A    
C58   F14   S    
C33   C63   A    
C70   C73   A    
C34   C64   A    
C35   O41   A    
C31   C34   A    
C66   H8    S    
Cr6   O11   S    
C17   C99   S    
C15   H73   S    
C111  H33   S    
C8    O29   S    
C8    H51   S    
C57   C107  S    
C49   H4    S    
C10   O31   S    
C94   C107  S    
C60   C63   A    
C47   H2    S    
C9    O30   S    
C111  O22   S    
C22   C24   S    
C37   C43   A    
Cr6   O16   S    
C103  F1    S    
C30   C86   A    
Cr2   O8    S    
C74   C81   A    
C109  H27   S    
Cr1   O5    S    
C83   H5    S    
C69   C72   A    
C110  H28   S    
C77   C104  S    
C79   C99   S    
C62   C65   A    
C41   C88   S    
C30   F10   S    
C59   C62   A    
C89   C93   S    
C4    H40   S    
C30   C33   A    
C56   F13   S    
C5    O26   S    
Cr5   O18   S    
C5    H41   S    
Cr3   O8    S    
C111  H32   S    
C11   H61   S    
C39   C82   A    
C74   C84   A    
C9    H55   S    
C35   O12   A    
C28   O18   A    
Cr3   O23   S    
C71   C74   A    
C15   H71   S    
C76   H1    S    
C32   C36   A    
C75   C82   A    
C23   C55   S    
C95   H17   S    
Cr6   O38   S    
C8    H53   S    
C23   O13   A    
C68   C108  S    
C44   H74   S    
C40   O5    A    
C10   H59   S    
C29   C97   S    
Cr6   O15   S    
C28   C96   S    
C11   H63   S    
Cr1   O2    S    
C51   C54   A    
Cr5   O16   S    
C2    C96   T    
C42   O3    A    
C94   H19   S    
C77   H12   S    
C38   C81   A    
C110  O21   S    
C91   C94   S    
C93   H18   S    
C37   C50   A    
C16   C98   T    
C65   C82   A    
C66   C70   A    
C6    H44   S    
C58   C61   A    
C33   C47   A    
C53   C83   A    
C46   C106  S    
C91   O31   S    
C19   C102  S    
C73   C80   A    
C2    C106  S    
C7    H48   S    
C93   H15   S    
C103  C106  S    
C67   C71   A    
C28   O38   A    
Cr4   O9    S    
C13   C97   T    
C50   H34   S    
Cr4   O13   S    
C101  F4    S    
C64   C81   A    
C68   O26   S    
C16   C108  S    
C60   C66   A    
C76   H11   S    
C56   C60   A    
C12   O33   S    
C34   C48   A    
C29   O34   A    
C12   H66   S    
C46   F5    S    
C24   O40   A    
C43   H67   S    
C95   H20   S    
C52   H56   S    
Cr5   O10   S    
C51   H45   S    
C11   O32   S    
C73   C83   A    
C104  C107  S    
C6    H46   S    
C36   C49   A    
C44   C48   A    
C105  O22   S    
C67   H9    S    
