data_mof_unit_28770.cif
_audit_creation_date              2012-12-10T18:04:51-0500
_audit_creation_method            fapswitch 2.2
_symmetry_space_group_name_H-M    P1
_symmetry_Int_Tables_number       1
_space_group_crystal_system       triclinic
_cell_length_a                    10.880411
_cell_length_b                    9.619467
_cell_length_c                    17.685984
_cell_angle_alpha                 88.301677
_cell_angle_beta                  93.777179
_cell_angle_gamma                 87.95054
_cell_volume                      1844.92878452

loop_
_atom_site_label
_atom_site_type_symbol
_atom_type_description
_atom_site_fract_x
_atom_site_fract_y
_atom_site_fract_z
_atom_type_partial_charge
C1    C     C_R   0.262463 0.502198 0.503491 0.843034
C2    C     C_R   0.737372 0.498188 0.502157 0.886579
C3    C     C_1   0.445554 0.497520 0.964883 -0.025960
C4    C     C_1   0.460185 0.496424 0.032841 -0.031835
C5    C     C_R   0.072860 0.416654 0.560093 0.147655
C6    C     C_R   0.926817 0.588095 0.455310 0.141564
C7    C     C_R   0.943330 0.422789 0.563043 0.143054
C8    C     C_R   0.053633 0.604753 0.464580 0.147809
C9    C     C_R   0.511504 0.501469 0.355751 0.807342
C10   C     C_R   0.486301 0.499385 0.643610 0.849418
C11   C     C_R   0.871294 0.497863 0.505245 -0.183438
C12   C     C_R   0.128055 0.507295 0.509285 -0.185122
C13   C     C_R   0.441105 0.627525 0.842547 0.187227
C14   C     C_R   0.524124 0.374068 0.154417 0.223505
C15   C     C_R   0.491216 0.627072 0.149633 0.234637
C16   C     C_R   0.422023 0.375941 0.844491 0.186488
C17   C     C_R   0.443691 0.628212 0.762972 0.176401
C18   C     C_R   0.547002 0.376048 0.234596 0.194911
C19   C     C_R   0.528713 0.628710 0.227357 0.223015
C20   C     C_R   0.430149 0.376379 0.765291 0.166427
C21   C     C_R   0.455901 0.500421 0.725202 -0.235556
C22   C     C_R   0.528447 0.503233 0.271800 -0.309469
C23   C     C_R   0.425850 0.081044 0.448258 0.247309
C24   C     C_R   0.577266 0.918558 0.550481 0.269145
C25   C     C_R   0.584782 0.067840 0.545171 0.229803
C26   C     C_R   0.437039 0.932442 0.442739 0.218720
C27   C     C_R   0.435497 0.500377 0.883295 -0.072810
C28   C     C_R   0.485830 0.498448 0.113781 -0.111126
Cu1   Cu    Cu3+1 0.500000 0.640660 0.500000 0.968662
Cu2   Cu    Cu3+1 0.500000 0.359340 0.500000 0.995965
N1    N     N_R   0.500000 0.852070 0.500000 -0.219089
N2    N     N_R   0.500000 0.147930 0.500000 -0.204647
O1    O     O_R   0.319640 0.618740 0.499990 -0.570196
O2    O     O_R   0.680360 0.381260 0.500010 -0.548620
O3    O     O_R   0.680360 0.618740 0.500010 -0.569079
O4    O     O_R   0.319640 0.381260 0.499990 -0.537578
O5    O     O_R   0.500000 0.618830 0.391250 -0.562615
O6    O     O_R   0.500000 0.381170 0.608750 -0.535699
O7    O     O_R   0.500000 0.618830 0.608750 -0.526741
O8    O     O_R   0.500000 0.381170 0.391250 -0.539294
N3    N     N_2   0.438980 0.756120 0.880570 -0.426069
H1    H     H_    0.382094 0.759484 0.924890 0.255869
C29   C     C_3   0.559488 0.809565 0.899309 -0.747575
H2    H     H_    0.612945 0.737976 0.940740 0.229940
H3    H     H_    0.548951 0.913197 0.924690 0.233818
H4    H     H_    0.611444 0.821660 0.847671 0.230573
N4    N     N_2   0.541411 0.249286 0.114347 -0.412592
H5    H     H_    0.466420 0.225652 0.078940 0.249646
C30   C     C_3   0.656395 0.237752 0.077674 -0.714951
H6    H     H_    0.655803 0.311898 0.028354 0.225356
H7    H     H_    0.669057 0.130500 0.057220 0.222541
H8    H     H_    0.735537 0.259050 0.118108 0.233541
N5    N     N_2   0.474050 0.755555 0.106538 -0.414558
H9    H     H_    0.479416 0.751290 0.048889 0.258685
C31   C     C_3   0.377048 0.849838 0.128164 -0.695728
H10   H     H_    0.367622 0.941026 0.087881 0.216441
H11   H     H_    0.400296 0.889391 0.185229 0.250239
H12   H     H_    0.287914 0.796803 0.127092 0.212766
N6    N     N_2   0.404414 0.248276 0.884613 -0.418250
H13   H     H_    0.467613 0.228046 0.929994 0.254567
C32   C     C_3   0.279110 0.227640 0.903965 -0.710101
H14   H     H_    0.272446 0.121135 0.928960 0.226459
H15   H     H_    0.214527 0.238723 0.852661 0.223362
H16   H     H_    0.251553 0.304202 0.946117 0.225275
N7    N     N_2   0.423013 0.756639 0.720754 -0.380630
H17   H     H_    0.451981 0.843146 0.748563 0.272502
C33   C     C_3   0.298704 0.778762 0.686998 -0.646448
H18   H     H_    0.293508 0.874745 0.650268 0.208658
H19   H     H_    0.232880 0.791206 0.731993 0.208310
H20   H     H_    0.271546 0.690142 0.651492 0.231976
N8    N     N_2   0.603276 0.260563 0.279000 -0.408448
H21   H     H_    0.677078 0.284433 0.315378 0.248722
C34   C     C_3   0.604689 0.118616 0.254862 -0.635118
H22   H     H_    0.628713 0.048651 0.305039 0.194533
H23   H     H_    0.677341 0.101239 0.214857 0.248865
H24   H     H_    0.512824 0.092055 0.229632 0.241396
N9    N     N_2   0.591945 0.746795 0.254880 -0.403235
H25   H     H_    0.608788 0.748177 0.312304 0.294528
C35   C     C_3   0.704397 0.774871 0.218175 -0.703129
H26   H     H_    0.753684 0.859020 0.247316 0.209460
H27   H     H_    0.684487 0.810364 0.158335 0.262054
H28   H     H_    0.766365 0.680237 0.220514 0.212779
N10   N     N_2   0.397438 0.256613 0.724785 -0.374545
H29   H     H_    0.313114 0.219832 0.737266 0.265782
C36   C     C_3   0.490905 0.146891 0.727030 -0.653418
H30   H     H_    0.464034 0.073221 0.682452 0.210221
H31   H     H_    0.497852 0.090721 0.782983 0.232591
H32   H     H_    0.581706 0.189340 0.716019 0.225180
N11   N     N_2   0.355534 0.162670 0.391084 -0.354502
H33   H     H_    0.384830 0.157095 0.337069 0.255928
C37   C     C_3   0.222847 0.169896 0.394246 -0.665488
H34   H     H_    0.190060 0.280232 0.394562 0.235471
H35   H     H_    0.193516 0.114595 0.445342 0.213392
H36   H     H_    0.177907 0.125235 0.342817 0.186317
N12   N     N_2   0.669940 0.835929 0.593768 -0.353474
H37   H     H_    0.749638 0.818182 0.567023 0.257782
C38   C     C_3   0.691711 0.853999 0.674324 -0.727307
H38   H     H_    0.784653 0.895366 0.686834 0.199367
H39   H     H_    0.687828 0.751698 0.704497 0.243936
H40   H     H_    0.623000 0.925442 0.696293 0.215208
N13   N     N_2   0.695316 0.129673 0.571656 -0.340819
H41   H     H_    0.716585 0.120641 0.629131 0.243876
C39   C     C_3   0.799339 0.098475 0.526626 -0.682358
H42   H     H_    0.864207 0.021143 0.557212 0.185742
H43   H     H_    0.850144 0.192761 0.515399 0.251954
H44   H     H_    0.768918 0.060783 0.469923 0.204540
N14   N     N_2   0.420171 0.876586 0.369232 -0.392392
H45   H     H_    0.454697 0.936722 0.327318 0.226945
C40   C     C_3   0.301981 0.824879 0.345268 -0.627290
H46   H     H_    0.227247 0.900004 0.356534 0.220583
H47   H     H_    0.290665 0.722468 0.372539 0.283415
H48   H     H_    0.297109 0.807120 0.283608 0.187848
N15   N     N_2   0.148549 0.333554 0.613888 -0.407094
H49   H     H_    0.136213 0.357390 0.669426 0.241594
C41   C     C_3   0.154114 0.185309 0.600867 -0.694043
H50   H     H_    0.130829 0.125991 0.652540 0.191950
H51   H     H_    0.249102 0.153148 0.587691 0.260553
H52   H     H_    0.088591 0.157017 0.553433 0.211341
N16   N     N_2   0.854317 0.664022 0.396653 -0.419981
H53   H     H_    0.883805 0.648280 0.343258 0.233161
C42   C     C_3   0.826021 0.808946 0.410811 -0.668054
H54   H     H_    0.865791 0.877877 0.368039 0.190195
H55   H     H_    0.863494 0.837194 0.467593 0.231558
H56   H     H_    0.725028 0.828662 0.408199 0.238397
N17   N     N_2   0.885387 0.356595 0.623905 -0.412776
H57   H     H_    0.930631 0.268222 0.647404 0.268197
C43   C     C_3   0.845354 0.449773 0.680894 -0.712788
H58   H     H_    0.926289 0.496888 0.710391 0.215468
H59   H     H_    0.794898 0.390776 0.723157 0.216675
H60   H     H_    0.782074 0.533571 0.654979 0.236953
N18   N     N_2   0.103125 0.729380 0.437483 -0.417206
H61   H     H_    0.067568 0.764431 0.384656 0.249643
C44   C     C_3   0.114623 0.837960 0.492779 -0.678190
H62   H     H_    0.212116 0.866749 0.500707 0.251305
H63   H     H_    0.083675 0.804571 0.549031 0.220773
H64   H     H_    0.058861 0.932152 0.472406 0.192052

loop_
_geom_bond_atom_site_label_1
_geom_bond_atom_site_label_2
_ccdc_geom_bond_type
C2    O3    A    
C31   H10   S    
N13   H41   S    
N3    C29   S    
C34   H22   S    
C14   C18   A    
N12   H37   S    
C13   N3    S    
C38   H38   S    
C1    O1    A    
N4    C30   S    
N9    H25   S    
C15   C19   A    
C15   N5    S    
C40   H47   S    
C9    C22   S    
N7    C33   S    
C41   H50   S    
Cu1   O1    S    
N8    C34   S    
Cu2   O6    S    
C32   H15   S    
N3    H1    S    
C23   C26   A    
C19   N9    S    
C42   H56   S    
C38   H39   S    
N10   H29   S    
C41   H51   S    
C44   H64   S    
N14   H45   S    
C23   N11   S    
N11   C37   S    
C16   C20   A    
C2    O2    A    
C16   C27   A    
N16   C42   S    
N6    H13   S    
N13   C39   S    
N14   C40   S    
C1    C12   S    
C2    C11   S    
C4    C28   S    
N5    C31   S    
C10   C21   S    
N6    C32   S    
Cu2   O2    S    
C36   H31   S    
C33   H18   S    
C19   C22   A    
C24   C25   A    
C5    C12   A    
C24   N12   S    
C37   H34   S    
C35   H27   S    
C6    C8    A    
C30   H7    S    
C36   H30   S    
C9    O8    A    
C17   C21   A    
C3    C4    T    
C10   O7    A    
C33   H19   S    
C16   N6    S    
C32   H16   S    
C7    C11   A    
C29   H2    S    
C43   H59   S    
Cu1   Cu2   S    
C37   H35   S    
N4    H5    S    
C8    C12   A    
C41   H52   S    
Cu1   O7    S    
C8    N18   S    
C9    O5    A    
N9    C35   S    
Cu2   O8    S    
C39   H43   S    
C7    N17   S    
N17   C43   S    
C29   H3    S    
C42   H54   S    
N10   C36   S    
C43   H60   S    
N7    H17   S    
C31   H11   S    
N17   H57   S    
C34   H24   S    
C40   H48   S    
C34   H23   S    
C43   H58   S    
C6    N16   S    
C6    C11   A    
C38   H40   S    
C5    C7    A    
N15   H49   S    
C36   H32   S    
C18   N8    S    
C5    N15   S    
C18   C22   A    
C30   H8    S    
N18   C44   S    
C26   N14   S    
C20   N10   S    
C35   H28   S    
N16   H53   S    
N12   C38   S    
N5    H9    S    
C14   N4    S    
Cu2   O4    S    
Cu1   O3    S    
C17   N7    S    
C13   C17   A    
C10   O6    A    
C33   H20   S    
C23   N2    A    
C3    C27   S    
C24   N1    A    
N8    H21   S    
Cu1   N1    S    
C40   H46   S    
C37   H36   S    
Cu2   N2    S    
C25   N13   S    
C15   C28   A    
C44   H62   S    
C25   N2    A    
C39   H44   S    
C32   H14   S    
C29   H4    S    
C42   H55   S    
C35   H26   S    
C26   N1    A    
C20   C21   A    
C30   H6    S    
C31   H12   S    
Cu1   O5    S    
C39   H42   S    
C44   H63   S    
C13   C27   A    
C14   C28   A    
N11   H33   S    
N18   H61   S    
C1    O4    A    
N15   C41   S    
