data_mof_unit_11881.cif
_audit_creation_date              2012-12-10T16:33:53-0500
_audit_creation_method            fapswitch 2.2
_symmetry_space_group_name_H-M    P1
_symmetry_Int_Tables_number       1
_space_group_crystal_system       triclinic
_cell_length_a                    28.348807
_cell_length_b                    18.436291
_cell_length_c                    17.011249
_cell_angle_alpha                 89.543282
_cell_angle_beta                  60.291419
_cell_angle_gamma                 89.833862
_cell_volume                      7721.98410138

loop_
_atom_site_label
_atom_site_type_symbol
_atom_type_description
_atom_site_fract_x
_atom_site_fract_y
_atom_site_fract_z
_atom_type_partial_charge
C1    C     C_R   0.703142 0.271949 0.675199 0.914246
C2    C     C_R   0.298931 0.732984 0.323399 0.913981
C3    C     C_R   0.296119 0.274201 0.325431 0.920406
C4    C     C_R   0.699351 0.736696 0.676533 0.906757
C5    C     C_R   0.203144 0.771953 0.675197 0.914246
C6    C     C_R   0.798930 0.232983 0.323399 0.913980
C7    C     C_R   0.796119 0.774201 0.325431 0.920409
C8    C     C_R   0.199351 0.236696 0.676533 0.906756
C9    C     C_R   0.023862 0.378797 0.579910 -0.215674
C10   C     C_R   0.974767 0.621385 0.424599 -0.212369
C11   C     C_R   0.922382 0.385974 0.572927 -0.217229
C12   C     C_R   0.076111 0.614011 0.431089 -0.212596
C13   C     C_R   0.523862 0.878797 0.579910 -0.215670
C14   C     C_R   0.474767 0.121385 0.424599 -0.212370
C15   C     C_R   0.422382 0.885974 0.572926 -0.217224
C16   C     C_R   0.576110 0.114011 0.431090 -0.212597
C17   C     C_R   0.724942 0.281269 0.950425 0.057655
C18   C     C_R   0.291076 0.753522 0.029397 0.011794
C19   C     C_R   0.282727 0.267437 0.040595 0.026908
C20   C     C_R   0.724573 0.733573 0.946461 0.062304
C21   C     C_R   0.224955 0.781289 0.950411 0.057568
C22   C     C_R   0.791065 0.253488 0.029404 0.011815
C23   C     C_R   0.782725 0.767437 0.040597 0.026906
C24   C     C_R   0.224573 0.233571 0.946461 0.062331
C25   C     C_R   0.746500 0.212117 0.949943 0.035784
C26   C     C_R   0.269393 0.825034 0.035115 0.092211
C27   C     C_R   0.238137 0.217811 0.076355 0.073537
C28   C     C_R   0.777434 0.765543 0.901330 0.096963
C29   C     C_R   0.246540 0.712147 0.949891 0.035782
C30   C     C_R   0.769404 0.325011 0.035091 0.092156
C31   C     C_R   0.738137 0.717809 0.076355 0.073549
C32   C     C_R   0.277436 0.265538 0.901328 0.096933
C33   C     C_R   0.792415 0.209413 0.960201 0.192448
C34   C     C_R   0.240849 0.840485 0.986351 0.157626
C35   C     C_R   0.202243 0.220644 0.041032 0.165053
C36   C     C_R   0.796060 0.799885 0.955547 0.131249
C37   C     C_R   0.292451 0.709464 0.960162 0.192514
C38   C     C_R   0.740856 0.340467 0.986335 0.157559
C39   C     C_R   0.702244 0.720642 0.041032 0.165052
C40   C     C_R   0.296063 0.299881 0.955542 0.131246
C41   C     C_R   0.640049 0.322806 0.950643 0.571613
C42   C     C_R   0.353385 0.668631 0.057542 0.593571
C43   C     C_R   0.368378 0.308989 0.045103 0.570277
C44   C     C_R   0.657851 0.653953 0.925860 0.565613
C45   C     C_R   0.140055 0.822811 0.950638 0.571596
C46   C     C_R   0.853372 0.168604 0.057558 0.593561
C47   C     C_R   0.868376 0.808992 0.045105 0.570284
C48   C     C_R   0.157850 0.153954 0.925861 0.565621
C49   C     C_R   0.613407 0.343354 0.902136 -0.179117
C50   C     C_R   0.382209 0.651343 0.103094 -0.189140
C51   C     C_R   0.391540 0.336785 0.095705 -0.163017
C52   C     C_R   0.622691 0.643994 0.889985 -0.176312
C53   C     C_R   0.113409 0.843354 0.902136 -0.179134
C54   C     C_R   0.882203 0.151332 0.103100 -0.189137
C55   C     C_R   0.891539 0.836787 0.095706 -0.163020
C56   C     C_R   0.122690 0.143996 0.889986 -0.176317
C57   C     C_R   0.632193 0.320911 0.814968 -0.327877
C58   C     C_R   0.368712 0.681822 0.184564 -0.346777
C59   C     C_R   0.369888 0.319041 0.185186 -0.336960
C60   C     C_R   0.631222 0.680737 0.813768 -0.340537
C61   C     C_R   0.132193 0.820909 0.814969 -0.327880
C62   C     C_R   0.868710 0.181819 0.184564 -0.346780
C63   C     C_R   0.869888 0.819042 0.185187 -0.336965
C64   C     C_R   0.131221 0.180740 0.813770 -0.340542
C65   C     C_R   0.681884 0.287941 0.769679 -0.045704
C66   C     C_R   0.322779 0.723196 0.226368 -0.053871
C67   C     C_R   0.318758 0.290060 0.230313 -0.061077
C68   C     C_R   0.673939 0.727801 0.773749 -0.066677
C69   C     C_R   0.181889 0.787951 0.769675 -0.045704
C70   C     C_R   0.822775 0.223190 0.226370 -0.053873
C71   C     C_R   0.818758 0.790061 0.230314 -0.061077
C72   C     C_R   0.173938 0.227802 0.773749 -0.066674
C73   C     C_R   0.713130 0.276063 0.812686 -0.320977
C74   C     C_R   0.296827 0.747727 0.177419 -0.302750
C75   C     C_R   0.288443 0.280586 0.185467 -0.272045
C76   C     C_R   0.698887 0.753321 0.822636 -0.280595
C77   C     C_R   0.213141 0.776088 0.812674 -0.320870
C78   C     C_R   0.796819 0.247711 0.177423 -0.302733
C79   C     C_R   0.788441 0.780586 0.185469 -0.272042
C80   C     C_R   0.198888 0.253321 0.822636 -0.280605
C81   C     C_R   0.691853 0.292304 0.904611 0.010157
C82   C     C_R   0.315214 0.725385 0.087271 -0.015134
C83   C     C_R   0.313716 0.284939 0.090275 -0.017532
C84   C     C_R   0.693168 0.714234 0.898530 0.001549
C85   C     C_R   0.191863 0.792318 0.904601 0.010110
C86   C     C_R   0.815202 0.225358 0.087279 -0.015141
C87   C     C_R   0.813715 0.784941 0.090277 -0.017539
C88   C     C_R   0.193168 0.214234 0.898531 0.001552
C89   C     C_R   0.696531 0.127696 0.518291 0.911942
C90   C     C_R   0.303247 0.872260 0.482384 0.896789
C91   C     C_R   0.308858 0.129691 0.464164 0.908834
C92   C     C_R   0.691039 0.870222 0.536238 0.875477
C93   C     C_R   0.196531 0.627696 0.518291 0.911947
C94   C     C_R   0.803247 0.372260 0.482384 0.896792
C95   C     C_R   0.808858 0.629691 0.464164 0.908833
C96   C     C_R   0.191039 0.370222 0.536238 0.875477
C97   C     C_R   0.078350 0.093376 0.929074 0.950231
C98   C     C_R   0.931349 0.894528 0.061253 0.924209
C99   C     C_R   0.924280 0.097445 0.067908 0.955125
C100  C     C_R   0.071547 0.897484 0.936548 0.920836
C101  C     C_R   0.578351 0.593375 0.929073 0.950232
C102  C     C_R   0.431349 0.394528 0.061252 0.924207
C103  C     C_R   0.424282 0.597448 0.067906 0.955116
C104  C     C_R   0.571546 0.397485 0.936548 0.920845
C105  C     C_R   0.546329 0.998840 0.510972 0.016866
C106  C     C_R   0.452191 0.001305 0.493467 0.015545
C107  C     C_R   0.046329 0.498841 0.510972 0.016868
C108  C     C_R   0.952191 0.501305 0.493467 0.015547
C109  C     C_R   0.536348 0.059008 0.468427 0.049650
C110  C     C_R   0.462071 0.941155 0.536199 0.051166
C111  C     C_R   0.488382 0.061058 0.461491 0.043813
C112  C     C_R   0.510065 0.939141 0.543240 0.047469
C113  C     C_R   0.036348 0.559008 0.468427 0.049649
C114  C     C_R   0.962071 0.441156 0.536198 0.051158
C115  C     C_R   0.988382 0.561058 0.461491 0.043814
C116  C     C_R   0.010065 0.439141 0.543240 0.047467
C117  C     C_R   0.607742 0.936101 0.553037 0.078571
C118  C     C_R   0.391463 0.063771 0.449707 0.074147
C119  C     C_R   0.371207 0.940801 0.507906 0.065974
C120  C     C_R   0.627788 0.059106 0.494932 0.063261
C121  C     C_R   0.107742 0.436101 0.553037 0.078571
C122  C     C_R   0.891463 0.563771 0.449706 0.074149
C123  C     C_R   0.871207 0.440801 0.507906 0.065966
C124  C     C_R   0.127788 0.559106 0.494932 0.063260
C125  C     C_R   0.658353 0.935390 0.552100 -0.129361
C126  C     C_R   0.341255 0.064436 0.449413 -0.136991
C127  C     C_R   0.330446 0.938307 0.482231 -0.118245
C128  C     C_R   0.669005 0.061599 0.519487 -0.122008
C129  C     C_R   0.158352 0.435390 0.552100 -0.129361
C130  C     C_R   0.841255 0.564436 0.449413 -0.136990
C131  C     C_R   0.830446 0.438307 0.482231 -0.118249
C132  C     C_R   0.169005 0.561599 0.519487 -0.122011
C133  C     C_R   0.683944 0.999657 0.547021 -0.295302
C134  C     C_R   0.315724 0.000219 0.454300 -0.295881
C135  C     C_R   0.183944 0.499657 0.547021 -0.295300
C136  C     C_R   0.815724 0.500219 0.454299 -0.295880
C137  C     C_R   0.593477 0.998225 0.520562 0.075514
C138  C     C_R   0.405369 0.001782 0.482969 0.075164
C139  C     C_R   0.093476 0.498225 0.520562 0.075514
C140  C     C_R   0.905369 0.501782 0.482969 0.075165
C141  C     C_R   0.071701 0.377260 0.584118 -0.182354
C142  C     C_R   0.927442 0.622626 0.419039 -0.178722
C143  C     C_R   0.878040 0.385916 0.559177 -0.183979
C144  C     C_R   0.120759 0.613871 0.443816 -0.176568
C145  C     C_R   0.571701 0.877260 0.584119 -0.182354
C146  C     C_R   0.427442 0.122626 0.419039 -0.178722
C147  C     C_R   0.378040 0.885916 0.559177 -0.183998
C148  C     C_R   0.620758 0.113871 0.443817 -0.176566
H1    H     H_    0.718651 0.000273 0.557627 0.196691
H2    H     H_    0.281332 0.999593 0.442853 0.196863
H3    H     H_    0.218651 0.500273 0.557627 0.196691
H4    H     H_    0.781332 0.499593 0.442852 0.196863
H5    H     H_    0.079110 0.330343 0.615061 0.162804
H6    H     H_    0.920455 0.669353 0.387306 0.169126
H7    H     H_    0.848295 0.343454 0.592390 0.168263
H8    H     H_    0.150632 0.656011 0.409678 0.174051
H9    H     H_    0.579109 0.830343 0.615062 0.162804
H10   H     H_    0.420455 0.169353 0.387306 0.169126
H11   H     H_    0.348295 0.843453 0.592390 0.168254
H12   H     H_    0.650632 0.156011 0.409679 0.174052
H13   H     H_    0.999125 0.330728 0.604420 0.136818
H14   H     H_    0.999292 0.669655 0.400709 0.145345
H15   H     H_    0.923875 0.342130 0.613843 0.138207
H16   H     H_    0.074603 0.657762 0.390107 0.143038
H17   H     H_    0.499125 0.830728 0.604421 0.136814
H18   H     H_    0.499292 0.169655 0.400710 0.145345
H19   H     H_    0.423875 0.842130 0.613843 0.138206
H20   H     H_    0.574602 0.157763 0.390109 0.143037
H21   H     H_    0.609897 0.334026 0.780128 0.204026
H22   H     H_    0.390212 0.666305 0.220003 0.200599
H23   H     H_    0.390913 0.333701 0.221458 0.202190
H24   H     H_    0.608070 0.667375 0.780684 0.197881
H25   H     H_    0.109892 0.834014 0.780135 0.204024
H26   H     H_    0.890215 0.166312 0.219999 0.200595
H27   H     H_    0.890912 0.833701 0.221458 0.202190
H28   H     H_    0.108068 0.167379 0.780686 0.197878
H29   H     H_    0.754171 0.255306 0.774667 0.165225
H30   H     H_    0.260905 0.780624 0.211303 0.199767
H31   H     H_    0.245302 0.271796 0.225499 0.171036
H32   H     H_    0.724225 0.800808 0.798291 0.164539
H33   H     H_    0.254186 0.755349 0.774645 0.165191
H34   H     H_    0.760898 0.280611 0.211303 0.199760
H35   H     H_    0.745301 0.771796 0.225501 0.171040
H36   H     H_    0.224228 0.300806 0.798288 0.164538
O1    O     O_R   0.746490 0.236330 0.638080 -0.649401
O2    O     O_R   0.253510 0.763670 0.361920 -0.646334
O3    O     O_R   0.253510 0.236330 0.361920 -0.636850
O4    O     O_R   0.746490 0.763670 0.638080 -0.628510
O5    O     O_R   0.246490 0.736330 0.638080 -0.649403
O6    O     O_R   0.753510 0.263670 0.361920 -0.646335
O7    O     O_R   0.753510 0.736330 0.361920 -0.636850
O8    O     O_R   0.246490 0.263670 0.638080 -0.628510
O9    O     O_R   0.674170 0.186160 0.516270 -0.633297
O10   O     O_R   0.325830 0.813840 0.483730 -0.639348
O11   O     O_R   0.325830 0.186160 0.483730 -0.628803
O12   O     O_R   0.674170 0.813840 0.516270 -0.637700
O13   O     O_R   0.174170 0.686160 0.516270 -0.633295
O14   O     O_R   0.825830 0.313840 0.483730 -0.639347
O15   O     O_R   0.825830 0.686160 0.483730 -0.628803
O16   O     O_R   0.174170 0.313840 0.516270 -0.637700
O17   O     O_R   0.739960 0.127620 0.525000 -0.627692
O18   O     O_R   0.260040 0.872380 0.475000 -0.631220
O19   O     O_R   0.260040 0.127620 0.475000 -0.618896
O20   O     O_R   0.739960 0.872380 0.525000 -0.629582
O21   O     O_R   0.239960 0.627620 0.525000 -0.627690
O22   O     O_R   0.760040 0.372380 0.475000 -0.631218
O23   O     O_R   0.760040 0.627620 0.475000 -0.618896
O24   O     O_R   0.239960 0.372380 0.525000 -0.629581
O25   O     O_R   0.680700 0.294870 0.629350 -0.624039
O26   O     O_R   0.319300 0.705130 0.370650 -0.625134
O27   O     O_R   0.319300 0.294870 0.370650 -0.634070
O28   O     O_R   0.680700 0.705130 0.629350 -0.629449
O29   O     O_R   0.180700 0.794870 0.629350 -0.624037
O30   O     O_R   0.819300 0.205130 0.370650 -0.625129
O31   O     O_R   0.819300 0.794870 0.370650 -0.634071
O32   O     O_R   0.180700 0.205130 0.629350 -0.629449
O33   O     O_R   0.062020 0.072840 0.007170 -0.577606
O34   O     O_R   0.937980 0.927160 0.992830 -0.573890
O35   O     O_R   0.937980 0.072840 0.992830 -0.553650
O36   O     O_R   0.062020 0.927160 0.007170 -0.556070
O37   O     O_R   0.562020 0.572840 0.007170 -0.577611
O38   O     O_R   0.437980 0.427160 0.992830 -0.573904
O39   O     O_R   0.437980 0.572840 0.992830 -0.553636
O40   O     O_R   0.562020 0.427160 0.007170 -0.556076
O41   O     O_R   0.947860 0.073950 0.109290 -0.640835
O42   O     O_R   0.052140 0.926050 0.890710 -0.638024
O43   O     O_R   0.052140 0.073950 0.890710 -0.642608
O44   O     O_R   0.947860 0.926050 0.109290 -0.634389
O45   O     O_R   0.447860 0.573950 0.109290 -0.640834
O46   O     O_R   0.552140 0.426050 0.890710 -0.638031
O47   O     O_R   0.552140 0.573950 0.890710 -0.642606
O48   O     O_R   0.447860 0.426050 0.109290 -0.634384
Zn1   Zn    Zn3+2 0.792340 0.208750 0.507670 0.938683
Zn2   Zn    Zn3+2 0.207660 0.791250 0.492330 0.948617
Zn3   Zn    Zn3+2 0.207660 0.208750 0.492330 0.943162
Zn4   Zn    Zn3+2 0.792340 0.791250 0.507670 0.944269
Zn5   Zn    Zn3+2 0.292340 0.708750 0.507670 0.938680
Zn6   Zn    Zn3+2 0.707660 0.291250 0.492330 0.948617
Zn7   Zn    Zn3+2 0.707660 0.708750 0.492330 0.943164
Zn8   Zn    Zn3+2 0.292340 0.291250 0.507670 0.944271
Zn9   Zn    Zn3+2 0.505960 0.500000 0.080520 1.012500
Zn10  Zn    Zn3+2 0.494040 0.500000 0.919480 1.007642
Zn11  Zn    Zn3+2 0.005960 0.000000 0.080520 1.012503
Zn12  Zn    Zn3+2 0.994040 0.000000 0.919480 1.007642
C149  C     C_3   0.733500 0.418315 0.962704 -0.328132
C150  C     C_3   0.778023 0.438414 0.867172 -0.907782
H37   H     H_    0.818574 0.433776 0.861883 0.253777
H38   H     H_    0.776571 0.402345 0.816469 0.264229
H39   H     H_    0.772290 0.495283 0.851515 0.276653
H40   H     H_    0.693501 0.426636 0.967774 0.256082
H41   H     H_    0.734243 0.458768 0.009418 0.225850
C151  C     C_3   0.345109 0.702440 0.868576 -0.332853
C152  C     C_3   0.389826 0.756781 0.852939 -0.846664
H42   H     H_    0.374435 0.813171 0.859762 0.245420
H43   H     H_    0.404821 0.747698 0.901234 0.272424
H44   H     H_    0.424660 0.750320 0.783354 0.234153
H45   H     H_    0.361012 0.646284 0.857697 0.256880
H46   H     H_    0.336582 0.711974 0.812019 0.164497
C153  C     C_3   0.321523 0.375054 0.927586 -0.305109
C154  C     C_3   0.285476 0.427282 0.910574 -0.939285
H47   H     H_    0.281408 0.409581 0.851991 0.254229
H48   H     H_    0.244521 0.430560 0.971576 0.269881
H49   H     H_    0.304101 0.482147 0.895170 0.264744
H50   H     H_    0.326832 0.400109 0.981707 0.235377
H51   H     H_    0.361935 0.372140 0.865570 0.240809
C155  C     C_3   0.641517 0.723814 0.108238 -0.399550
C156  C     C_3   0.617808 0.797180 0.103549 -0.895079
H52   H     H_    0.640449 0.841841 0.113702 0.264067
H53   H     H_    0.619780 0.804700 0.037187 0.262569
H54   H     H_    0.574572 0.800009 0.157534 0.258748
H55   H     H_    0.618061 0.680184 0.099502 0.264646
H56   H     H_    0.634099 0.717297 0.178515 0.196889
C157  C     C_3   0.233501 0.918333 0.962709 -0.328054
C158  C     C_3   0.278082 0.938457 0.867231 -0.907857
H57   H     H_    0.318602 0.933890 0.862074 0.253763
H58   H     H_    0.276720 0.902351 0.816477 0.264217
H59   H     H_    0.272331 0.995305 0.851534 0.276662
H60   H     H_    0.193535 0.926638 0.967652 0.256002
H61   H     H_    0.234173 0.958778 0.009493 0.225887
C159  C     C_3   0.845063 0.202344 0.868608 -0.332795
C160  C     C_3   0.889800 0.256669 0.852918 -0.846633
H62   H     H_    0.874425 0.313066 0.859709 0.245386
H63   H     H_    0.904801 0.247601 0.901206 0.272441
H64   H     H_    0.924626 0.250174 0.783332 0.234146
H65   H     H_    0.860948 0.146180 0.857757 0.256876
H66   H     H_    0.836530 0.211863 0.812056 0.164491
C161  C     C_3   0.821512 0.875062 0.927604 -0.305100
C162  C     C_3   0.785459 0.927282 0.910597 -0.939318
H67   H     H_    0.781426 0.909609 0.851971 0.254227
H68   H     H_    0.744490 0.930510 0.971576 0.269881
H69   H     H_    0.804055 0.982164 0.895267 0.264753
H70   H     H_    0.826816 0.900115 0.981731 0.235371
H71   H     H_    0.861925 0.872159 0.865589 0.240814
C163  C     C_3   0.141517 0.223816 0.108238 -0.399565
C164  C     C_3   0.117805 0.297176 0.103538 -0.895056
H72   H     H_    0.140448 0.341844 0.113676 0.264068
H73   H     H_    0.119772 0.304684 0.037178 0.262566
H74   H     H_    0.074570 0.300008 0.157527 0.258744
H75   H     H_    0.118062 0.180179 0.099509 0.264648
H76   H     H_    0.134099 0.217308 0.178515 0.196887
C165  C     C_3   0.728304 0.143076 0.924797 -0.422633
C166  C     C_3   0.670433 0.122806 0.996262 -0.789548
H77   H     H_    0.667444 0.117014 0.063651 0.260375
H78   H     H_    0.641203 0.164666 0.999984 0.269949
H79   H     H_    0.659229 0.070282 0.978397 0.238857
H80   H     H_    0.731318 0.147546 0.857562 0.210822
H81   H     H_    0.755167 0.097363 0.920248 0.213999
C167  C     C_3   0.282426 0.885746 0.081571 -0.413216
C168  C     C_3   0.232006 0.910293 0.168873 -0.858715
H82   H     H_    0.208112 0.950653 0.154697 0.259960
H83   H     H_    0.204802 0.863947 0.205422 0.262154
H84   H     H_    0.244707 0.936003 0.214261 0.243829
H85   H     H_    0.314521 0.869545 0.097175 0.214779
H86   H     H_    0.301051 0.932561 0.034866 0.205142
C169  C     C_3   0.232099 0.153872 0.138076 -0.403106
C170  C     C_3   0.283262 0.107042 0.097958 -0.818935
H87   H     H_    0.293141 0.087595 0.029810 0.261156
H88   H     H_    0.318366 0.137657 0.092545 0.269655
H89   H     H_    0.276359 0.059330 0.142505 0.245663
H90   H     H_    0.220463 0.169909 0.207636 0.199283
H91   H     H_    0.198537 0.117955 0.145930 0.219134
C171  C     C_3   0.817305 0.757477 0.800435 -0.393938
C172  C     C_3   0.825153 0.678159 0.770782 -0.797498
H92   H     H_    0.835719 0.644809 0.814550 0.257965
H93   H     H_    0.788044 0.655774 0.773811 0.264206
H94   H     H_    0.858775 0.674162 0.699736 0.249297
H95   H     H_    0.806510 0.790792 0.757574 0.197958
H96   H     H_    0.858000 0.777402 0.784685 0.218780
C173  C     C_3   0.228374 0.643101 0.924703 -0.422594
C174  C     C_3   0.170508 0.622786 0.996146 -0.789578
H97   H     H_    0.167513 0.616982 0.063538 0.260377
H98   H     H_    0.141265 0.664628 0.999878 0.269933
H99   H     H_    0.159328 0.570258 0.978250 0.238859
H100  H     H_    0.231394 0.647581 0.857465 0.210810
H101  H     H_    0.255253 0.597402 0.920139 0.214007
C175  C     C_3   0.782461 0.385721 0.081518 -0.413183
C176  C     C_3   0.732052 0.410301 0.168815 -0.858738
H102  H     H_    0.708175 0.450684 0.154630 0.259955
H103  H     H_    0.704829 0.363975 0.205375 0.262163
H104  H     H_    0.744765 0.435994 0.214197 0.243833
H105  H     H_    0.814553 0.369505 0.097124 0.214787
H106  H     H_    0.801103 0.432522 0.034793 0.205115
C177  C     C_3   0.732098 0.653872 0.138079 -0.403120
C178  C     C_3   0.783264 0.607047 0.097969 -0.818930
H107  H     H_    0.793147 0.587595 0.029822 0.261149
H108  H     H_    0.818365 0.637667 0.092559 0.269656
H109  H     H_    0.776361 0.559339 0.142521 0.245662
H110  H     H_    0.720457 0.669912 0.207640 0.199282
H111  H     H_    0.698540 0.617952 0.145926 0.219136
C179  C     C_3   0.317306 0.257465 0.800434 -0.393938
C180  C     C_3   0.325146 0.178147 0.770783 -0.797495
H112  H     H_    0.335703 0.144791 0.814559 0.257964
H113  H     H_    0.288038 0.155772 0.773801 0.264207
H114  H     H_    0.358773 0.174145 0.699740 0.249295
H115  H     H_    0.306515 0.290784 0.757571 0.197959
H116  H     H_    0.358003 0.277382 0.784683 0.218782
F1    F     F_    0.617643 0.336896 0.040495 -0.675610
F2    F     F_    0.359132 0.624577 0.990417 -0.694408
F3    F     F_    0.398873 0.307531 0.953504 -0.696127
F4    F     F_    0.660171 0.602428 0.981450 -0.699459
F5    F     F_    0.117652 0.836906 0.040489 -0.675580
F6    F     F_    0.859111 0.124534 0.990451 -0.694408
F7    F     F_    0.898870 0.807538 0.953505 -0.696123
F8    F     F_    0.160171 0.102428 0.981450 -0.699459

loop_
_geom_bond_atom_site_label_1
_geom_bond_atom_site_label_2
_ccdc_geom_bond_type
O1    Zn1   S    
C149  H40   S    
O5    Zn5   S    
C79   C87   A    
C176  H102  S    
O38   Zn10  S    
C151  H46   S    
C165  C166  S    
C160  H64   S    
C13   C112  A    
C96   O24   A    
C30   C38   A    
C158  H57   S    
C148  H12   S    
C159  H65   S    
C107  C113  A    
C103  O39   A    
O6    Zn6   S    
C77   H33   S    
C173  H100  S    
C75   H31   S    
C98   O44   A    
C50   C103  S    
C10   H14   S    
C149  C150  S    
C102  O48   A    
C59   H23   S    
C46   F6    S    
C41   C49   A    
C136  H4    S    
C16   C109  A    
C43   F3    S    
C52   C101  S    
C174  H97   S    
O48   Zn9   S    
C162  H69   S    
C57   C65   A    
C20   C28   A    
C159  H66   S    
C27   C35   A    
C38   C149  S    
C21   C29   A    
C170  H87   S    
C23   C31   A    
C24   C32   A    
O18   Zn2   S    
C91   O11   A    
O42   Zn12  S    
C74   H30   S    
C89   O9    A    
C120  C128  A    
C44   F4    S    
C133  H1    S    
O22   Zn6   S    
C105  C112  A    
C63   C71   A    
C120  C148  A    
C98   O34   A    
O30   Zn1   S    
C176  H104  S    
C102  O38   A    
C152  H43   S    
C9    C116  A    
C175  C176  S    
C8    O32   A    
C3    O3    A    
C1    O1    A    
C145  H9    S    
C157  H60   S    
C17   C25   A    
C4    O4    A    
C5    O5    A    
C80   C88   A    
C8    O8    A    
C92   O12   A    
C93   O13   A    
C42   F2    S    
C55   C98   S    
C18   C82   S    
C179  C180  S    
O28   Zn7   S    
C167  H85   S    
C126  C134  A    
O20   Zn4   S    
C23   C36   A    
O32   Zn3   S    
C78   H34   S    
C118  C138  A    
C11   C143  A    
C47   C87   A    
C96   C129  S    
C113  C115  A    
C26   C167  S    
C43   C83   A    
C124  C139  A    
C69   C77   A    
C180  H112  S    
C94   O22   A    
C127  C134  A    
C13   C145  A    
C43   C51   A    
C92   C125  S    
C49   C104  S    
C71   C79   A    
C180  H114  S    
C164  H73   S    
O37   Zn9   S    
C51   C102  S    
C62   C70   A    
C169  H90   S    
C170  H89   S    
C108  C115  A    
C170  H88   S    
C155  H55   S    
C109  C111  A    
C152  H42   S    
C156  H54   S    
O40   Zn9   S    
O8    Zn8   S    
C165  H81   S    
C66   C74   A    
C49   C57   A    
C124  C132  A    
C175  H106  S    
C52   C60   A    
C59   C67   A    
C129  C135  A    
C53   C61   A    
C171  H96   S    
C55   C63   A    
C95   C130  S    
C1    C65   S    
C56   C64   A    
O34   Zn12  S    
C64   H28   S    
C93   C132  S    
C44   C52   A    
C77   C85   A    
C27   C169  S    
C15   H19   S    
C48   F8    S    
C56   C97   S    
C19   C83   S    
C41   F1    S    
C106  C111  A    
C168  H83   S    
C3    O27   A    
O36   Zn11  S    
C166  H78   S    
C1    O25   A    
C159  C160  S    
C131  C136  A    
O43   Zn12  S    
C4    C68   S    
C161  H71   S    
C172  H93   S    
C162  H68   S    
C144  H8    S    
C32   C179  S    
O46   Zn10  S    
C143  H7    S    
C11   H15   S    
C142  H6    S    
C100  O42   A    
C60   C68   A    
C42   C50   A    
C20   C84   S    
C54   C99   S    
C67   C75   A    
C96   O16   A    
C105  C109  A    
C150  H37   S    
C22   C30   A    
C119  C138  A    
O31   Zn4   S    
C154  H47   S    
C2    C66   S    
O14   Zn1   S    
C152  H44   S    
C114  C116  A    
C156  H52   S    
C146  H10   S    
C160  H63   S    
C44   C84   A    
C30   C175  S    
C121  C139  A    
C122  C140  A    
C163  H75   S    
C72   C80   A    
C141  H5    S    
C179  H115  S    
C79   H35   S    
C158  H58   S    
C17   C38   A    
C80   H36   S    
C107  C139  A    
C110  C112  A    
C107  C116  A    
C19   C40   A    
C105  C137  A    
C29   C173  S    
C178  H107  S    
C100  O36   A    
C91   O19   A    
C161  H70   S    
C151  C152  S    
C90   O18   A    
C117  C125  A    
C104  O40   A    
C25   C33   A    
O2    Zn2   S    
O12   Zn7   S    
C119  C127  A    
C103  O45   A    
C28   C171  S    
C158  H59   S    
C18   C26   A    
O16   Zn3   S    
C76   C84   A    
C150  H39   S    
C174  H98   S    
C47   F7    S    
C163  C164  S    
C119  C147  A    
C2    O2    A    
O35   Zn12  S    
C117  C145  A    
C10   C142  A    
C108  C114  A    
C5    C69   S    
C174  H99   S    
C90   C127  S    
C48   C88   A    
C92   O20   A    
O23   Zn7   S    
C171  C172  S    
C149  H41   S    
C147  H11   S    
C169  C170  S    
C9    H13   S    
C15   C110  A    
C7    O7    A    
C74   C82   A    
C154  H49   S    
C176  H103  S    
C151  H45   S    
C53   C100  S    
C95   O23   A    
C21   C85   S    
C8    C72   S    
C50   C58   A    
O26   Zn5   S    
C121  C141  A    
O47   Zn10  S    
C153  H50   S    
C164  H72   S    
C20   C39   A    
C21   C34   A    
C54   C62   A    
C172  H92   S    
O19   Zn3   S    
C12   H16   S    
O45   Zn9   S    
C13   H17   S    
C161  C162  S    
C90   O10   A    
C178  H109  S    
C41   C81   A    
C46   C54   A    
C173  H101  S    
O21   Zn5   S    
C24   C88   S    
C99   O41   A    
C167  H86   S    
C73   C81   A    
C97   O43   A    
C99   O35   A    
C97   O33   A    
C68   C76   A    
O29   Zn2   S    
C101  O37   A    
C6    C70   S    
C33   C159  S    
C123  C131  A    
C121  C129  A    
C76   H32   S    
C180  H113  S    
O41   Zn11  S    
C37   C151  S    
C94   C131  S    
C155  H56   S    
O15   Zn4   S    
C15   C147  A    
C156  H53   S    
C75   C83   A    
O44   Zn11  S    
C165  H80   S    
C135  H3    S    
C177  H111  S    
C45   F5    S    
C17   C81   S    
C22   C86   S    
C34   C157  S    
C31   C177  S    
C35   C163  S    
C28   C36   A    
C29   C37   A    
C120  C137  A    
C36   C161  S    
C7    O31   A    
C89   C128  S    
C134  H2    S    
C89   O17   A    
C177  C178  S    
C91   C126  S    
C70   C78   A    
C173  C174  S    
C42   C82   A    
C93   O21   A    
O24   Zn8   S    
C39   C155  S    
C168  H82   S    
C166  H79   S    
C157  H61   S    
C58   H22   S    
C18   C37   A    
C7    C71   S    
C106  C138  A    
O39   Zn10  S    
C62   H26   S    
C25   C165  S    
C65   C73   A    
C11   C114  A    
O17   Zn1   S    
C104  O46   A    
C58   C66   A    
C6    O30   A    
C19   C27   A    
O4    Zn4   S    
C73   H29   S    
C78   C86   A    
C32   C40   A    
C5    O29   A    
C23   C87   S    
C177  H110  S    
C130  C136  A    
C40   C153  S    
C26   C34   A    
C164  H74   S    
C57   H21   S    
O7    Zn7   S    
C14   C111  A    
O9    Zn6   S    
C150  H38   S    
C2    O26   A    
C24   C35   A    
C60   H24   S    
O11   Zn8   S    
C118  C146  A    
C61   H25   S    
O25   Zn6   S    
C154  H48   S    
C108  C140  A    
C9    C141  A    
C160  H62   S    
C117  C137  A    
C123  C140  A    
C12   C144  A    
C94   O14   A    
C45   C85   A    
O33   Zn11  S    
C163  H76   S    
C175  H105  S    
C153  H51   S    
C171  H95   S    
C179  H116  S    
C125  C133  A    
C6    O6    A    
C157  C158  S    
C101  O47   A    
C178  H108  S    
C51   C59   A    
C122  C142  A    
C153  C154  S    
C167  C168  S    
C47   C55   A    
C12   C113  A    
C106  C110  A    
C168  H84   S    
C61   C69   A    
C48   C56   A    
C22   C33   A    
C166  H77   S    
O27   Zn8   S    
C3    C67   S    
O13   Zn2   S    
C63   H27   S    
C14   C146  A    
C4    O28   A    
C16   C148  A    
C172  H94   S    
C162  H67   S    
C128  C133  A    
C169  H91   S    
C16   H20   S    
C132  C135  A    
C31   C39   A    
C64   C72   A    
O10   Zn5   S    
C155  C156  S    
C45   C53   A    
C95   O15   A    
C14   H18   S    
C123  C143  A    
C124  C144  A    
C118  C126  A    
C122  C130  A    
O3    Zn3   S    
C10   C115  A    
C46   C86   A    
