data_mof_unit_46526.cif
_audit_creation_date              2012-12-10T18:05:51-0500
_audit_creation_method            fapswitch 2.2
_symmetry_space_group_name_H-M    P1
_symmetry_Int_Tables_number       1
_space_group_crystal_system       triclinic
_cell_length_a                    12.600201
_cell_length_b                    13.051431
_cell_length_c                    15.013528
_cell_angle_alpha                 90.47965
_cell_angle_beta                  103.113356
_cell_angle_gamma                 81.997034
_cell_volume                      2380.49233202

loop_
_atom_site_label
_atom_site_type_symbol
_atom_type_description
_atom_site_fract_x
_atom_site_fract_y
_atom_site_fract_z
_atom_type_partial_charge
C1    C     C_R   0.438375 0.691688 0.493607 0.994982
C2    C     C_R   0.598824 0.477272 0.112976 0.023084
C3    C     C_R   0.301528 0.559523 0.007795 -0.159635
C4    C     C_R   0.303233 0.560811 0.915760 -0.133844
C5    C     C_R   0.402452 0.532662 0.888557 0.023796
C6    C     C_R   0.501709 0.504505 0.954304 -0.129501
C7    C     C_R   0.602445 0.475741 0.927687 -0.160498
C8    C     C_R   0.701048 0.451959 0.995054 0.684315
C9    C     C_R   0.698606 0.452433 0.086923 -0.262350
C10   C     C_R   0.403825 0.532477 0.796613 0.504948
C11   C     C_R   0.502471 0.500682 0.769614 -0.351288
C12   C     C_R   0.501043 0.500016 0.673175 0.985107
C13   C     C_R   0.601450 0.469758 0.834388 0.408557
C14   C     C_R   0.708287 0.062083 0.631955 0.572313
C15   C     C_R   0.599792 0.197802 0.527781 -0.402614
C16   C     C_R   0.293841 0.840094 0.438756 -0.364115
C17   C     C_R   0.260424 0.946180 0.427881 0.615857
C18   C     C_R   0.334013 0.014559 0.463905 0.641559
C19   C     C_R   0.442283 0.975956 0.513065 -0.141244
C20   C     C_R   0.464388 0.871404 0.542065 -0.108030
C21   C     C_R   0.528402 0.036992 0.537174 -0.080203
C22   C     C_R   0.623621 0.000754 0.606023 -0.197327
C23   C     C_R   0.561697 0.308034 0.510053 0.951147
C24   C     C_R   0.631877 0.904523 0.648658 -0.167536
C25   C     C_R   0.551765 0.840630 0.618721 0.526751
C26   C     C_R   0.525227 0.130787 0.491937 0.614981
C27   C     C_R   0.696876 0.161066 0.592726 0.285181
C28   C     C_R   0.396975 0.801958 0.494420 -0.195128
C29   C     C_R   0.085422 0.351543 0.368736 0.591210
C30   C     C_R   0.798596 0.630561 0.607955 -0.192562
C31   C     C_R   0.901015 0.665018 0.627031 0.381890
C32   C     C_R   0.980676 0.621350 0.581428 0.571149
C33   C     C_R   0.961321 0.536491 0.522576 -0.167613
C34   C     C_R   0.498737 0.500344 0.326935 0.920566
C35   C     C_R   0.854621 0.506313 0.505160 0.162919
C36   C     C_R   0.040926 0.481524 0.478885 -0.030426
C37   C     C_R   0.009424 0.404301 0.414351 0.003848
C38   C     C_R   0.903239 0.379066 0.397364 -0.233340
C39   C     C_R   0.828169 0.427795 0.443572 -0.170575
C40   C     C_R   0.151909 0.496928 0.498091 -0.008742
C41   C     C_R   0.192226 0.374091 0.388454 0.021093
C42   C     C_R   0.596650 0.475602 0.204492 -0.285486
C43   C     C_R   0.497071 0.500815 0.230894 -0.185351
C44   C     C_R   0.398223 0.528756 0.166118 0.575703
C45   C     C_R   0.399167 0.530993 0.073730 0.015381
C46   C     C_R   0.499918 0.504441 0.046969 0.049688
H1    H     H_    0.672676 0.453849 0.255308 0.183701
H2    H     H_    0.700064 0.878340 0.705524 0.213218
H3    H     H_    0.239275 0.787941 0.403661 0.235148
H4    H     H_    0.252161 0.334721 0.353808 0.216935
H5    H     H_    0.878229 0.319562 0.349495 0.209114
H6    H     H_    0.186799 0.547051 0.550137 0.262285
H7    H     H_    0.734464 0.666575 0.639332 0.222405
H8    H     H_    0.749502 0.402018 0.429818 0.203662
H9    H     H_    0.223697 0.580672 0.027074 0.211537
H10   H     H_    0.226497 0.582929 0.866009 0.205456
H11   H     H_    0.774972 0.433003 0.137831 0.193389
N1    N     N_R   0.222190 0.444670 0.452360 -0.178300
N2    N     N_R   0.776970 0.554790 0.547140 -0.142295
O1    O     O_R   0.366740 0.627160 0.477250 -0.610889
O2    O     O_R   0.544830 0.662520 0.507680 -0.591295
O3    O     O_R   0.410940 0.482340 0.616930 -0.583406
O4    O     O_R   0.589030 0.517700 0.647360 -0.552058
O5    O     O_R   0.455170 0.337480 0.492320 -0.568480
O6    O     O_R   0.633260 0.372840 0.522750 -0.609666
O7    O     O_R   0.410970 0.482300 0.352640 -0.557059
O8    O     O_R   0.589060 0.517660 0.383070 -0.658141
Zn1   Zn    Zn3+2 0.381090 0.476390 0.479680 1.046759
Zn2   Zn    Zn3+2 0.618910 0.523610 0.520320 0.996052
F1    F     F_    0.799442 0.028210 0.698013 -0.632517
F2    F     F_    0.453307 0.157194 0.410611 -0.603793
F3    F     F_    0.294789 0.117129 0.458807 -0.587000
F4    F     F_    0.157604 0.982850 0.379614 -0.575411
O9    O     O_3   0.555399 0.751889 0.669475 -0.634711
C47   C     C_3   0.490086 0.775910 0.733766 -0.280926
H12   H     H_    0.509449 0.846810 0.772469 0.160955
H13   H     H_    0.507715 0.711605 0.784892 0.192452
H14   H     H_    0.401147 0.784318 0.699612 0.206312
F5    F     F_    0.056838 0.278601 0.306168 -0.603594
F6    F     F_    0.302245 0.556272 0.192964 -0.650893
F7    F     F_    0.072420 0.667649 0.592766 -0.618952
O10   O     O_3   0.920678 0.748825 0.682339 -0.538297
C48   C     C_3   0.923610 0.720591 0.773445 -0.165555
H15   H     H_    0.983767 0.649762 0.796801 0.155628
H16   H     H_    0.840583 0.709678 0.782181 0.151195
H17   H     H_    0.950811 0.784380 0.818356 0.211766
F8    F     F_    0.309349 0.565380 0.733408 -0.640766
O11   O     O_3   0.696887 0.433862 0.806198 -0.543039
C49   C     C_3   0.703503 0.325558 0.797559 -0.039512
H18   H     H_    0.696349 0.286308 0.861106 0.138266
H19   H     H_    0.785474 0.295274 0.785339 0.241003
H20   H     H_    0.639504 0.305340 0.738510 0.107724
F9    F     F_    0.800298 0.428890 0.973107 -0.615438
O12   O     O_3   0.776054 0.224420 0.623528 -0.590502
C50   C     C_3   0.860726 0.200547 0.576229 -0.117724
H21   H     H_    0.828407 0.208195 0.500761 0.137259
H22   H     H_    0.905882 0.121479 0.595117 0.208068
H23   H     H_    0.920522 0.256223 0.595925 0.181316

loop_
_geom_bond_atom_site_label_1
_geom_bond_atom_site_label_2
_ccdc_geom_bond_type
C16   C28   A    
O7    Zn1   S    
C21   C26   A    
C50   H21   S    
C19   C20   A    
C43   C44   A    
C34   O7    A    
C50   H23   S    
C7    C8    A    
C45   C46   A    
C2    C46   A    
C32   F7    S    
C31   O10   S    
C5    C6    A    
O5    Zn1   S    
C36   C37   A    
C19   C21   A    
C41   N1    A    
C18   C19   A    
C38   C39   A    
C39   H8    S    
C20   C25   A    
C33   C36   A    
C35   N2    A    
C25   O9    S    
C3    H9    S    
O4    Zn2   S    
C8    C9    A    
C1    C28   S    
C14   C27   A    
C49   H19   S    
C15   C23   S    
C21   C22   A    
C4    H10   S    
C17   F4    S    
C26   F2    S    
C14   F1    S    
C18   F3    S    
C30   H7    S    
C10   F8    S    
C40   N1    A    
O9    C47   S    
C34   C43   S    
C24   H2    S    
C44   F6    S    
C24   C25   A    
C1    O1    A    
C12   O4    A    
C16   C17   A    
C15   C26   A    
C38   H5    S    
C20   C28   A    
C40   H6    S    
C3    C45   A    
O8    Zn2   S    
C35   C39   A    
C47   H12   S    
C37   C38   A    
C12   O3    A    
C15   C27   A    
C48   H15   S    
C29   F5    S    
C36   C40   A    
C30   N2    A    
C17   C18   A    
C16   H3    S    
C49   H20   S    
C47   H13   S    
N2    Zn2   S    
N1    Zn1   S    
C23   O5    A    
C48   H16   S    
C22   C24   A    
C42   C43   A    
C3    C4    A    
C41   H4    S    
C44   C45   A    
O2    Zn2   S    
C6    C46   A    
C29   C41   A    
C31   C32   A    
C8    F9    S    
C4    C5    A    
C1    O2    A    
C34   O8    A    
C11   C12   S    
C50   H22   S    
C6    C7    A    
O3    Zn1   S    
C32   C33   A    
C14   C22   A    
C5    C10   A    
C11   C13   A    
C23   O6    A    
C30   C31   A    
C2    C42   A    
O6    Zn2   S    
C13   O11   S    
C33   C35   A    
C9    H11   S    
C42   H1    S    
O12   C50   S    
C47   H14   S    
C10   C11   A    
C7    C13   A    
C48   H17   S    
O11   C49   S    
O1    Zn1   S    
O10   C48   S    
C29   C37   A    
C27   O12   S    
C49   H18   S    
C2    C9    A    
