data_mof_unit_11828.cif
_audit_creation_date              2012-12-11T17:47:23-0500
_audit_creation_method            fapswitch 2.2
_symmetry_space_group_name_H-M    P1
_symmetry_Int_Tables_number       1
_space_group_crystal_system       triclinic
_cell_length_a                    14.874929
_cell_length_b                    14.889812
_cell_length_c                    15.123747
_cell_angle_alpha                 110.297554
_cell_angle_beta                  109.020827
_cell_angle_gamma                 108.863951
_cell_volume                      2585.55456353

loop_
_atom_site_label
_atom_site_type_symbol
_atom_type_description
_atom_site_fract_x
_atom_site_fract_y
_atom_site_fract_z
_atom_type_partial_charge
C1    C     C_R   0.904503 0.193204 0.989753 0.671002
C2    C     C_R   0.032110 0.758943 0.944808 0.691851
C3    C     C_R   0.296541 0.870470 0.298216 0.061599
C4    C     C_R   0.676050 0.212637 0.672816 0.038911
C5    C     C_R   0.325406 0.499737 0.048982 0.021085
C6    C     C_R   0.692096 0.497811 0.055392 0.018944
C7    C     C_R   0.037780 0.497110 0.321241 0.022593
C8    C     C_R   0.055304 0.497536 0.695088 0.013542
C9    C     C_R   0.932704 0.858959 0.835303 -0.204226
C10   C     C_R   0.820744 0.952433 0.905507 -0.212011
C11   C     C_R   0.087607 0.066211 0.700959 -0.124457
C12   C     C_R   0.857197 0.980093 0.210603 -0.152751
C13   C     C_R   0.005665 0.003370 0.714260 -0.199561
C14   C     C_R   0.886974 0.967299 0.130446 -0.110010
C15   C     C_R   0.675247 0.323713 0.195469 -0.135136
C16   C     C_R   0.392668 0.690945 0.886411 -0.131684
C17   C     C_R   0.780482 0.390654 0.285238 -0.111595
C18   C     C_R   0.304515 0.612941 0.782561 -0.148281
C19   C     C_R   0.845628 0.344415 0.314212 0.090923
C20   C     C_R   0.259251 0.646335 0.711371 0.102455
C21   C     C_R   0.804133 0.230629 0.252355 -0.157829
C22   C     C_R   0.308312 0.758606 0.743556 -0.146387
C23   C     C_R   0.295149 0.805682 0.205515 -0.132394
C24   C     C_R   0.684556 0.240870 0.774898 -0.109696
C25   C     C_R   0.699036 0.164089 0.162377 0.009979
C26   C     C_R   0.398502 0.836297 0.846849 -0.080052
C27   C     C_R   0.634557 0.210633 0.133951 -0.111369
C28   C     C_R   0.439653 0.802670 0.918794 -0.091486
C29   C     C_R   0.966765 0.415320 0.503713 -0.250834
C30   C     C_R   0.146783 0.563602 0.512562 -0.251956
C31   C     C_R   0.063252 0.491353 0.601674 0.080001
C32   C     C_R   0.047958 0.490134 0.415484 0.081340
C33   C     C_R   0.155732 0.565452 0.607616 0.025934
C34   C     C_R   0.956664 0.414934 0.410537 0.013414
C35   C     C_R   0.031691 0.007305 0.813695 0.134866
C36   C     C_R   0.813027 0.879915 0.023434 0.126539
C37   C     C_R   0.223793 0.123130 0.879650 -0.152908
C38   C     C_R   0.680802 0.818875 0.078816 -0.140546
C39   C     C_R   0.083600 0.966569 0.390814 -0.137917
C40   C     C_R   0.773574 0.983338 0.485877 -0.124035
C41   C     C_R   0.185922 0.015296 0.399359 -0.147198
C42   C     C_R   0.686941 0.999040 0.489171 -0.126396
C43   C     C_R   0.277035 0.025235 0.478168 0.119609
C44   C     C_R   0.667229 0.075772 0.464572 0.111060
C45   C     C_R   0.224208 0.407519 0.974368 -0.142908
C46   C     C_R   0.785519 0.590487 0.090526 -0.146192
C47   C     C_R   0.265755 0.992748 0.552643 -0.191989
C48   C     C_R   0.732347 0.133239 0.432270 -0.192845
C49   C     C_R   0.162993 0.943266 0.542902 -0.117228
C50   C     C_R   0.823105 0.122056 0.435830 -0.139385
C51   C     C_R   0.071737 0.929085 0.461261 -0.127341
C52   C     C_R   0.843844 0.047360 0.462784 -0.119648
C53   C     C_R   0.477336 0.134693 0.564336 -0.245201
C54   C     C_R   0.477275 0.022317 0.374643 -0.228053
C55   C     C_R   0.576209 0.148239 0.567280 0.073194
C56   C     C_R   0.380209 0.986518 0.378479 0.056915
C57   C     C_R   0.575582 0.091736 0.469550 0.016144
C58   C     C_R   0.378277 0.051060 0.471487 0.028788
C59   C     C_R   0.196746 0.125152 0.783053 -0.107361
C60   C     C_R   0.754288 0.905188 0.184816 -0.104415
C61   C     C_R   0.838499 0.880096 0.937513 -0.006578
C62   C     C_R   0.945045 0.955372 0.835315 -0.007406
C63   C     C_R   0.141487 0.065395 0.895565 -0.077036
C64   C     C_R   0.709114 0.806038 0.997566 -0.164926
C65   C     C_R   0.902297 0.836548 0.907027 0.086646
C66   C     C_R   0.893480 0.008619 0.879358 0.084932
C67   C     C_R   0.056566 0.591123 0.314100 -0.135982
C68   C     C_R   0.001078 0.407321 0.699794 -0.171223
C69   C     C_3   0.490294 0.392196 0.015712 -0.181096
C70   C     C_3   0.536463 0.602290 0.119589 -0.165363
C71   C     C_3   0.433927 0.445547 0.965041 -0.143116
C72   C     C_3   0.593826 0.548959 0.170697 -0.149909
C73   C     C_3   0.426619 0.499119 0.067424 0.198211
C74   C     C_3   0.599660 0.495704 0.067649 0.192932
C75   C     C_3   0.481451 0.445335 0.118326 -0.165059
C76   C     C_3   0.543656 0.548426 0.016823 -0.154542
C77   C     C_R   0.315206 0.592155 0.065588 -0.131851
C78   C     C_R   0.695638 0.407051 0.997253 -0.119264
C79   C     C_R   0.974149 0.406862 0.218811 -0.105027
C80   C     C_R   0.088586 0.590326 0.788175 -0.054795
C81   C     C_R   0.207534 0.803295 0.299444 -0.140859
C82   C     C_R   0.780497 0.250984 0.687823 -0.119609
C83   C     C_R   0.994736 0.195165 0.898922 -0.261609
C84   C     C_R   0.932570 0.750330 0.028037 -0.248139
C85   C     C_R   0.930978 0.127481 0.922572 -0.098627
C86   C     C_R   0.952131 0.783372 0.957362 -0.113743
H1    H     H_    0.066428 0.070355 0.627615 0.126063
H2    H     H_    0.913757 0.048592 0.292334 0.104466
H3    H     H_    0.308052 0.168342 0.943284 0.111602
H4    H     H_    0.600801 0.764191 0.059797 0.105255
H5    H     H_    0.553179 0.159182 0.064241 0.096661
H6    H     H_    0.507290 0.863398 0.999761 0.105185
H7    H     H_    0.625177 0.359472 0.173788 0.120021
H8    H     H_    0.422424 0.664053 0.941873 0.110150
H9    H     H_    0.811150 0.478186 0.332180 0.108517
H10   H     H_    0.268634 0.526877 0.759328 0.115116
H11   H     H_    0.854359 0.194233 0.271855 0.114872
H12   H     H_    0.274508 0.786409 0.690362 0.108912
H13   H     H_    0.667925 0.076641 0.114397 0.114341
H14   H     H_    0.434908 0.922816 0.872026 0.105594
H15   H     H_    0.894884 0.362154 0.501215 0.134616
H16   H     H_    0.215787 0.620256 0.514098 0.131824
H17   H     H_    0.921669 0.957902 0.650814 0.115174
H18   H     H_    0.966186 0.027309 0.150761 0.112188
H19   H     H_    0.453173 0.403335 0.159676 0.112843
H20   H     H_    0.569372 0.586237 0.971600 0.116421
H21   H     H_    0.341615 0.832483 0.169010 0.097292
H22   H     H_    0.619048 0.223818 0.793714 0.093122
H23   H     H_    0.162823 0.067804 0.972334 0.123525
H24   H     H_    0.649637 0.740861 0.914725 0.122266
H25   H     H_    0.991813 0.889041 0.452598 0.105136
H26   H     H_    0.912578 0.037018 0.462820 0.101270
H27   H     H_    0.012797 0.953633 0.326821 0.123386
H28   H     H_    0.785706 0.921236 0.500790 0.099870
H29   H     H_    0.192821 0.038544 0.340493 0.114399
H30   H     H_    0.634697 0.951055 0.510131 0.113216
H31   H     H_    0.334711 0.998417 0.613043 0.116051
H32   H     H_    0.716331 0.190672 0.410496 0.124943
H33   H     H_    0.153719 0.913716 0.597177 0.132687
H34   H     H_    0.877761 0.171244 0.418084 0.111857
H35   H     H_    0.476686 0.181824 0.636882 0.124451
H36   H     H_    0.480671 0.979804 0.302719 0.123841
H37   H     H_    0.966034 0.815345 0.795437 0.198983
H38   H     H_    0.767292 0.980173 0.924084 0.211217
H39   H     H_    0.367078 0.403343 0.880228 0.109478
H40   H     H_    0.662405 0.590817 0.254439 0.106695
H41   H     H_    0.473701 0.306394 0.972908 0.099504
H42   H     H_    0.554964 0.688570 0.164262 0.102357
H43   H     H_    0.205030 0.322545 0.939640 0.126714
H44   H     H_    0.812071 0.674334 0.147592 0.108724
H45   H     H_    0.099966 0.675312 0.379653 0.106779
H46   H     H_    0.976891 0.323062 0.646582 0.118892
H47   H     H_    0.379044 0.677219 0.114770 0.094446
H48   H     H_    0.641088 0.322334 0.968847 0.099542
H49   H     H_    0.946077 0.321828 0.196188 0.160973
H50   H     H_    0.144050 0.673931 0.815012 0.184105
H51   H     H_    0.176819 0.823745 0.353959 0.134599
H52   H     H_    0.806736 0.253933 0.630769 0.126031
H53   H     H_    0.013183 0.171996 0.834742 0.168948
H54   H     H_    0.875656 0.753986 0.056124 0.160841
H55   H     H_    0.260146 0.172622 0.771953 0.113231
H56   H     H_    0.730025 0.914243 0.245906 0.131051
N1    N     N_R   0.947560 0.293820 0.002910 -0.099892
N2    N     N_R   0.052440 0.706180 0.997090 -0.099561
N3    N     N_R   0.208960 0.706170 0.152110 -0.042611
N4    N     N_R   0.791040 0.293830 0.847890 -0.041865
N5    N     N_R   0.154330 0.443160 0.946140 -0.037695
N6    N     N_R   0.845670 0.556840 0.053860 -0.038816
N7    N     N_R   0.002190 0.556820 0.208880 -0.043168
N8    N     N_R   0.997810 0.443180 0.791120 -0.044958
N9    N     N_R   0.210550 0.556810 0.002910 -0.039532
N10   N     N_R   0.789450 0.443190 0.997090 -0.037911
N11   N     N_R   0.945970 0.443180 0.152110 -0.035872
N12   N     N_R   0.054030 0.556820 0.847890 -0.052677
N13   N     N_R   0.151530 0.706170 0.208880 -0.043018
N14   N     N_R   0.848470 0.293830 0.791120 -0.046267
N15   N     N_R   0.004980 0.293810 0.946140 -0.073403
N16   N     N_R   0.995020 0.706190 0.053860 -0.070498
Ni1   Ni    Ni4+2 0.869690 0.369690 0.000000 0.263943
Ni2   Ni    Ni4+2 0.130310 0.630310 0.000000 0.234352
Ni3   Ni    Ni4+2 0.001390 0.369680 0.869810 0.202612
Ni4   Ni    Ni4+2 0.998610 0.630320 0.130190 0.206120
F1    F     F_    0.826273 0.158641 0.016022 -0.760176
F2    F     F_    0.093134 0.795680 0.902639 -0.763718

loop_
_geom_bond_atom_site_label_1
_geom_bond_atom_site_label_2
_ccdc_geom_bond_type
C16   C28   A    
C39   C51   A    
N11   Ni1   S    
C22   H12   S    
C67   N7    A    
C2    N2    A    
C3    C23   A    
C77   N9    A    
C66   C85   S    
C83   H53   S    
C78   N10   A    
C65   C86   S    
C39   C41   A    
C81   H51   S    
C23   N3    A    
C10   C66   A    
C42   C44   A    
C50   H34   S    
C19   C21   A    
C84   C86   A    
C13   C35   A    
C10   H38   S    
C14   C36   A    
C71   C76   S    
C4    C24   A    
C6    C78   A    
C52   H26   S    
C18   H10   S    
C7    C67   A    
C68   H46   S    
C2    C86   A    
C69   C71   S    
N7    N11   A    
C40   H28   S    
C43   C58   S    
C60   H56   S    
C76   H20   S    
C64   H24   S    
C25   H13   S    
C46   N6    A    
N3    N13   A    
C11   H1    S    
C39   H27   S    
C3    C81   A    
C50   C52   A    
C31   C33   A    
C27   H5    S    
C24   H22   S    
C13   H17   S    
N1    N15   A    
C82   N14   A    
C40   C42   A    
C54   H36   S    
N10   Ni1   S    
C41   C43   A    
C77   H47   S    
C41   H29   S    
C72   C75   S    
C11   C59   A    
C47   C49   A    
C37   C63   A    
C6    C74   S    
C38   C64   A    
C53   C55   A    
N13   Ni4   S    
C1    C85   A    
C15   C27   A    
C54   C56   A    
C12   H2    S    
C9    C62   A    
C62   C66   A    
C72   C74   S    
N5    Ni3   S    
C2    F2    S    
C71   C73   S    
N3    Ni2   S    
C84   N16   A    
C48   H32   S    
N4    Ni1   S    
C49   C51   A    
C40   C52   A    
C5    C45   A    
C29   C34   A    
C72   H40   S    
C32   C34   A    
C63   H23   S    
N5    N9    A    
N12   Ni2   S    
C1    N1    A    
C79   N11   A    
C21   H11   S    
C3    C56   S    
C14   H18   S    
C83   N15   A    
C44   C57   S    
C69   H41   S    
C23   H21   S    
C30   H16   S    
C70   C73   S    
C29   H15   S    
C69   C74   S    
C28   H6    S    
C16   C18   A    
N1    Ni1   S    
C78   H48   S    
C84   H54   S    
C37   C59   A    
C22   C26   A    
C74   C76   S    
C38   C60   A    
C20   C33   S    
C9    H37   S    
C42   H30   S    
C83   C85   A    
C12   C14   A    
N14   Ni3   S    
C75   H19   S    
C55   C57   A    
C4    C55   S    
C70   C76   S    
C10   C61   A    
N2    Ni2   S    
C15   H7    S    
C73   C75   S    
C5    C77   A    
C36   C61   S    
N15   Ni3   S    
C7    C79   A    
C70   H42   S    
C15   C17   A    
N8    Ni3   S    
C21   C25   A    
C51   H25   S    
C7    C32   S    
C6    C46   A    
C30   C33   A    
C45   N5    A    
C8    C31   S    
C16   H8    S    
C67   H45   S    
C17   H9    S    
N6    N10   A    
C20   C22   A    
C19   C34   S    
C80   H50   S    
C46   H44   S    
C70   C72   S    
C53   C58   A    
C80   N12   A    
C25   C27   A    
C79   H49   S    
C38   H4    S    
C26   C28   A    
C81   N13   A    
C37   H3    S    
N6    Ni4   S    
N9    Ni2   S    
C8    C68   A    
C29   C31   A    
C24   N4    A    
C30   C32   A    
C11   C13   A    
C49   H33   S    
C43   C47   A    
C45   H43   S    
C48   C50   A    
C17   C19   A    
C56   C58   A    
C69   C75   S    
C35   C62   S    
C18   C20   A    
C5    C73   S    
C59   H55   S    
C9    C65   A    
C68   N8    A    
N16   Ni4   S    
C53   H35   S    
C12   C60   A    
C61   C65   A    
C47   H31   S    
C4    C82   A    
C1    F1    S    
C82   H52   S    
N8    N12   A    
C8    C80   A    
C71   H39   S    
C35   C63   A    
N7    Ni4   S    
N4    N14   A    
C36   C64   A    
N2    N16   A    
C44   C48   A    
C26   H14   S    
C54   C57   A    
