data_mof_unit_62167.cif
_audit_creation_date              2013-03-05T15:52:53-0500
_audit_creation_method            fapswitch 2.2
_symmetry_space_group_name_H-M    P1
_symmetry_Int_Tables_number       1
_space_group_crystal_system       triclinic
_cell_length_a                    30.243507
_cell_length_b                    30.244601
_cell_length_c                    38.687816
_cell_angle_alpha                 90.00462
_cell_angle_beta                  90.006019
_cell_angle_gamma                 89.991614
_cell_volume                      35387.8530113

loop_
_atom_site_label
_atom_site_type_symbol
_atom_site_description
_atom_site_fract_x
_atom_site_fract_y
_atom_site_fract_z
_atom_type_partial_charge
O1    O     O_R   0.537270 0.933900 0.000070 -0.581263
O2    O     O_R   0.066100 0.537270 0.000070 -0.577259
O3    O     O_R   0.462730 0.066100 0.000070 -0.581722
O4    O     O_R   0.933900 0.462730 0.000070 -0.577268
O5    O     O_R   0.537270 0.066100 0.999930 -0.581698
O6    O     O_R   0.066100 0.462730 0.999930 -0.577308
O7    O     O_R   0.462730 0.933900 0.999930 -0.581452
O8    O     O_R   0.933900 0.537270 0.999930 -0.577328
O9    O     O_R   0.037270 0.433900 0.500070 -0.581766
O10   O     O_R   0.566100 0.037270 0.500070 -0.577260
O11   O     O_R   0.962730 0.566100 0.500070 -0.581630
O12   O     O_R   0.433900 0.962730 0.500070 -0.577262
O13   O     O_R   0.037270 0.566100 0.499930 -0.581588
O14   O     O_R   0.566100 0.962730 0.499930 -0.577298
O15   O     O_R   0.962730 0.433900 0.499930 -0.581743
O16   O     O_R   0.433900 0.037270 0.499930 -0.577300
O17   O     O_R   0.433830 0.500000 0.028800 -0.574228
O18   O     O_R   0.500000 0.433830 0.028800 -0.569148
O19   O     O_R   0.566170 0.500000 0.028800 -0.573719
O20   O     O_R   0.500000 0.566170 0.028800 -0.569018
O21   O     O_R   0.433830 0.500000 0.971200 -0.573755
O22   O     O_R   0.500000 0.566170 0.971200 -0.568977
O23   O     O_R   0.566170 0.500000 0.971200 -0.574332
O24   O     O_R   0.500000 0.433830 0.971200 -0.569163
O25   O     O_R   0.933830 0.000000 0.528800 -0.573905
O26   O     O_R   1.000000 0.933830 0.528800 -0.569037
O27   O     O_R   0.066170 0.000000 0.528800 -0.574260
O28   O     O_R   0.000000 0.066170 0.528800 -0.569202
O29   O     O_R   0.933830 0.000000 0.471200 -0.574188
O30   O     O_R   0.000000 0.066170 0.471200 -0.569065
O31   O     O_R   0.066170 0.000000 0.471200 -0.573993
O32   O     O_R   1.000000 0.933830 0.471200 -0.569077
C1    C     C_R   0.500007 0.913370 0.999999 0.939333
C2    C     C_R   0.086493 0.499997 1.000000 0.920274
C3    C     C_R   0.499997 0.086623 0.999999 0.940258
C4    C     C_R   0.913506 0.500003 0.000004 0.919881
C5    C     C_R   0.000003 0.413378 0.500000 0.940368
C6    C     C_R   0.586493 0.999997 0.500001 0.920250
C7    C     C_R   0.999997 0.586625 0.500000 0.939978
C8    C     C_R   0.413505 0.000003 0.500001 0.919739
O33   O     O_R   0.537260 0.999970 0.050990 -0.598623
O34   O     O_R   0.000030 0.537260 0.050990 -0.600451
O35   O     O_R   0.462740 0.000030 0.050990 -0.598257
O36   O     O_R   0.999970 0.462740 0.050990 -0.600567
O37   O     O_R   0.537260 0.000030 0.949010 -0.598176
O38   O     O_R   0.000030 0.462740 0.949010 -0.600459
O39   O     O_R   0.462740 0.999970 0.949010 -0.598477
O40   O     O_R   0.999970 0.537260 0.949010 -0.600613
O41   O     O_R   0.037260 0.499970 0.550990 -0.598320
O42   O     O_R   0.500030 0.037260 0.550990 -0.600414
O43   O     O_R   0.962740 0.500030 0.550990 -0.598455
O44   O     O_R   0.499970 0.962740 0.550990 -0.600608
O45   O     O_R   0.037260 0.500030 0.449010 -0.598442
O46   O     O_R   0.500030 0.962740 0.449010 -0.600428
O47   O     O_R   0.962740 0.499970 0.449010 -0.598346
O48   O     O_R   0.499970 0.037260 0.449010 -0.600626
C9    C     C_R   0.500002 0.999998 0.067198 0.900529
C10   C     C_R   0.999999 0.500002 0.067231 0.878808
C11   C     C_R   0.499997 0.999997 0.932803 0.900553
C12   C     C_R   1.000000 0.499998 0.932769 0.878790
C13   C     C_R   0.000002 0.500000 0.567197 0.900917
C14   C     C_R   0.500000 0.000001 0.567231 0.878748
C15   C     C_R   0.999998 0.500001 0.432802 0.900912
C16   C     C_R   0.500000 0.999999 0.432769 0.878720
Zn1   Zn    Zn3+2 0.549780 0.000000 0.000000 1.170745
Zn2   Zn    Zn3+2 1.000000 0.549780 0.000000 1.163047
Zn3   Zn    Zn3+2 0.450220 0.000000 0.000000 1.170458
Zn4   Zn    Zn3+2 0.000000 0.450220 0.000000 1.163028
Zn5   Zn    Zn3+2 0.049780 0.500000 0.500000 1.170287
Zn6   Zn    Zn3+2 0.500000 0.049780 0.500000 1.163047
Zn7   Zn    Zn3+2 0.950220 0.500000 0.500000 1.170275
Zn8   Zn    Zn3+2 0.500000 0.950220 0.500000 1.163044
C17   C     C_R   0.413062 0.500000 0.999999 0.947967
C18   C     C_R   0.499999 0.413203 0.999999 0.945377
C19   C     C_R   0.586937 0.500003 0.000001 0.948065
C20   C     C_R   0.499998 0.586790 0.000001 0.946331
C21   C     C_R   0.913063 1.000000 0.499999 0.947761
C22   C     C_R   0.000001 0.913205 0.499998 0.945808
C23   C     C_R   0.086935 0.000001 0.500002 0.947965
C24   C     C_R   0.999998 0.086798 0.500001 0.945384
C25   C     C_R   0.474459 0.968594 0.123111 -0.129228
C26   C     C_R   0.030499 0.473396 0.123254 -0.131598
C27   C     C_R   0.525549 0.031412 0.123115 -0.129302
C28   C     C_R   0.969494 0.526619 0.123247 -0.131597
C29   C     C_R   0.474497 0.031450 0.876890 -0.129292
C30   C     C_R   0.030499 0.526602 0.876752 -0.131589
C31   C     C_R   0.525475 0.968526 0.876892 -0.129375
C32   C     C_R   0.969508 0.473382 0.876745 -0.131621
C33   C     C_R   0.974502 0.468551 0.623105 -0.129326
C34   C     C_R   0.530505 0.973395 0.623252 -0.131588
C35   C     C_R   0.025516 0.531431 0.623116 -0.129353
C36   C     C_R   0.469496 0.026612 0.623250 -0.131605
C37   C     C_R   0.974468 0.531438 0.376891 -0.129315
C38   C     C_R   0.530514 0.026591 0.376755 -0.131586
C39   C     C_R   0.025515 0.468569 0.376886 -0.129334
C40   C     C_R   0.469494 0.973404 0.376745 -0.131630
C41   C     C_R   0.474249 0.968649 0.159369 0.265330
C42   C     C_R   0.030366 0.473131 0.159510 0.268605
C43   C     C_R   0.525760 0.031363 0.159374 0.265306
C44   C     C_R   0.969625 0.526895 0.159503 0.268623
C45   C     C_R   0.474285 0.031397 0.840631 0.265333
C46   C     C_R   0.030372 0.526865 0.840496 0.268612
C47   C     C_R   0.525687 0.968576 0.840633 0.265413
C48   C     C_R   0.969645 0.473105 0.840489 0.268615
C49   C     C_R   0.974295 0.468597 0.659364 0.265355
C50   C     C_R   0.530372 0.973124 0.659508 0.268610
C51   C     C_R   0.025731 0.531374 0.659375 0.265376
C52   C     C_R   0.469630 0.026886 0.659506 0.268630
C53   C     C_R   0.974255 0.531391 0.340633 0.265373
C54   C     C_R   0.530385 0.026859 0.340500 0.268601
C55   C     C_R   0.025723 0.468624 0.340627 0.265343
C56   C     C_R   0.469628 0.973132 0.340489 0.268626
C57   C     C_R   0.500005 0.000007 0.177325 -0.164634
C58   C     C_R   0.999996 0.500016 0.177553 -0.162334
C59   C     C_R   0.499988 0.999988 0.822679 -0.164701
C60   C     C_R   0.000011 0.499982 0.822446 -0.162327
C61   C     C_R   0.000015 0.499983 0.677322 -0.164673
C62   C     C_R   0.500001 0.000005 0.677554 -0.162337
C63   C     C_R   0.999988 0.500010 0.322677 -0.164670
C64   C     C_R   0.500008 0.999995 0.322448 -0.162344
C65   C     C_R   0.500005 0.000000 0.105024 -0.149473
C66   C     C_R   0.999998 0.500006 0.105113 -0.158077
C67   C     C_R   0.499990 0.999992 0.894979 -0.149528
C68   C     C_R   0.000002 0.499994 0.894887 -0.158104
C69   C     C_R   0.000007 0.499994 0.605022 -0.149486
C70   C     C_R   0.500001 0.000004 0.605113 -0.158106
C71   C     C_R   0.999993 0.500003 0.394977 -0.149464
C72   C     C_R   0.500003 0.999997 0.394888 -0.158121
N1    N     N_R   0.538416 0.995203 0.232623 -0.066941
N2    N     N_R   0.961598 0.495161 0.233045 -0.064325
N3    N     N_R   0.461598 0.004807 0.232619 -0.066874
N4    N     N_R   0.038386 0.504875 0.233054 -0.064323
N5    N     N_R   0.538407 0.004746 0.767389 -0.066889
N6    N     N_R   0.961618 0.504835 0.766946 -0.064345
N7    N     N_R   0.461579 0.995241 0.767377 -0.066954
N8    N     N_R   0.038408 0.495123 0.766953 -0.064305
N9    N     N_R   0.038427 0.495211 0.732622 -0.066888
N10   N     N_R   0.461601 0.995158 0.733046 -0.064348
N11   N     N_R   0.961600 0.504748 0.732615 -0.066945
N12   N     N_R   0.538392 0.004839 0.733058 -0.064304
N13   N     N_R   0.038402 0.504786 0.267385 -0.066925
N14   N     N_R   0.461616 0.004890 0.266950 -0.064340
N15   N     N_R   0.961578 0.495247 0.267376 -0.066900
N16   N     N_R   0.538399 0.995112 0.266954 -0.064325
C73   C     C_R   0.500008 0.999998 0.284642 0.399379
C74   C     C_R   0.999989 0.500016 0.285007 0.403708
C75   C     C_R   0.499998 0.000002 0.715361 0.399378
C76   C     C_R   0.000014 0.499980 0.714992 0.403700
C77   C     C_R   0.000012 0.499979 0.784639 0.399376
C78   C     C_R   0.499992 0.999990 0.785009 0.403732
C79   C     C_R   0.999993 0.500019 0.215360 0.399386
C80   C     C_R   0.500007 0.000007 0.214995 0.403727
Zn9   Zn    Zn3+2 0.500000 0.500000 0.038450 1.267712
Zn10  Zn    Zn3+2 0.500000 0.500000 0.961550 1.267657
Zn11  Zn    Zn3+2 0.000000 0.000000 0.538450 1.267752
Zn12  Zn    Zn3+2 0.000000 0.000000 0.461550 1.267752
C81   C     C_R   0.469061 0.657214 0.979754 0.269893
C82   C     C_R   0.342318 0.473147 0.976312 0.266961
C83   C     C_R   0.530625 0.342784 0.979418 0.269773
C84   C     C_R   0.657678 0.526853 0.976320 0.267002
C85   C     C_R   0.469332 0.342806 0.020559 0.269765
C86   C     C_R   0.342315 0.526820 0.023707 0.266901
C87   C     C_R   0.531116 0.657159 0.020197 0.269953
C88   C     C_R   0.657684 0.473142 0.023681 0.266950
C89   C     C_R   0.969377 0.157212 0.479406 0.269798
C90   C     C_R   0.842318 0.973145 0.476316 0.266890
C91   C     C_R   0.030774 0.842791 0.479547 0.269894
C92   C     C_R   0.157666 0.026915 0.476361 0.266909
C93   C     C_R   0.969207 0.842808 0.520436 0.269840
C94   C     C_R   0.842323 0.026849 0.523688 0.266857
C95   C     C_R   0.030617 0.157205 0.520606 0.269821
C96   C     C_R   0.157684 0.973102 0.523651 0.266887
C97   C     C_R   0.500044 0.634490 0.999999 -0.255453
C98   C     C_R   0.365027 0.499993 0.000003 -0.260068
C99   C     C_R   0.499987 0.365486 0.999994 -0.254891
C100  C     C_R   0.634970 0.500003 0.000002 -0.260130
C101  C     C_R   0.999997 0.134517 0.500005 -0.254889
C102  C     C_R   0.865029 0.999999 0.499999 -0.260021
C103  C     C_R   0.999995 0.865494 0.499994 -0.255151
C104  C     C_R   0.134966 0.000005 0.500005 -0.260181
C105  C     C_R   0.527892 0.703337 0.023227 -0.095172
C106  C     C_R   0.295864 0.529027 0.022534 -0.098982
C107  C     C_R   0.472593 0.296625 0.023539 -0.095438
C108  C     C_R   0.704136 0.470927 0.022502 -0.098989
C109  C     C_R   0.527334 0.296608 0.976425 -0.095436
C110  C     C_R   0.295867 0.470934 0.977493 -0.098955
C111  C     C_R   0.472448 0.703365 0.976643 -0.095144
C112  C     C_R   0.704124 0.529094 0.977531 -0.098851
C113  C     C_R   0.027342 0.203386 0.523587 -0.095451
C114  C     C_R   0.795868 0.029034 0.522536 -0.099108
C115  C     C_R   0.972494 0.796634 0.523454 -0.095295
C116  C     C_R   0.204133 0.970883 0.522456 -0.098932
C117  C     C_R   0.027471 0.796620 0.476522 -0.095283
C118  C     C_R   0.795868 0.970934 0.477498 -0.098976
C119  C     C_R   0.972662 0.203389 0.476421 -0.095402
C120  C     C_R   0.204116 0.029132 0.477550 -0.098979
C121  C     C_R   0.500195 0.726678 0.999926 -0.014300
C122  C     C_R   0.272684 0.499984 0.000010 -0.007813
C123  C     C_R   0.499961 0.273297 0.999982 -0.013820
C124  C     C_R   0.727313 0.500014 0.000019 -0.007883
C125  C     C_R   0.000002 0.226706 0.500003 -0.013815
C126  C     C_R   0.772686 0.999984 0.500017 -0.007766
C127  C     C_R   0.999982 0.773305 0.499988 -0.014026
C128  C     C_R   0.227308 0.000008 0.500003 -0.007892
C129  C     C_R   0.550897 0.726468 0.049330 0.223850
C130  C     C_R   0.271978 0.559949 0.042830 0.213711
C131  C     C_R   0.450029 0.273467 0.049869 0.222852
C132  C     C_R   0.728023 0.439958 0.042752 0.213817
C133  C     C_R   0.549872 0.273438 0.950081 0.222810
C134  C     C_R   0.271987 0.439996 0.957211 0.213776
C135  C     C_R   0.449627 0.726485 0.950433 0.223341
C136  C     C_R   0.727990 0.560085 0.957299 0.213917
C137  C     C_R   0.049857 0.226552 0.549946 0.222777
C138  C     C_R   0.771978 0.059942 0.542845 0.213674
C139  C     C_R   0.949826 0.773492 0.549733 0.223095
C140  C     C_R   0.228018 0.939869 0.542663 0.213882
C141  C     C_R   0.050130 0.773466 0.450238 0.223132
C142  C     C_R   0.771988 0.939997 0.457215 0.213750
C143  C     C_R   0.950147 0.226553 0.450060 0.222808
C144  C     C_R   0.227986 0.060139 0.457336 0.213873
C145  C     C_R   0.549322 0.772581 0.050489 0.217099
C146  C     C_R   0.225861 0.558156 0.044072 0.228495
C147  C     C_R   0.451792 0.227361 0.051074 0.218191
C148  C     C_R   0.774141 0.441756 0.044006 0.228362
C149  C     C_R   0.548094 0.227333 0.948872 0.218267
C150  C     C_R   0.225869 0.441808 0.955949 0.228438
C151  C     C_R   0.451389 0.772589 0.949186 0.217736
C152  C     C_R   0.774107 0.558282 0.956034 0.228277
C153  C     C_R   0.048078 0.272658 0.551152 0.218323
C154  C     C_R   0.725860 0.058152 0.544080 0.228532
C155  C     C_R   0.951569 0.727385 0.550944 0.217959
C156  C     C_R   0.274135 0.941674 0.543930 0.228291
C157  C     C_R   0.048398 0.727358 0.449034 0.217940
C158  C     C_R   0.725870 0.941799 0.455962 0.228464
C159  C     C_R   0.951914 0.272658 0.448857 0.218255
C160  C     C_R   0.274103 0.058340 0.456073 0.228296
C161  C     C_R   0.526234 0.796429 0.024601 -0.104050
C162  C     C_R   0.202837 0.526885 0.023853 -0.091685
C163  C     C_R   0.474312 0.203553 0.024882 -0.103287
C164  C     C_R   0.797166 0.473063 0.023827 -0.091751
C165  C     C_R   0.525607 0.203542 0.975082 -0.103202
C166  C     C_R   0.202840 0.473088 0.976158 -0.091698
C167  C     C_R   0.474237 0.796414 0.975205 -0.103330
C168  C     C_R   0.797149 0.526971 0.976208 -0.091789
C169  C     C_R   0.025621 0.296454 0.524922 -0.103167
C170  C     C_R   0.702837 0.026884 0.523859 -0.091719
C171  C     C_R   0.974223 0.703566 0.524824 -0.103350
C172  C     C_R   0.297160 0.973017 0.523786 -0.091803
C173  C     C_R   0.025747 0.703552 0.475157 -0.103365
C174  C     C_R   0.702842 0.973080 0.476169 -0.091716
C175  C     C_R   0.974381 0.296456 0.475081 -0.103212
C176  C     C_R   0.297146 0.027003 0.476221 -0.091817
C177  C     C_R   0.500224 0.773212 0.999913 -0.008539
C178  C     C_R   0.226173 0.499986 0.000006 -0.023088
C179  C     C_R   0.499959 0.226764 0.999982 -0.008971
C180  C     C_R   0.773824 0.500017 0.000019 -0.022955
C181  C     C_R   0.000002 0.273238 0.500002 -0.009015
C182  C     C_R   0.726174 0.999982 0.500015 -0.023087
C183  C     C_R   0.999983 0.726773 0.499989 -0.008845
C184  C     C_R   0.273820 0.000009 0.500003 -0.022944
C185  C     C_R   0.527785 0.842891 0.023027 0.252736
C186  C     C_R   0.156719 0.522452 0.026238 0.266225
C187  C     C_R   0.472511 0.157115 0.023208 0.252714
C188  C     C_R   0.843288 0.477472 0.026205 0.266145
C189  C     C_R   0.527445 0.157108 0.976773 0.252657
C190  C     C_R   0.156719 0.477523 0.973770 0.266184
C191  C     C_R   0.472445 0.842852 0.976874 0.252551
C192  C     C_R   0.843272 0.522560 0.973825 0.266107
C193  C     C_R   0.027460 0.342888 0.523230 0.252692
C194  C     C_R   0.656718 0.022455 0.526240 0.266214
C195  C     C_R   0.972454 0.657125 0.523163 0.252691
C196  C     C_R   0.343282 0.977424 0.526170 0.266128
C197  C     C_R   0.027522 0.657112 0.476823 0.252696
C198  C     C_R   0.656721 0.977514 0.473780 0.266176
C199  C     C_R   0.972552 0.342892 0.476768 0.252718
C200  C     C_R   0.343270 0.022600 0.473838 0.266107
C201  C     C_R   0.500055 0.865470 0.999977 -0.284893
C202  C     C_R   0.134070 0.499991 0.000002 -0.290515
C203  C     C_R   0.499987 0.134508 0.999995 -0.285336
C204  C     C_R   0.865927 0.500011 0.000011 -0.290446
C205  C     C_R   0.000007 0.365493 0.499999 -0.285385
C206  C     C_R   0.634071 0.999989 0.500006 -0.290509
C207  C     C_R   0.999991 0.634517 0.499996 -0.285220
C208  C     C_R   0.365924 0.000010 0.500004 -0.290468
C209  C     C_1   0.450793 0.934280 0.104575 0.387261
N17   N     N_1   0.432001 0.906873 0.089734 -0.085235
C210  C     C_1   0.062005 0.446032 0.104785 0.386599
N18   N     N_1   0.087139 0.424217 0.090010 -0.078020
C211  C     C_1   0.549205 0.065729 0.104584 0.388212
N19   N     N_1   0.567987 0.093141 0.089747 -0.084844
C212  C     C_1   0.937986 0.553974 0.104771 0.386516
N20   N     N_1   0.912850 0.575782 0.089989 -0.078032
C213  C     C_1   0.450894 0.065811 0.895425 0.388263
N21   N     N_1   0.432155 0.093257 0.910266 -0.084890
C214  C     C_1   0.061996 0.553966 0.895227 0.386612
N22   N     N_1   0.087122 0.575781 0.910008 -0.078011
C215  C     C_1   0.549063 0.934157 0.895430 0.387434
N23   N     N_1   0.567791 0.906706 0.910273 -0.084993
C216  C     C_1   0.938002 0.446030 0.895213 0.386527
N24   N     N_1   0.912868 0.424226 0.909989 -0.078040
C217  C     C_1   0.950881 0.434210 0.604565 0.388266
N25   N     N_1   0.932127 0.406780 0.589721 -0.084870
C218  C     C_1   0.562012 0.946034 0.604781 0.386598
N26   N     N_1   0.587146 0.924222 0.590004 -0.078029
C219  C     C_1   0.049133 0.565777 0.604587 0.387873
N27   N     N_1   0.067884 0.593210 0.589751 -0.084943
C220  C     C_1   0.437981 0.053962 0.604776 0.386435
N28   N     N_1   0.412840 0.075765 0.589995 -0.078096
C221  C     C_1   0.950835 0.565776 0.395430 0.387882
N29   N     N_1   0.932071 0.593203 0.410272 -0.084982
C222  C     C_1   0.562022 0.053939 0.395233 0.386598
N30   N     N_1   0.587157 0.075742 0.410015 -0.078059
C223  C     C_1   0.049152 0.434229 0.395417 0.388254
N31   N     N_1   0.067918 0.406799 0.410255 -0.084838
C224  C     C_1   0.437974 0.946068 0.395213 0.386422
N32   N     N_1   0.412828 0.924276 0.409988 -0.078084
N33   N     N_R   0.449195 0.935897 0.177956 0.224888
O49   O     O_R   0.468178 0.911482 0.201344 -0.271361
O50   O     O_R   0.407519 0.929816 0.171090 -0.279960
N34   N     N_R   0.060021 0.444408 0.177997 0.220117
O51   O     O_R   0.044591 0.415715 0.199963 -0.275192
O52   O     O_R   0.102431 0.446425 0.172566 -0.268386
N35   N     N_R   0.550812 0.064119 0.177966 0.225022
O53   O     O_R   0.531829 0.088531 0.201357 -0.271002
O54   O     O_R   0.592485 0.070210 0.171101 -0.279917
N36   N     N_R   0.939969 0.555622 0.177984 0.220129
O55   O     O_R   0.955396 0.584317 0.199956 -0.275205
O56   O     O_R   0.897559 0.553607 0.172542 -0.268441
N37   N     N_R   0.449287 0.064200 0.822041 0.225054
O57   O     O_R   0.468310 0.088569 0.798649 -0.270972
O58   O     O_R   0.407626 0.070378 0.828911 -0.279945
N38   N     N_R   0.060024 0.555585 0.822016 0.220110
O59   O     O_R   0.044590 0.584283 0.800049 -0.275220
O60   O     O_R   0.102434 0.553560 0.827454 -0.268378
N39   N     N_R   0.550684 0.935771 0.822044 0.225002
O61   O     O_R   0.531665 0.911412 0.798638 -0.271220
O62   O     O_R   0.592342 0.929583 0.828927 -0.279889
N40   N     N_R   0.939998 0.444379 0.822002 0.220121
O63   O     O_R   0.955436 0.415678 0.800037 -0.275180
O64   O     O_R   0.897586 0.446403 0.827428 -0.268485
N41   N     N_R   0.949284 0.435810 0.677948 0.225047
O65   O     O_R   0.968299 0.411419 0.701336 -0.270944
O66   O     O_R   0.907617 0.429672 0.671078 -0.279945
N42   N     N_R   0.560027 0.944398 0.677992 0.220109
O67   O     O_R   0.544596 0.915696 0.699952 -0.275245
O68   O     O_R   0.602438 0.946417 0.672564 -0.268394
N43   N     N_R   0.050746 0.564155 0.677970 0.225009
O69   O     O_R   0.031737 0.588540 0.701365 -0.271093
O70   O     O_R   0.092412 0.570296 0.671103 -0.279926
N44   N     N_R   0.439975 0.055612 0.677988 0.220129
O71   O     O_R   0.455404 0.084308 0.699960 -0.275172
O72   O     O_R   0.397565 0.053595 0.672550 -0.268520
N45   N     N_R   0.949224 0.564172 0.322046 0.225009
O73   O     O_R   0.968222 0.588565 0.298658 -0.271078
O74   O     O_R   0.907557 0.570306 0.328916 -0.279941
N46   N     N_R   0.560053 0.055564 0.322021 0.220114
O75   O     O_R   0.544635 0.084271 0.300054 -0.275229
O76   O     O_R   0.602462 0.053518 0.327460 -0.268369
N47   N     N_R   0.050750 0.435846 0.322034 0.225047
O77   O     O_R   0.031750 0.411461 0.298636 -0.270963
O78   O     O_R   0.092418 0.429707 0.328908 -0.279934
N48   N     N_R   0.439963 0.944427 0.322000 0.220130
O79   O     O_R   0.455383 0.915724 0.300029 -0.275249
O80   O     O_R   0.397553 0.946472 0.327430 -0.268508
N49   N     N_R   0.431487 0.634054 0.965894 0.215621
O81   O     O_R   0.435652 0.608089 0.939280 -0.270185
O82   O     O_R   0.392216 0.642380 0.977966 -0.263142
N50   N     N_R   0.366735 0.449353 0.950458 0.239776
O83   O     O_R   0.365727 0.462618 0.918480 -0.254692
O84   O     O_R   0.393372 0.417508 0.959318 -0.305436
N51   N     N_R   0.567799 0.366053 0.965045 0.215445
O85   O     O_R   0.563080 0.391388 0.938120 -0.268368
O86   O     O_R   0.607257 0.358551 0.977081 -0.264376
N52   N     N_R   0.633278 0.550582 0.950416 0.239842
O87   O     O_R   0.634479 0.537361 0.918429 -0.254930
O88   O     O_R   0.606548 0.582377 0.959212 -0.305354
N53   N     N_R   0.432171 0.366107 0.034936 0.215406
O89   O     O_R   0.436902 0.391426 0.061872 -0.268345
O90   O     O_R   0.392711 0.358653 0.022890 -0.264504
N54   N     N_R   0.366731 0.550588 0.049576 0.239760
O91   O     O_R   0.365802 0.537235 0.081533 -0.254765
O92   O     O_R   0.393330 0.582463 0.040738 -0.305354
N55   N     N_R   0.568622 0.633897 0.034076 0.215468
O93   O     O_R   0.564384 0.608010 0.060726 -0.270211
O94   O     O_R   0.607917 0.642064 0.021989 -0.263280
N56   N     N_R   0.633270 0.449321 0.049516 0.239757
O95   O     O_R   0.634271 0.462556 0.081504 -0.254684
O96   O     O_R   0.606645 0.417485 0.040630 -0.305508
N57   N     N_R   0.932216 0.133939 0.465007 0.215461
O97   O     O_R   0.936959 0.108601 0.438084 -0.268262
O98   O     O_R   0.892747 0.141452 0.477009 -0.264582
N58   N     N_R   0.866735 0.949353 0.450461 0.239760
O99   O     O_R   0.865761 0.962650 0.418489 -0.254741
O100  O     O_R   0.893359 0.917497 0.459318 -0.305416
N59   N     N_R   0.068097 0.866027 0.465369 0.215525
O101  O     O_R   0.063577 0.891614 0.438569 -0.269074
O102  O     O_R   0.107494 0.858175 0.477389 -0.263729
N60   N     N_R   0.133240 0.050768 0.450543 0.239767
O103  O     O_R   0.134277 0.037602 0.418538 -0.254771
O104  O     O_R   0.106578 0.082568 0.459452 -0.305626
N61   N     N_R   0.931899 0.866071 0.534624 0.215472
O105  O     O_R   0.936432 0.891626 0.561444 -0.268991
O106  O     O_R   0.892501 0.858290 0.522580 -0.263997
N62   N     N_R   0.866760 0.050698 0.549498 0.239679
O107  O     O_R   0.865991 0.037348 0.581459 -0.254583
O108  O     O_R   0.893277 0.082609 0.540586 -0.305497
N63   N     N_R   0.067757 0.133912 0.535026 0.215468
O109  O     O_R   0.062988 0.108622 0.561971 -0.268270
O110  O     O_R   0.107233 0.141356 0.523018 -0.264352
N64   N     N_R   0.133280 0.949271 0.549486 0.239787
O111  O     O_R   0.134387 0.962422 0.581493 -0.254852
O112  O     O_R   0.106594 0.917486 0.540598 -0.305610
N65   N     N_R   0.570363 0.703410 0.077931 0.255640
O113  O     O_R   0.545083 0.685837 0.101408 -0.244018
O114  O     O_R   0.613021 0.703490 0.082252 -0.203780
N66   N     N_R   0.293549 0.597019 0.058679 0.251541
O115  O     O_R   0.294510 0.600904 0.092160 -0.205484
O116  O     O_R   0.308200 0.629165 0.039500 -0.239611
N67   N     N_R   0.430911 0.296498 0.078617 0.255694
O117  O     O_R   0.456447 0.313310 0.102270 -0.243132
O118  O     O_R   0.388256 0.296958 0.082934 -0.203709
N68   N     N_R   0.706456 0.402837 0.058524 0.251573
O119  O     O_R   0.705584 0.398792 0.091994 -0.205454
O120  O     O_R   0.691720 0.370793 0.039269 -0.240134
N69   N     N_R   0.568967 0.296461 0.921326 0.255687
O121  O     O_R   0.543413 0.313309 0.897700 -0.243169
O122  O     O_R   0.611619 0.296910 0.916987 -0.203659
N70   N     N_R   0.293561 0.402885 0.941416 0.251567
O123  O     O_R   0.294448 0.398877 0.907943 -0.205417
O124  O     O_R   0.308299 0.370825 0.960649 -0.240216
N71   N     N_R   0.430261 0.703390 0.921810 0.255587
O125  O     O_R   0.455613 0.685734 0.898415 -0.244252
O126  O     O_R   0.387605 0.703332 0.917474 -0.203570
N72   N     N_R   0.706400 0.597238 0.941577 0.251572
O127  O     O_R   0.705606 0.601414 0.908115 -0.205496
O128  O     O_R   0.691531 0.629170 0.960881 -0.239604
N73   N     N_R   0.068928 0.203528 0.578716 0.255687
O129  O     O_R   0.043355 0.186753 0.602354 -0.243110
O130  O     O_R   0.111579 0.203031 0.583063 -0.203649
N74   N     N_R   0.793544 0.096986 0.558733 0.251588
O131  O     O_R   0.794564 0.100766 0.592220 -0.205436
O132  O     O_R   0.808066 0.129230 0.539598 -0.240131
N75   N     N_R   0.930626 0.796546 0.578438 0.255651
O133  O     O_R   0.956105 0.813674 0.601991 -0.243537
O134  O     O_R   0.887972 0.796850 0.582776 -0.203663
N76   N     N_R   0.206450 0.902701 0.558368 0.251580
O135  O     O_R   0.205636 0.898519 0.591828 -0.205485
O136  O     O_R   0.191649 0.870751 0.539050 -0.239927
N77   N     N_R   0.069312 0.796510 0.421526 0.255635
O137  O     O_R   0.043817 0.813708 0.398014 -0.243598
O138  O     O_R   0.111960 0.796760 0.417149 -0.203634
N78   N     N_R   0.793564 0.902902 0.441400 0.251566
O139  O     O_R   0.794480 0.898944 0.407924 -0.205442
O140  O     O_R   0.808263 0.870804 0.460612 -0.239969
N79   N     N_R   0.931087 0.203524 0.421287 0.255690
O141  O     O_R   0.956671 0.186660 0.397690 -0.243158
O142  O     O_R   0.888441 0.203084 0.416904 -0.203677
N80   N     N_R   0.206401 0.097293 0.441613 0.251598
O143  O     O_R   0.205546 0.101425 0.408149 -0.205477
O144  O     O_R   0.191632 0.129278 0.460910 -0.240164
N81   N     N_R   0.566634 0.794220 0.080588 0.254439
O145  O     O_R   0.609023 0.795005 0.086281 -0.206856
O146  O     O_R   0.539665 0.808699 0.104217 -0.262265
N82   N     N_R   0.202618 0.592782 0.061758 0.257667
O147  O     O_R   0.182956 0.623662 0.044101 -0.260127
O148  O     O_R   0.203492 0.595145 0.095325 -0.201882
N83   N     N_R   0.435484 0.205694 0.081509 0.254771
O149  O     O_R   0.393395 0.205645 0.088443 -0.206481
O150  O     O_R   0.463257 0.190132 0.104127 -0.264675
N84   N     N_R   0.797380 0.407100 0.061656 0.257674
O151  O     O_R   0.816898 0.376157 0.043967 -0.260010
O152  O     O_R   0.796600 0.404752 0.095225 -0.201862
N85   N     N_R   0.564329 0.205652 0.918414 0.254774
O153  O     O_R   0.606394 0.205636 0.911391 -0.206398
O154  O     O_R   0.536501 0.190005 0.895874 -0.264932
N86   N     N_R   0.202631 0.407186 0.938260 0.257665
O155  O     O_R   0.183016 0.376281 0.955915 -0.260151
O156  O     O_R   0.203457 0.404857 0.904691 -0.201839
N87   N     N_R   0.434731 0.794229 0.918852 0.254579
O157  O     O_R   0.392535 0.794528 0.912325 -0.206377
O158  O     O_R   0.462235 0.809570 0.895952 -0.264462
N88   N     N_R   0.797327 0.592935 0.938381 0.257660
O159  O     O_R   0.816788 0.623917 0.956065 -0.259883
O160  O     O_R   0.796592 0.595238 0.904810 -0.201847
N89   N     N_R   0.064272 0.294339 0.581625 0.254792
O161  O     O_R   0.106323 0.294307 0.588708 -0.206400
O162  O     O_R   0.036415 0.310051 0.604114 -0.265035
N90   N     N_R   0.702618 0.092775 0.561770 0.257687
O163  O     O_R   0.682960 0.123659 0.544114 -0.260138
O164  O     O_R   0.703517 0.095149 0.595336 -0.201898
N91   N     N_R   0.935081 0.705730 0.581323 0.254686
O165  O     O_R   0.892934 0.705552 0.588038 -0.206492
O166  O     O_R   0.962716 0.690318 0.604106 -0.264407
N92   N     N_R   0.297374 0.906994 0.561549 0.257667
O167  O     O_R   0.316842 0.876045 0.543834 -0.259960
O168  O     O_R   0.296635 0.904630 0.595118 -0.201874
N93   N     N_R   0.064892 0.705690 0.418659 0.254641
O169  O     O_R   0.107046 0.705460 0.411966 -0.206473
O170  O     O_R   0.037262 0.690310 0.395857 -0.264378
N94   N     N_R   0.702634 0.907172 0.438279 0.257671
O171  O     O_R   0.683024 0.876270 0.455940 -0.260128
O172  O     O_R   0.703472 0.904825 0.404711 -0.201861
N95   N     N_R   0.935691 0.294335 0.418393 0.254765
O173  O     O_R   0.893626 0.294365 0.411361 -0.206432
O174  O     O_R   0.963527 0.309970 0.395861 -0.264907
N96   N     N_R   0.297323 0.093017 0.438447 0.257671
O175  O     O_R   0.316777 0.123978 0.456157 -0.259939
O176  O     O_R   0.296565 0.095377 0.404879 -0.201879
N97   N     N_R   0.558170 0.867564 0.044055 0.241508
O177  O     O_R   0.600133 0.867224 0.036660 -0.267698
O178  O     O_R   0.543501 0.894193 0.067863 -0.359178
N98   N     N_R   0.133579 0.536045 0.056948 0.204261
O179  O     O_R   0.105427 0.568549 0.056114 -0.288374
O180  O     O_R   0.143332 0.517878 0.086459 -0.318478
N99   N     N_R   0.442007 0.132552 0.044215 0.241710
O181  O     O_R   0.399895 0.134141 0.037463 -0.268068
O182  O     O_R   0.456514 0.105299 0.067649 -0.359130
N100  N     N_R   0.866454 0.463766 0.056874 0.204332
O183  O     O_R   0.894491 0.431165 0.055974 -0.287942
O184  O     O_R   0.856836 0.481934 0.086411 -0.318667
N101  N     N_R   0.557990 0.132549 0.955789 0.241730
O185  O     O_R   0.600104 0.134246 0.962512 -0.268058
O186  O     O_R   0.543530 0.105239 0.932377 -0.359094
N102  N     N_R   0.133573 0.463915 0.943065 0.204277
O187  O     O_R   0.105450 0.431393 0.943907 -0.288319
O188  O     O_R   0.143289 0.482089 0.913553 -0.318497
N103  N     N_R   0.441801 0.867414 0.955982 0.241757
O189  O     O_R   0.399766 0.866066 0.963042 -0.268001
O190  O     O_R   0.456161 0.894542 0.932410 -0.358444
N104  N     N_R   0.866425 0.536285 0.943161 0.204376
O191  O     O_R   0.894414 0.568920 0.944065 -0.287802
O192  O     O_R   0.856848 0.518089 0.913625 -0.318724
N105  N     N_R   0.058001 0.367439 0.544224 0.241748
O193  O     O_R   0.100123 0.365681 0.537542 -0.268100
O194  O     O_R   0.043539 0.394781 0.567612 -0.359142
N106  N     N_R   0.633574 0.036056 0.556947 0.204257
O195  O     O_R   0.605429 0.068565 0.556105 -0.288358
O196  O     O_R   0.643317 0.017892 0.586460 -0.318507
N107  N     N_R   0.941927 0.632554 0.544143 0.241715
O197  O     O_R   0.899846 0.633970 0.537253 -0.268032
O198  O     O_R   0.956415 0.605391 0.567647 -0.358984
N108  N     N_R   0.366447 0.963662 0.556824 0.204393
O199  O     O_R   0.394439 0.931024 0.555897 -0.287733
O200  O     O_R   0.356873 0.981822 0.586373 -0.318731
N109  N     N_R   0.058046 0.632527 0.455843 0.241708
O201  O     O_R   0.100125 0.633905 0.462749 -0.267995
O202  O     O_R   0.043555 0.605372 0.432334 -0.359040
N110  N     N_R   0.633576 0.963897 0.443077 0.204267
O203  O     O_R   0.605460 0.931370 0.443924 -0.288286
O204  O     O_R   0.643292 0.982063 0.413562 -0.318522
N111  N     N_R   0.942028 0.367451 0.455763 0.241732
O205  O     O_R   0.899910 0.365774 0.462467 -0.268097
O206  O     O_R   0.956511 0.394751 0.432359 -0.359173
N112  N     N_R   0.366426 0.036371 0.443189 0.204404
O207  O     O_R   0.394396 0.069020 0.444121 -0.287684
O208  O     O_R   0.356864 0.018208 0.413638 -0.318744

loop_
_geom_bond_atom_site_label_1
_geom_bond_atom_site_label_2
_geom_bond_distance
_ccdc_geom_bond_type
O17   C17   1.279003 A    
O4    C4    1.284931 A    
C50   N42   1.438863 S    
N69   O121  1.300855 A    
C212  N20   1.157488 T    
C198  C206  1.400262 A    
O17   Zn9   2.035704 S    
O34   C10   1.290251 A    
N86   O156  1.300857 A    
C137  C153  1.396273 A    
C33   C69   1.410401 A    
C217  N25   1.157476 T    
C190  C202  1.400287 A    
C138  N74   1.434753 S    
C199  N111  1.436676 S    
C162  C178  1.418075 A    
N54   O92   1.301453 A    
C20   C97   1.442687 S    
C167  C191  1.407013 A    
N108  O199  1.300831 A    
C151  N87   1.435025 S    
C42   C58   1.411355 A    
N104  O191  1.300866 A    
C81   N49   1.438592 S    
C120  C144  1.418664 A    
C48   C60   1.411346 A    
C34   C218  1.450251 S    
C82   C98   1.403878 A    
N63   O110  1.300820 A    
N82   O147  1.300922 A    
N77   O138  1.300904 A    
C153  N89   1.435130 S    
N36   O55   1.301317 A    
C88   C108  1.407196 A    
C120  C128  1.422047 A    
C154  C170  1.411062 A    
C48   N40   1.438863 S    
O2    C2    1.284917 A    
O30   Zn12  2.035781 S    
C2    C202  1.438898 S    
O45   Zn5   2.008667 S    
N65   O114  1.300891 A    
O41   Zn5   2.008742 S    
C50   C62   1.411361 A    
N91   O166  1.300956 A    
C158  C174  1.411073 A    
C115  C127  1.418816 A    
C89   C119  1.404905 A    
N50   O83   1.301001 A    
N45   O74   1.301190 A    
C127  C183  1.407339 A    
N45   O73   1.301356 A    
N95   O174  1.301006 A    
C89   N57   1.438373 S    
C10   C66   1.465549 S    
N35   O53   1.301352 A    
C31   C215  1.450363 S    
C35   C51   1.402778 A    
N62   O108  1.301467 A    
C95   N63   1.438357 S    
N1    C80   1.354792 A    
N58   O100  1.301465 A    
C38   C222  1.450247 S    
C141  C157  1.396274 A    
C56   C64   1.411345 A    
N96   O175  1.300927 A    
C92   C104  1.403853 A    
C30   C214  1.450250 S    
C145  C161  1.418000 A    
O12   C8    1.284948 A    
N56   O96   1.301477 A    
O44   Zn8   2.008675 S    
O14   C6    1.284918 A    
C218  N26   1.157489 T    
C152  C168  1.411166 A    
N98   O179  1.300810 A    
C41   N33   1.439748 S    
C34   C70   1.411025 A    
O16   Zn6   2.034644 S    
C32   C216  1.450246 S    
N62   O107  1.300999 A    
C26   C210  1.450254 S    
C40   C224  1.450245 S    
C39   C223  1.450363 S    
C190  N102  1.438893 S    
O16   C8    1.284945 A    
C31   C47   1.402786 A    
N35   O54   1.301188 A    
N78   O140  1.300928 A    
N83   O150  1.300964 A    
C94   C102  1.403861 A    
N88   O160  1.300859 A    
N105  O194  1.301439 A    
C163  C179  1.422292 A    
N57   O97   1.301024 A    
O19   Zn9   2.035778 S    
C165  C189  1.407003 A    
C193  C205  1.401556 A    
C54   C64   1.411339 A    
N55   O93   1.300997 A    
C142  N78   1.434788 S    
C176  C184  1.418150 A    
O37   C11   1.289582 A    
N76   O136  1.301010 A    
C35   C69   1.410394 A    
O38   C12   1.290257 A    
C19   C100  1.452686 S    
C37   C71   1.410399 A    
C155  C171  1.417545 A    
C82   N50   1.436529 S    
N16   C73   1.355838 A    
C170  C194  1.404280 A    
C167  C177  1.422560 A    
C28   C44   1.402683 A    
C137  N73   1.433966 S    
N100  O183  1.300841 A    
C119  C125  1.418921 A    
C36   C220  1.450253 S    
C117  C127  1.418798 A    
O10   C6    1.284921 A    
C145  N81   1.434666 S    
N66   O115  1.300922 A    
N110  O204  1.300894 A    
O42   Zn6   2.008735 S    
C147  C163  1.417401 A    
N49   O81   1.300969 A    
C24   C101  1.443239 S    
C156  N92   1.434768 S    
C112  C136  1.418648 A    
C123  C179  1.407360 A    
C198  N110  1.438888 S    
N90   O163  1.300915 A    
C146  C162  1.411088 A    
C29   C67   1.410388 A    
C174  C198  1.404294 A    
N44   O71   1.301317 A    
N75   O134  1.300905 A    
O39   C11   1.289552 A    
N39   O61   1.301356 A    
C215  N23   1.157475 T    
C148  N84   1.434799 S    
N51   O86   1.300822 A    
C168  C180  1.418178 A    
N47   O77   1.301356 A    
N79   O142  1.300911 A    
C86   N54   1.436513 S    
C106  C130  1.418752 A    
C149  C165  1.417366 A    
C26   C66   1.411024 A    
O47   Zn7   2.008745 S    
N54   O91   1.301002 A    
C196  C208  1.400264 A    
C131  C147  1.396244 A    
C90   N58   1.436515 S    
C87   C105  1.404919 A    
C107  C131  1.412209 A    
N9    C76   1.354790 A    
C105  C129  1.411803 A    
N67   O117  1.300867 A    
O22   C20   1.276857 A    
C32   C68   1.411025 A    
C105  C121  1.418619 A    
C119  C143  1.412221 A    
N61   O105  1.301026 A    
C27   C211  1.450357 S    
C146  N82   1.434850 S    
N71   O126  1.300901 A    
N1    N16   1.328195 A    
N81   O145  1.300959 A    
C96   C116  1.407153 A    
C63   C74   1.457366 S    
C117  C141  1.412067 A    
C81   C97   1.401260 A    
C213  N21   1.157476 T    
N48   O80   1.301184 A    
C61   C76   1.457358 S    
C56   N48   1.438867 S    
C132  N68   1.434792 S    
C62   C75   1.462690 S    
N106  O196  1.300895 A    
C134  N70   1.434800 S    
C150  C166  1.411098 A    
N48   O79   1.301318 A    
C112  C124  1.422013 A    
O21   C17   1.279087 A    
N94   O171  1.300932 A    
C42   N34   1.438870 S    
N52   O87   1.301005 A    
O15   C5    1.286768 A    
O32   Zn12  2.035843 S    
C36   C52   1.402691 A    
C108  C124  1.422057 A    
O47   C15   1.289582 A    
O1    Zn1   2.034713 S    
O48   C16   1.290235 A    
C52   N44   1.438870 S    
C33   C217  1.450364 S    
C153  C169  1.417349 A    
C122  C178  1.406659 A    
C136  N72   1.434856 S    
N37   O58   1.301188 A    
C163  C187  1.407057 A    
O26   Zn11  2.035784 S    
C160  C176  1.411145 A    
N12   C75   1.355846 A    
C60   C77   1.462663 S    
C32   C48   1.402685 A    
C141  N77   1.434093 S    
N41   O66   1.301190 A    
N92   O168  1.300863 A    
N11   C76   1.354790 A    
C164  C180  1.418136 A    
O20   Zn9   2.035840 S    
C26   C42   1.402680 A    
C161  C185  1.407325 A    
C143  C159  1.396260 A    
C44   C58   1.411354 A    
N38   O59   1.301318 A    
O36   C10   1.290250 A    
N6    N11   1.328194 A    
O4    Zn4   2.034536 S    
N84   O151  1.300931 A    
C114  C126  1.422133 A    
C200  C208  1.400268 A    
O46   Zn8   2.008739 S    
N6    C77   1.355839 A    
C189  N101  1.436675 S    
C109  C123  1.418942 A    
C156  C172  1.411156 A    
N34   O52   1.301187 A    
O11   C7    1.286823 A    
O38   Zn4   2.008739 S    
N89   O161  1.300923 A    
N2    N15   1.328194 A    
C83   C99   1.401258 A    
C148  C164  1.411161 A    
C195  C207  1.401563 A    
N71   O125  1.300869 A    
O3    C3    1.286779 A    
C29   C213  1.450362 S    
N46   O76   1.301182 A    
C211  N19   1.157474 T    
O18   Zn9   2.035784 S    
C194  C206  1.400269 A    
N101  O186  1.301437 A    
N64   O111  1.301005 A    
C113  C137  1.412244 A    
C124  C180  1.406668 A    
C90   C102  1.403827 A    
C35   C219  1.450358 S    
C83   N51   1.438374 S    
N102  O188  1.300897 A    
C219  N27   1.157474 T    
N40   O64   1.301182 A    
C30   C68   1.411028 A    
N68   O119  1.300922 A    
N60   O104  1.301472 A    
C25   C209  1.450359 S    
C93   C115  1.404899 A    
N99   O181  1.300978 A    
C87   C97   1.401326 A    
C5    C205  1.448245 S    
C93   N61   1.438472 S    
N70   O123  1.300920 A    
C194  N106  1.438901 S    
N4    N13   1.328191 A    
C53   N45   1.439752 S    
C8    C208  1.439022 S    
O14   Zn8   2.034642 S    
N5    C78   1.354790 A    
C90   C118  1.407156 A    
C129  N65   1.434271 S    
N78   O139  1.300921 A    
O2    Zn2   2.034533 S    
N95   O173  1.300924 A    
C135  N71   1.434227 S    
N80   O143  1.300921 A    
N7    C78   1.354790 A    
C55   N47   1.439760 S    
C83   C109  1.404913 A    
O44   C14   1.290244 A    
C31   C67   1.410378 A    
O45   C15   1.289575 A    
O13   Zn5   2.034602 S    
C130  C146  1.396654 A    
O42   C14   1.290261 A    
O5    C3    1.286786 A    
C159  N95   1.435102 S    
N109  O202  1.301438 A    
C47   N39   1.439760 S    
N104  O192  1.300894 A    
C166  C190  1.404299 A    
C199  C205  1.401564 A    
C125  C181  1.407339 A    
N53   O90   1.300824 A    
O35   C9    1.289582 A    
O7    Zn3   2.034604 S    
C43   N35   1.439753 S    
C64   C73   1.462647 S    
O29   C21   1.279042 A    
N42   O67   1.301320 A    
O35   Zn3   2.008663 S    
N77   O137  1.300888 A    
C33   C49   1.402773 A    
N107  O197  1.300976 A    
C95   C101  1.401294 A    
N36   O56   1.301184 A    
O40   Zn2   2.008679 S    
N91   O165  1.300925 A    
C196  N108  1.438841 S    
C93   C103  1.401309 A    
N73   O129  1.300859 A    
C37   C53   1.402781 A    
C30   C46   1.402678 A    
N15   C74   1.354792 A    
C91   C103  1.401316 A    
N65   O113  1.300911 A    
O7    C1    1.286990 A    
C187  N99   1.436652 S    
N87   O157  1.300917 A    
C57   C80   1.457366 S    
C143  N79   1.433997 S    
N50   O84   1.301472 A    
N72   O127  1.300917 A    
C157  C173  1.417567 A    
N111  O206  1.301437 A    
C154  N90   1.434855 S    
O43   Zn7   2.008663 S    
C161  C177  1.422697 A    
N67   O118  1.300908 A    
O9    Zn5   2.034713 S    
C133  N69   1.433991 S    
N97   O177  1.301001 A    
O11   Zn7   2.034710 S    
N107  O198  1.301435 A    
N96   O176  1.300858 A    
N51   O85   1.301032 A    
C118  C126  1.422091 A    
C89   C101  1.401276 A    
N74   O131  1.300926 A    
C40   C72   1.411015 A    
O8    C4    1.284929 A    
C185  N97   1.436348 S    
C17   C98   1.452753 S    
N33   O50   1.301185 A    
C4    C204  1.438965 S    
C139  N75   1.434066 S    
C115  C139  1.412071 A    
C172  C184  1.418147 A    
O24   Zn10  2.035843 S    
N98   O180  1.300896 A    
O28   Zn11  2.035840 S    
C165  C179  1.422274 A    
C88   N56   1.436532 S    
C169  C181  1.422242 A    
C96   C104  1.403851 A    
O12   Zn8   2.034536 S    
N79   O141  1.300852 A    
C27   C43   1.402781 A    
N105  O193  1.300981 A    
O27   Zn11  2.035778 S    
N69   O122  1.300910 A    
N14   C73   1.355837 A    
C49   C61   1.410265 A    
N3    C80   1.354793 A    
C3    C203  1.448281 S    
C133  C149  1.396247 A    
C58   C79   1.462663 S    
C51   N43   1.439753 S    
C82   C110  1.407179 A    
C130  N66   1.434778 S    
N86   O155  1.300946 A    
O31   Zn12  2.035701 S    
N73   O130  1.300912 A    
C11   C67   1.463351 S    
O41   C13   1.289582 A    
C193  N105  1.436689 S    
C220  N28   1.157484 T    
C81   C111  1.404766 A    
C34   C50   1.402681 A    
N43   O69   1.301352 A    
C132  C148  1.396677 A    
N8    N9    1.328194 A    
C1    C201  1.448744 S    
C221  N29   1.157477 T    
C37   C221  1.450365 S    
C38   C54   1.402671 A    
C22   C103  1.443012 S    
C158  N94   1.434814 S    
N66   O116  1.300941 A    
C85   C107  1.404940 A    
C47   C59   1.410281 A    
C216  N24   1.157489 T    
C209  N17   1.157474 T    
C171  C195  1.407075 A    
N72   O128  1.300980 A    
C210  N18   1.157486 T    
C172  C196  1.404296 A    
C7    C207  1.448450 S    
C96   N64   1.436560 S    
N90   O164  1.300858 A    
C176  C200  1.404316 A    
O26   C22   1.276946 A    
N44   O72   1.301186 A    
N80   O144  1.300950 A    
N13   C74   1.354796 A    
O29   Zn12  2.035781 S    
O10   Zn6   2.034533 S    
C174  C182  1.418095 A    
C14   C70   1.465560 S    
C92   N60   1.436545 S    
C110  C134  1.418732 A    
C139  C155  1.396265 A    
C162  C186  1.404266 A    
N85   O154  1.300990 A    
N112  O207  1.300845 A    
C188  N100  1.438875 S    
C138  C154  1.396635 A    
C214  N22   1.157485 T    
C53   C63   1.410274 A    
N39   O62   1.301190 A    
C157  N93   1.434993 S    
N103  O190  1.301442 A    
C191  N103  1.436580 S    
O23   C19   1.278996 A    
N58   O99   1.300999 A    
N99   O182  1.301438 A    
C36   C70   1.411018 A    
C43   C57   1.410264 A    
N100  O184  1.300891 A    
N59   O101  1.301017 A    
N112  O208  1.300887 A    
C150  N86   1.434809 S    
O15   Zn7   2.034604 S    
C192  C204  1.400267 A    
C108  C132  1.418719 A    
N93   O170  1.301049 A    
C126  C182  1.406689 A    
N56   O95   1.301014 A    
C134  C150  1.396684 A    
O33   C9    1.289589 A    
C18   C99   1.443188 S    
C175  C181  1.422259 A    
C140  N76   1.434815 S    
C128  C184  1.406689 A    
C223  N31   1.157474 T    
C197  N109  1.436593 S    
C187  C203  1.401563 A    
C192  N104  1.438851 S    
N94   O172  1.300858 A    
C88   C100  1.403913 A    
C91   N59   1.438489 S    
C91   C117  1.404883 A    
N52   O88   1.301462 A    
C6    C206  1.438910 S    
C136  C152  1.396658 A    
C39   C71   1.410403 A    
N5    N12   1.328199 A    
N88   O159  1.300960 A    
O23   Zn10  2.035701 S    
C25   C65   1.410410 A    
N2    C79   1.355844 A    
N57   O98   1.300825 A    
N4    C79   1.355838 A    
C46   N38   1.438861 S    
C23   C104  1.452614 S    
C110  C122  1.422066 A    
C51   C61   1.410270 A    
C84   N52   1.436591 S    
N7    N10   1.328194 A    
N108  O200  1.300885 A    
C222  N30   1.157485 T    
O8    Zn2   2.034644 S    
N76   O135  1.300920 A    
O25   Zn11  2.035704 S    
N37   O57   1.301353 A    
C195  N107  1.436611 S    
O43   C13   1.289570 A    
C159  C175  1.417365 A    
O6    C2    1.284919 A    
O1    C1    1.286770 A    
C118  C142  1.418728 A    
C155  N91   1.435033 S    
C54   N46   1.438862 S    
N41   O65   1.301355 A    
C40   C56   1.402680 A    
O20   C20   1.276867 A    
O46   C16   1.290258 A    
C111  C121  1.418680 A    
O25   C21   1.279024 A    
C55   C63   1.410273 A    
N110  O203  1.300827 A    
C175  C199  1.407022 A    
C86   C106  1.407159 A    
O27   C23   1.279008 A    
N49   O82   1.300865 A    
C151  C167  1.417692 A    
C85   C99   1.401265 A    
N84   O152  1.300863 A    
C28   C66   1.411029 A    
N103  O189  1.300972 A    
C186  C202  1.400285 A    
C95   C113  1.404946 A    
N93   O169  1.300940 A    
C12   C68   1.465560 S    
C140  C156  1.396660 A    
O37   Zn1   2.008667 S    
C160  N96   1.434759 S    
C16   C72   1.465533 S    
C44   N36   1.438872 S    
C200  N112  1.438843 S    
O21   Zn10  2.035781 S    
C45   N37   1.439757 S    
N101  O185  1.300979 A    
N64   O112  1.301466 A    
O30   C24   1.276990 A    
O6    Zn4   2.034642 S    
C121  C177  1.407376 A    
O18   C18   1.276977 A    
C135  C151  1.396264 A    
C152  N88   1.434754 S    
C84   C100  1.403909 A    
C173  C183  1.422396 A    
C131  N67   1.433983 S    
O39   Zn3   2.008745 S    
N61   O106  1.300850 A    
N70   O124  1.300956 A    
O40   C12   1.290251 A    
N81   O146  1.301043 A    
C116  C128  1.422042 A    
C149  N85   1.435118 S    
C197  C207  1.401579 A    
C52   C62   1.411362 A    
C144  N80   1.434813 S    
N106  O195  1.300799 A    
C142  C158  1.396648 A    
O5    Zn1   2.034602 S    
N97   O178  1.301430 A    
N111  O205  1.300982 A    
C189  C203  1.401541 A    
O33   Zn1   2.008742 S    
C113  C125  1.418947 A    
N85   O153  1.300924 A    
O32   C22   1.276929 A    
C191  C201  1.401435 A    
C107  C123  1.418934 A    
C168  C192  1.404302 A    
C169  C193  1.407016 A    
N55   O94   1.300867 A    
C170  C182  1.418064 A    
N43   O70   1.301188 A    
N83   O149  1.300924 A    
N10   C75   1.355846 A    
N63   O109  1.301032 A    
C147  N83   1.435091 S    
O9    C5    1.286781 A    
N109  O201  1.300987 A    
C185  C201  1.401674 A    
N47   O78   1.301190 A    
C27   C65   1.410416 A    
C85   N53   1.438371 S    
N68   O120  1.301040 A    
C114  C138  1.418784 A    
N53   O89   1.301034 A    
N3    N14   1.328190 A    
N82   O148  1.300860 A    
C38   C72   1.411022 A    
N42   O68   1.301186 A    
O48   Zn6   2.008679 S    
C166  C178  1.418093 A    
C173  C197  1.407076 A    
O36   Zn4   2.008675 S    
C84   C112  1.407105 A    
C41   C57   1.410257 A    
C29   C45   1.402781 A    
O22   Zn10  2.035781 S    
N8    C77   1.355840 A    
N92   O167  1.300919 A    
C144  C160  1.396650 A    
O3    Zn3   2.034710 S    
C111  C135  1.411870 A    
C171  C183  1.422391 A    
N87   O158  1.300942 A    
O31   C23   1.279011 A    
C86   C98   1.403915 A    
C94   C114  1.407207 A    
C21   C102  1.452726 S    
C186  N98   1.438902 S    
C94   N62   1.436469 S    
N34   O51   1.301314 A    
O19   C19   1.279067 A    
C224  N32   1.157486 T    
N75   O133  1.300898 A    
N89   O162  1.301002 A    
C39   C55   1.402778 A    
C87   N55   1.438627 S    
N59   O102  1.300848 A    
O24   C18   1.276967 A    
C28   C212  1.450253 S    
C25   C41   1.402770 A    
C45   C59   1.410276 A    
C59   C78   1.457362 S    
C129  C145  1.396214 A    
N46   O75   1.301316 A    
C188  C204  1.400284 A    
N74   O132  1.300894 A    
C109  C133  1.412210 A    
N33   O49   1.301353 A    
O28   C24   1.276980 A    
O13   C7    1.286815 A    
C46   C60   1.411344 A    
C164  C188  1.404296 A    
C9    C65   1.463413 S    
N38   O60   1.301184 A    
C49   N41   1.439746 S    
N102  O187  1.300841 A    
N40   O63   1.301320 A    
C92   C120  1.407167 A    
O34   Zn2   2.008735 S    
N60   O103  1.301002 A    
C13   C69   1.463371 S    
C106  C122  1.422074 A    
C116  C140  1.418664 A    
C15   C71   1.463382 S    
