data_mof_unit_18406.cif
_audit_creation_date              2012-12-11T15:41:22-0500
_audit_creation_method            fapswitch 2.2
_symmetry_space_group_name_H-M    P1
_symmetry_Int_Tables_number       1
_space_group_crystal_system       triclinic
_cell_length_a                    15.080993
_cell_length_b                    15.150724
_cell_length_c                    15.163501
_cell_angle_alpha                 109.234114
_cell_angle_beta                  110.042873
_cell_angle_gamma                 110.082835
_cell_volume                      2635.36930331

loop_
_atom_site_label
_atom_site_type_symbol
_atom_type_description
_atom_site_fract_x
_atom_site_fract_y
_atom_site_fract_z
_atom_type_partial_charge
C1    C     C_R   0.243030 0.056773 0.963317 -0.135017
C2    C     C_R   0.677373 0.777404 0.354177 0.553129
C3    C     C_R   0.379087 0.259275 0.673722 -0.274345
C4    C     C_R   0.610221 0.702404 0.242422 -0.315966
C5    C     C_R   0.345399 0.299088 0.745682 -0.162411
C6    C     C_R   0.656797 0.673530 0.180065 -0.161238
C7    C     C_R   0.231881 0.253860 0.708747 0.349258
C8    C     C_R   0.772390 0.722881 0.230665 0.324579
C9    C     C_R   0.153948 0.170164 0.600182 0.438377
C10   C     C_R   0.839148 0.797050 0.343392 0.420638
C11   C     C_R   0.188838 0.131943 0.529403 -0.311022
C12   C     C_R   0.803496 0.004253 0.094975 -0.191781
C13   C     C_R   0.791403 0.823991 0.404536 -0.276115
C14   C     C_R   0.430168 0.492267 0.878802 -0.171206
C15   C     C_R   0.584642 0.488319 0.040331 -0.170104
C16   C     C_R   0.806533 0.209005 0.297613 -0.160632
C17   C     C_R   0.252001 0.775724 0.686733 -0.166446
C18   C     C_R   0.504972 0.583770 0.982891 0.028272
C19   C     C_R   0.507468 0.394657 0.937806 0.036189
C20   C     C_R   0.583322 0.582927 0.064969 0.176672
C21   C     C_R   0.428950 0.395546 0.855499 0.160300
C22   C     C_R   0.046424 0.473042 0.378184 -0.152472
C23   C     C_R   0.870084 0.303352 0.302146 -0.169778
C24   C     C_R   0.127558 0.470610 0.571190 -0.139511
C25   C     C_R   0.132976 0.568341 0.473776 -0.163414
C26   C     C_R   0.036697 0.377290 0.477222 -0.174243
C27   C     C_R   0.164018 0.569932 0.572856 0.148054
C28   C     C_R   0.987296 0.382388 0.383453 0.184598
C29   C     C_R   0.562030 0.112909 0.589009 -0.065637
C30   C     C_R   0.433042 0.897364 0.413422 -0.017969
C31   C     C_R   0.570581 0.089100 0.498051 -0.114684
C32   C     C_R   0.423721 0.921285 0.503763 -0.138042
C33   C     C_R   0.506375 0.981338 0.411228 0.220600
C34   C     C_R   0.219874 0.672684 0.674955 -0.134482
C35   C     C_R   0.488915 0.028679 0.591005 0.212334
C36   C     C_R   0.149727 0.130245 0.138051 -0.436066
C37   C     C_R   0.932168 0.989112 0.964030 -0.403340
C38   C     C_R   0.065691 0.136234 0.152789 0.624375
C39   C     C_R   0.015508 0.982489 0.949315 0.666314
C40   C     C_R   0.411887 0.917216 0.215548 0.523110
C41   C     C_R   0.588043 0.078729 0.782826 0.526123
C42   C     C_R   0.957667 0.065387 0.064707 -0.082727
C43   C     C_R   0.123212 0.050531 0.038498 -0.077617
C44   C     C_R   0.591141 0.293916 0.989852 -0.130756
C45   C     C_R   0.504621 0.961880 0.312994 -0.215448
C46   C     C_R   0.409972 0.687414 0.968558 -0.189433
C47   C     C_R   0.594115 0.012463 0.306496 0.398701
C48   C     C_R   0.406363 0.997192 0.698368 0.374360
C49   C     C_R   0.409012 0.207363 0.904830 -0.055549
C50   C     C_R   0.594638 0.781702 0.055147 -0.052289
C51   C     C_R   0.801810 0.303466 0.213268 0.609127
C52   C     C_R   0.239971 0.684916 0.776089 0.568859
C53   C     C_R   0.235934 0.960999 0.050272 0.569344
C54   C     C_R   0.806964 0.102819 0.013438 0.567641
C55   C     C_R   0.207075 0.033297 0.029011 -0.053427
C56   C     C_R   0.495211 0.045987 0.690354 -0.262271
C57   C     C_R   0.868350 0.070976 0.072158 -0.051055
C58   C     C_3   0.108696 0.182483 0.326019 -0.221559
C59   C     C_3   0.954860 0.928263 0.770251 -0.151266
C60   C     C_3   0.278603 0.738130 0.097910 -0.094901
C61   C     C_3   0.717478 0.051996 0.756169 -0.058056
C62   C     C_3   0.817586 0.463912 0.238343 -0.288887
C63   C     C_3   0.089260 0.604439 0.785970 -0.196355
C64   C     C_3   0.173564 0.938890 0.165854 0.010523
C65   C     C_3   0.954549 0.270338 0.071785 -0.055135
C66   C     C_R   0.501005 0.296506 0.931389 0.027695
C67   C     C_R   0.503273 0.680615 0.001470 0.049466
C68   C     C_R   0.300864 0.176787 0.565590 0.550687
Cl1   Cl    Cl    0.342549 0.131353 0.473841 -0.715885
Cl2   Cl    Cl    0.618410 0.809322 0.432457 -0.683677
Cl3   Cl    Cl    0.187043 0.300692 0.798139 -0.619671
Cl4   Cl    Cl    0.833706 0.693563 0.153057 -0.625360
Cl5   Cl    Cl    0.011965 0.114167 0.549720 -0.536210
Cl6   Cl    Cl    0.982549 0.853694 0.410780 -0.520969
Cl7   Cl    Cl    0.727137 0.044935 0.392407 -0.610048
Cl8   Cl    Cl    0.275415 0.976297 0.623363 -0.608937
H1    H     H_    0.226533 0.103036 0.925570 0.144340
H2    H     H_    0.000599 0.305499 0.482497 0.171125
H3    H     H_    0.613064 0.195401 0.657998 0.152901
H4    H     H_    0.384090 0.814109 0.346163 0.161171
H5    H     H_    0.624988 0.154737 0.494298 0.149570
H6    H     H_    0.369860 0.855486 0.507798 0.134016
H7    H     H_    0.234438 0.184251 0.204662 0.190422
H8    H     H_    0.847382 0.934328 0.897576 0.166352
H9    H     H_    0.838065 0.174721 0.343086 0.209053
H10   H     H_    0.246082 0.795232 0.623861 0.183532
H11   H     H_    0.674970 0.346080 0.013635 0.189536
H12   H     H_    0.829026 0.971396 0.145717 0.158346
H13   H     H_    0.327876 0.623417 0.935868 0.194869
H14   H     H_    0.324034 0.180665 0.853161 0.148598
H15   H     H_    0.680369 0.805598 0.094364 0.132337
H16   H     H_    0.128746 0.067903 0.445682 0.223051
H17   H     H_    0.842906 0.880419 0.491525 0.224145
H18   H     H_    0.180979 0.171805 0.343589 0.172782
H19   H     H_    0.034620 0.106034 0.298680 0.151342
H20   H     H_    0.127554 0.246585 0.403284 0.181614
H21   H     H_    0.013239 0.013030 0.795303 0.147604
H22   H     H_    0.871208 0.915642 0.746612 0.134435
H23   H     H_    0.465876 0.294696 0.700757 0.180038
H24   H     H_    0.949415 0.872292 0.696912 0.190649
H25   H     H_    0.200855 0.673212 0.080015 0.170690
H26   H     H_    0.341687 0.714799 0.121732 0.105634
H27   H     H_    0.262161 0.741810 0.022553 0.154456
H28   H     H_    0.671336 0.013389 0.666165 0.148838
H29   H     H_    0.699585 0.988139 0.779314 0.080217
H30   H     H_    0.806394 0.092667 0.783772 0.185070
H31   H     H_    0.875596 0.507901 0.327649 0.164201
H32   H     H_    0.731868 0.433376 0.221882 0.131066
H33   H     H_    0.836244 0.523704 0.210850 0.235893
H34   H     H_    0.521626 0.664138 0.204710 0.183573
H35   H     H_    0.031581 0.582275 0.702371 0.154854
H36   H     H_    0.108637 0.684276 0.847047 0.155917
H37   H     H_    0.046681 0.541775 0.802723 0.191643
H38   H     H_    0.094401 0.937118 0.137465 0.122683
H39   H     H_    0.244822 0.023217 0.227241 0.116835
H40   H     H_    0.170479 0.891286 0.207926 0.220432
H41   H     H_    0.975962 0.290683 0.156495 0.142416
H42   H     H_    0.968857 0.345862 0.068746 0.175320
H43   H     H_    0.009072 0.246496 0.049773 0.123716
H44   H     H_    0.372145 0.496127 0.815887 0.150026
H45   H     H_    0.640951 0.486061 0.105708 0.130659
H46   H     H_    0.020535 0.475471 0.303829 0.178826
H47   H     H_    0.160603 0.465673 0.643615 0.192818
H48   H     H_    0.167938 0.641436 0.470071 0.139874
N1    N     N_R   0.293810 0.002730 0.945950 -0.069846
N2    N     N_R   0.443210 0.997250 0.791090 -0.121740
N3    N     N_R   0.443180 0.152110 0.945950 -0.057234
N4    N     N_R   0.556820 0.847890 0.054050 -0.046092
N5    N     N_R   0.706170 0.208950 0.152090 -0.102567
N6    N     N_R   0.293830 0.791050 0.847910 -0.106489
N7    N     N_R   0.293800 0.945910 0.002760 -0.108326
N8    N     N_R   0.706200 0.054090 0.997240 -0.105114
N9    N     N_R   0.706190 0.997270 0.054050 -0.080898
N10   N     N_R   0.706160 0.152130 0.208910 -0.075317
N11   N     N_R   0.293840 0.847870 0.791090 -0.055149
N12   N     N_R   0.443140 0.945920 0.152090 -0.143139
N13   N     N_R   0.556860 0.054080 0.847910 -0.119790
N14   N     N_R   0.556830 0.208940 0.002760 -0.054730
N15   N     N_R   0.443170 0.791060 0.997240 -0.065105
N16   N     N_R   0.556790 0.002750 0.208910 -0.118134
Ni1   Ni    Ni4+2 0.369690 0.999990 0.869700 0.254956
Ni2   Ni    Ni4+2 0.630310 0.000010 0.130300 0.228919
Ni3   Ni    Ni4+2 0.369670 0.869670 0.000000 0.215119
Ni4   Ni    Ni4+2 0.630330 0.130330 0.000000 0.277813
O1    O     O_3   0.089109 0.216334 0.248918 -0.629253
O2    O     O_3   0.992082 0.903068 0.852368 -0.616219
O3    O     O_3   0.309112 0.837299 0.182993 -0.608762
O4    O     O_3   0.694979 0.131341 0.806625 -0.579251
O5    O     O_3   0.829928 0.378635 0.181146 -0.640185
O6    O     O_3   0.185359 0.604953 0.793867 -0.669287
O7    O     O_3   0.183310 0.887450 0.076177 -0.613211
O8    O     O_3   0.843273 0.189058 0.995245 -0.594373

loop_
_geom_bond_atom_site_label_1
_geom_bond_atom_site_label_2
_ccdc_geom_bond_type
N8    Ni4   S    
N2    N13   A    
C64   H40   S    
C62   O5    S    
C33   C45   S    
C14   C18   A    
C44   C66   A    
N6    N11   A    
C24   C27   A    
C49   H14   S    
N12   N16   A    
C16   N10   A    
C51   N5    A    
C58   O1    S    
C41   C56   A    
N5    Ni4   S    
C15   C19   A    
C40   N12   A    
N9    Ni2   S    
C26   H2    S    
C14   C21   A    
C19   C21   A    
C61   O4    S    
N16   Ni2   S    
C38   C42   A    
N12   Ni3   S    
C7    Cl3   S    
C62   H32   S    
C36   H7    S    
C54   O8    S    
C63   H36   S    
C1    H1    S    
C19   C66   S    
C48   C56   A    
N3    Ni1   S    
C37   C42   A    
C2    C13   A    
C58   H20   S    
N15   Ni3   S    
C11   H16   S    
C3    C68   A    
N1    Ni1   S    
C68   Cl1   S    
C22   C25   A    
C47   N16   A    
C17   N11   A    
C65   H42   S    
C31   C33   A    
C37   H8    S    
C53   N7    A    
N3    N14   A    
C44   H11   S    
C61   H29   S    
C50   C67   A    
C41   N13   A    
C30   C33   A    
C30   H4    S    
C45   C47   A    
C64   H39   S    
C22   C28   A    
C63   H35   S    
C59   H24   S    
C15   C20   A    
C9    Cl5   S    
C60   H26   S    
C42   C57   S    
C22   H46   S    
C53   C55   A    
C27   C34   S    
C40   C45   A    
C49   N3    A    
C8    Cl4   S    
C64   H38   S    
C49   C66   A    
C12   H12   S    
C64   O7    S    
C17   H10   S    
C32   C35   A    
C61   H28   S    
C4    C6    A    
C5    C7    A    
N8    N9    A    
C39   C43   A    
C62   H31   S    
C18   C67   S    
C52   O6    S    
C24   H47   S    
N5    N10   A    
C13   H17   S    
C2    C4    A    
C58   H19   S    
C63   O6    S    
N6    Ni3   S    
C46   H13   S    
N10   Ni2   S    
N1    N7    A    
C23   C51   A    
C29   H3    S    
N11   Ni1   S    
C65   H43   S    
C23   C28   S    
C61   H30   S    
C9    C11   A    
C12   C57   A    
C43   C55   S    
C60   O3    S    
N13   Ni4   S    
C16   C23   A    
C14   H44   S    
C12   N9    A    
C16   H9    S    
C59   H21   S    
C50   N4    A    
C17   C34   A    
C60   H25   S    
C60   H27   S    
N7    Ni3   S    
C11   C68   A    
C7    C9    A    
C4    H34   S    
C44   N14   A    
C15   H45   S    
C40   O3    S    
C35   C56   S    
C38   O1    S    
C34   C52   A    
N4    N15   A    
C24   C26   A    
C3    C5    A    
C10   C13   A    
C6    C8    A    
C25   C27   A    
C32   H6    S    
C29   C35   A    
N2    Ni1   S    
C26   C28   A    
C31   H5    S    
C1    N1    A    
C54   N8    A    
C52   N6    A    
C65   O8    S    
C36   C38   A    
C58   H18   S    
C47   Cl7   S    
C46   C67   A    
C29   C31   A    
N14   Ni4   S    
C30   C32   A    
C10   Cl6   S    
C62   H33   S    
C6    C20   S    
C39   O2    S    
C18   C20   A    
C1    C55   A    
C25   H48   S    
C48   N2    A    
C48   Cl8   S    
C63   H37   S    
C59   O2    S    
C3    H23   S    
C50   H15   S    
C37   C39   A    
C5    C21   S    
C51   O5    S    
C8    C10   A    
C53   O7    S    
C59   H22   S    
C65   H41   S    
C36   C43   A    
C2    Cl2   S    
N4    Ni2   S    
C46   N15   A    
C54   C57   A    
C41   O4    S    
