data_mof_unit_39637.cif
_audit_creation_date              2012-12-10T19:24:10-0500
_audit_creation_method            fapswitch 2.2
_symmetry_space_group_name_H-M    P1
_symmetry_Int_Tables_number       1
_space_group_crystal_system       triclinic
_cell_length_a                    10.501386
_cell_length_b                    10.486758
_cell_length_c                    9.772323
_cell_angle_alpha                 90.404535
_cell_angle_beta                  90.446582
_cell_angle_gamma                 89.507927
_cell_volume                      1076.0831979

loop_
_atom_site_label
_atom_site_type_symbol
_atom_type_description
_atom_site_fract_x
_atom_site_fract_y
_atom_site_fract_z
_atom_type_partial_charge
C1    C     C_R   0.500958 0.257535 0.499481 0.907396
C2    C     C_3   0.607446 0.539964 0.049724 -0.052378
C3    C     C_R   0.257722 0.501304 0.499473 0.950124
C4    C     C_R   0.742269 0.498785 0.500524 0.945169
C5    C     C_3   0.045416 0.393155 0.560049 -0.297637
C6    C     C_3   0.954538 0.606952 0.439895 -0.346658
C7    C     C_3   0.960299 0.398410 0.431564 0.559274
C8    C     C_3   0.039645 0.601720 0.568397 0.486271
C9    C     C_3   0.877073 0.498547 0.501393 -0.170919
C10   C     C_3   0.122901 0.501589 0.498578 -0.160210
C11   C     C_3   0.960270 0.494976 0.631119 -0.251154
C12   C     C_R   0.499141 0.742460 0.500525 0.897824
C13   C     C_3   0.039693 0.505141 0.368833 -0.229815
C14   C     C_3   0.596999 0.041393 0.578847 -0.135499
C15   C     C_3   0.403248 0.958588 0.421194 -0.119913
C16   C     C_3   0.611248 0.955417 0.450854 -0.140260
C17   C     C_3   0.389006 0.044554 0.549187 -0.115738
C18   C     C_3   0.499085 0.877609 0.501493 -0.014265
C19   C     C_3   0.501155 0.122373 0.498539 -0.013553
C20   C     C_3   0.484791 0.960870 0.629593 -0.138053
C21   C     C_3   0.515460 0.039105 0.370443 -0.129287
C22   C     C_3   0.481700 0.386551 0.047546 -0.070678
C23   C     C_3   0.518301 0.613449 0.952454 -0.073190
C24   C     C_3   0.589046 0.426556 0.951487 -0.049459
C25   C     C_3   0.410955 0.573444 0.048512 -0.048932
C26   C     C_3   0.392554 0.460036 0.950277 -0.051705
H1    H     H_    0.086254 0.305733 0.607241 0.185250
H2    H     H_    0.528226 0.075092 0.264885 0.163950
H3    H     H_    0.664070 0.364713 0.905847 0.145393
H4    H     H_    0.335932 0.635288 0.094153 0.145114
H5    H     H_    0.466286 0.290893 0.092152 0.139292
H6    H     H_    0.533719 0.709106 0.907847 0.138374
H7    H     H_    0.301965 0.426423 0.903744 0.151048
H8    H     H_    0.698036 0.573576 0.096257 0.151173
H9    H     H_    0.996378 0.098471 0.244221 0.386184
H10   H     H_    0.917426 0.844222 0.633001 0.344314
H11   H     H_    0.913684 0.694333 0.392632 0.170596
H12   H     H_    0.924986 0.492077 0.737865 0.194202
H13   H     H_    0.074967 0.508053 0.262083 0.190959
H14   H     H_    0.701615 0.914233 0.411225 0.153130
H15   H     H_    0.298663 0.085743 0.588863 0.172227
H16   H     H_    0.675622 0.079723 0.643201 0.178509
H17   H     H_    0.324624 0.920217 0.356867 0.177025
H18   H     H_    0.472033 0.924880 0.735151 0.167023
N1    N     N_3   0.499910 0.500030 0.863290 -0.088306
N2    N     N_3   0.500090 0.499970 0.136710 -0.088260
O1    O     O_R   0.500010 0.313960 0.616610 -0.639687
O2    O     O_2   0.827976 0.302378 0.218417 -0.311986
O3    O     O_3   0.032730 0.175823 0.287579 -0.559695
O4    O     O_2   0.173563 0.697881 0.780135 -0.276779
O5    O     O_2   0.171583 0.820261 0.567372 -0.341505
O6    O     O_3   0.967346 0.823202 0.716404 -0.524066
O7    O     O_R   0.499990 0.686040 0.383390 -0.639798
O8    O     O_R   0.500060 0.313950 0.383350 -0.605715
O9    O     O_R   0.499940 0.686050 0.616650 -0.608323
O10   O     O_R   0.313930 0.499970 0.616610 -0.591649
O11   O     O_R   0.686070 0.500030 0.383390 -0.589077
O12   O     O_R   0.313980 0.499960 0.383350 -0.630498
O13   O     O_R   0.686020 0.500040 0.616650 -0.632949
O14   O     O_2   0.826257 0.182101 0.433167 -0.353528
S1    S     S_3+6 0.906021 0.261478 0.340220 0.004949
S2    S     S_3+6 0.093488 0.738845 0.659917 0.023765
Zn1   Zn    Zn3+2 0.499970 0.500010 0.655740 0.979922
Zn2   Zn    Zn3+2 0.500030 0.499990 0.344260 0.982663

loop_
_geom_bond_atom_site_label_1
_geom_bond_atom_site_label_2
_ccdc_geom_bond_type
C4    O11   A    
H9    O3    S    
C15   C18   S    
C22   N2    S    
C1    O8    A    
C7    C9    S    
C16   C21   S    
C23   N1    S    
C11   H12   S    
C5    C7    S    
C3    O10   A    
C26   H7    S    
O13   Zn1   S    
C12   O7    A    
H10   O6    S    
C15   C21   S    
C14   H16   S    
C23   H6    S    
C2    H8    S    
C6    C9    S    
C25   C26   S    
C6    H11   S    
C15   H17   S    
C5    C10   S    
C3    C10   S    
O6    S2    S    
C2    N2    S    
C6    C13   S    
O12   Zn2   S    
C9    C11   S    
O2    S1    D    
O5    S2    D    
O8    Zn2   S    
C16   H14   S    
C8    C11   S    
C24   N1    S    
C14   C19   S    
C4    O13   A    
C8    C10   S    
C20   H18   S    
C21   H2    S    
C8    S2    S    
C1    O1    A    
C5    C11   S    
C18   C20   S    
C23   C25   S    
C2    C24   S    
O4    S2    D    
O7    Zn2   S    
C14   C16   S    
O10   Zn1   S    
C17   H15   S    
C1    C19   S    
C22   H5    S    
C12   O9    A    
C3    O12   A    
C14   C20   S    
C7    C13   S    
C17   C20   S    
O3    S1    S    
O11   Zn2   S    
C16   C18   S    
C22   C26   S    
C22   C24   S    
C12   C18   S    
C2    C23   S    
C15   C17   S    
C24   H3    S    
C25   H4    S    
C6    C8    S    
C26   N1    S    
C17   C19   S    
C4    C9    S    
C5    H1    S    
C25   N2    S    
N1    Zn1   S    
C7    S1    S    
C13   H13   S    
O1    Zn1   S    
N2    Zn2   S    
O14   S1    D    
C19   C21   S    
C10   C13   S    
O9    Zn1   S    
