data_mof_unit_21462.cif
_audit_creation_date              2012-12-10T18:06:42-0500
_audit_creation_method            fapswitch 2.2
_symmetry_space_group_name_H-M    P1
_symmetry_Int_Tables_number       1
_space_group_crystal_system       triclinic
_cell_length_a                    12.622201
_cell_length_b                    13.176337
_cell_length_c                    15.452964
_cell_angle_alpha                 84.331797
_cell_angle_beta                  98.804348
_cell_angle_gamma                 96.87652
_cell_volume                      2513.00710735

loop_
_atom_site_label
_atom_site_type_symbol
_atom_type_description
_atom_site_fract_x
_atom_site_fract_y
_atom_site_fract_z
_atom_type_partial_charge
C1    C     C_R   0.442426 0.308603 0.507635 0.870792
C2    C     C_R   0.470485 0.572442 0.100537 0.080272
C3    C     C_R   0.374635 0.617076 0.065647 0.172925
C4    C     C_R   0.550229 0.565728 0.046559 -0.065508
C5    C     C_R   0.520039 0.578771 0.954702 0.025417
C6    C     C_R   0.424704 0.624744 0.920991 -0.197186
C7    C     C_R   0.354964 0.646705 0.976257 -0.226909
C8    C     C_R   0.658598 0.547007 0.079975 0.433802
C9    C     C_R   0.727243 0.525219 0.023295 -0.310504
C10   C     C_R   0.691200 0.519850 0.933506 0.038419
C11   C     C_R   0.585708 0.544697 0.899450 0.073595
C12   C     C_R   0.436929 0.516616 0.336081 0.888717
C13   C     C_R   0.757214 0.488915 0.876774 0.040010
C14   C     C_R   0.716027 0.478282 0.788591 -0.240555
C15   C     C_R   0.545207 0.527745 0.812255 -0.220624
C16   C     C_R   0.637498 0.939135 0.367808 -0.189910
C17   C     C_R   0.584332 0.800347 0.471230 -0.045731
C18   C     C_R   0.343922 0.161998 0.581706 -0.186267
C19   C     C_R   0.332650 0.058246 0.608255 -0.144759
C20   C     C_R   0.390120 0.991979 0.573947 -0.172852
C21   C     C_R   0.455371 0.028024 0.507785 0.072472
C22   C     C_R   0.452022 0.130264 0.471061 0.039093
C23   C     C_R   0.556294 0.691399 0.489618 0.858075
C24   C     C_R   0.521487 0.965479 0.475270 0.078967
C25   C     C_R   0.574882 0.002289 0.402018 0.159017
C26   C     C_R   0.558176 0.098215 0.359476 -0.293190
C27   C     C_R   0.493118 0.160002 0.390795 -0.007278
C28   C     C_R   0.534020 0.866073 0.512174 -0.247784
C29   C     C_R   0.640539 0.837453 0.401392 -0.198845
C30   C     C_R   0.407176 0.199053 0.515954 -0.110830
C31   C     C_R   0.137645 0.642064 0.622843 -0.339181
C32   C     C_R   0.756527 0.380593 0.394581 0.058384
C33   C     C_R   0.851184 0.356021 0.370686 -0.223692
C34   C     C_R   0.565298 0.489278 0.663864 0.874560
C35   C     C_R   0.949272 0.401682 0.410263 -0.205490
C36   C     C_R   0.952317 0.472519 0.474019 0.018615
C37   C     C_R   0.853421 0.495297 0.495372 0.219181
C38   C     C_R   0.048698 0.521619 0.517147 -0.006476
C39   C     C_R   0.043766 0.592788 0.579585 0.179652
C40   C     C_R   0.945190 0.614222 0.598513 -0.271541
C41   C     C_R   0.851152 0.565866 0.556771 -0.212033
C42   C     C_R   0.150506 0.502861 0.501357 -0.083654
C43   C     C_R   0.235866 0.620494 0.604359 0.153854
C44   C     C_R   0.407161 0.543606 0.242292 -0.074829
C45   C     C_R   0.609307 0.496058 0.756626 -0.084770
C46   C     C_R   0.298609 0.628771 0.120459 -0.198040
C47   C     C_R   0.316087 0.594162 0.209217 -0.192924
C48   C     C_R   0.479782 0.528639 0.186601 -0.187246
H1    H     H_    0.282889 0.682243 0.948324 0.145786
H2    H     H_    0.679910 0.786526 0.369057 0.154367
H3    H     H_    0.590748 0.122501 0.298760 0.149171
H4    H     H_    0.677918 0.966277 0.311543 0.135264
H5    H     H_    0.499845 0.835129 0.569893 0.160352
H6    H     H_    0.307281 0.213859 0.615515 0.159768
H7    H     H_    0.379518 0.912921 0.599235 0.142062
H8    H     H_    0.283536 0.029774 0.658904 0.143779
H9    H     H_    0.461742 0.535440 0.787406 0.168277
H10   H     H_    0.940693 0.668424 0.645938 0.157823
H11   H     H_    0.134459 0.696544 0.670461 0.144281
H12   H     H_    0.162559 0.450123 0.455745 0.136576
H13   H     H_    0.679657 0.345921 0.364051 0.143723
H14   H     H_    0.020533 0.380315 0.389378 0.143612
H15   H     H_    0.848581 0.302036 0.321750 0.152567
H16   H     H_    0.777610 0.585183 0.573686 0.215707
H17   H     H_    0.767083 0.455259 0.745202 0.170548
H18   H     H_    0.808291 0.509562 0.051218 0.181392
H19   H     H_    0.226242 0.664912 0.094785 0.140926
H20   H     H_    0.259049 0.607112 0.251624 0.163533
H21   H     H_    0.542047 0.479498 0.210867 0.221095
H22   H     H_    0.403976 0.647203 0.852103 0.161917
N1    N     N_R   0.239390 0.551900 0.544730 -0.123007
N2    N     N_R   0.759950 0.448600 0.455730 -0.141604
O1    O     O_R   0.374950 0.371210 0.521360 -0.616463
O2    O     O_R   0.542050 0.338030 0.492790 -0.604076
O3    O     O_R   0.368720 0.526070 0.390200 -0.618735
O4    O     O_R   0.535820 0.492890 0.361630 -0.617620
O5    O     O_R   0.457950 0.661970 0.507210 -0.600459
O6    O     O_R   0.625050 0.628790 0.478640 -0.647420
O7    O     O_R   0.464180 0.507110 0.638370 -0.609395
O8    O     O_R   0.631280 0.473930 0.609800 -0.634323
Zn1   Zn    Zn3+2 0.388420 0.522150 0.519080 0.951585
Zn2   Zn    Zn3+2 0.611580 0.477850 0.480920 0.931159
C49   C     C_1   0.866975 0.467089 0.906937 0.128184
N3    N     N_1   0.954861 0.449664 0.931002 -0.204133
C50   C     C_1   0.451363 0.240782 0.330058 0.154305
N4    N     N_1   0.416232 0.303264 0.279718 -0.230988
C51   C     C_1   0.332891 0.671433 0.649022 0.185025
N5    N     N_1   0.410429 0.712944 0.685477 -0.267328
O9    O     O_3   0.700499 0.550047 0.167816 -0.625316
C52   C     C_3   0.739532 0.652112 0.184463 0.086828
H23   H     H_    0.672066 0.701243 0.175069 0.143795
H24   H     H_    0.800150 0.684377 0.140869 0.141823
C53   C     C_3   0.794157 0.653753 0.279216 -0.802223
H25   H     H_    0.861908 0.605221 0.290481 0.262329
H26   H     H_    0.826288 0.733486 0.293407 0.195432
H27   H     H_    0.735239 0.623839 0.324504 0.272885

loop_
_geom_bond_atom_site_label_1
_geom_bond_atom_site_label_2
_ccdc_geom_bond_type
C19   H8    S    
C51   N5    T    
C53   H25   S    
C17   C29   A    
C35   C36   A    
C48   H21   S    
C4    C8    A    
C32   N2    A    
C50   N4    T    
C26   C27   A    
C17   C23   S    
C31   C43   A    
C1    O2    A    
C36   C37   A    
C32   H13   S    
C38   C42   A    
C3    C7    A    
C38   C39   A    
C18   C19   A    
C31   H11   S    
C27   C50   S    
C9    H18   S    
C42   N1    A    
C34   O8    A    
C11   C15   A    
C19   C20   A    
C8    C9    A    
C18   C30   A    
C9    C10   A    
C44   C47   A    
C53   H26   S    
C21   C22   A    
C15   H9    S    
C37   N2    A    
O2    Zn2   S    
C20   H7    S    
O1    Zn1   S    
C14   C45   A    
C29   H2    S    
C40   H10   S    
C16   H4    S    
C24   C25   A    
C7    H1    S    
O8    Zn2   S    
O4    Zn2   S    
C39   C40   A    
O7    Zn1   S    
O3    Zn1   S    
C2    C48   A    
C16   C29   A    
C2    C4    A    
C34   O7    A    
O6    Zn2   S    
C52   H24   S    
C49   N3    T    
O5    Zn1   S    
C33   H15   S    
C34   C45   S    
C23   O5    A    
C40   C41   A    
C53   H27   S    
C22   C27   A    
C12   O4    A    
C21   C24   A    
C15   C45   A    
C42   H12   S    
C47   H20   S    
C52   C53   S    
C16   C25   A    
C6    H22   S    
C46   C47   A    
C43   N1    A    
C22   C30   A    
C17   C28   A    
C24   C28   A    
C4    C5    A    
C10   C13   A    
C28   H5    S    
C5    C11   A    
C6    C7    A    
C13   C49   S    
C3    C46   A    
C43   C51   S    
C32   C33   A    
C36   C38   A    
C2    C3    A    
C25   C26   A    
C1    O1    A    
C46   H19   S    
C12   C44   S    
C26   H3    S    
C52   H23   S    
C5    C6    A    
C1    C30   S    
C33   C35   A    
C14   H17   S    
C31   C39   A    
C35   H14   S    
C23   O6    A    
C37   C41   A    
C10   C11   A    
C18   H6    S    
C20   C21   A    
C12   O3    A    
C8    O9    S    
C41   H16   S    
O9    C52   S    
C13   C14   A    
N2    Zn2   S    
C44   C48   A    
N1    Zn1   S    
