data_mof_unit_46972.cif
_audit_creation_date              2012-10-26T19:21:06-0400
_audit_creation_method            fapswitch 2.2
_symmetry_space_group_name_H-M    P1
_symmetry_Int_Tables_number       1
_space_group_crystal_system       triclinic
_cell_length_a                    9.832353
_cell_length_b                    11.040351
_cell_length_c                    13.369199
_cell_angle_alpha                 94.831003
_cell_angle_beta                  80.790538
_cell_angle_gamma                 111.385626
_cell_volume                      1333.39151345

loop_
_atom_site_label
_atom_site_type_symbol
_atom_type_description
_atom_site_fract_x
_atom_site_fract_y
_atom_site_fract_z
_atom_type_partial_charge
C1    C     C_R   0.556637 0.745473 0.507269 0.550062
C2    C     C_R   0.374268 0.484704 0.801227 0.001478
C3    C     C_2   0.588624 0.884912 0.511020 -0.129922
C4    C     C_R   0.422615 0.492476 0.691005 0.527586
C5    C     C_2   0.484793 0.930520 0.497540 -0.160885
C6    C     C_2   0.411715 0.115136 0.488453 -0.131907
C7    C     C_2   0.516005 0.069606 0.501005 -0.153606
C8    C     C_2   0.927837 0.499698 0.482801 0.353634
C9    C     C_2   0.082663 0.520331 0.500663 -0.025576
C10   C     C_R   0.443451 0.254547 0.492589 0.563609
C11   C     C_R   0.579026 0.516509 0.309618 0.541564
C12   C     C_R   0.438764 0.503417 0.972940 0.027533
C13   C     C_R   0.801967 0.680510 0.069933 0.239617
C14   C     C_R   0.627929 0.546706 0.202158 -0.063005
C15   C     C_R   0.229565 0.405093 0.836634 -0.128361
C16   C     C_R   0.187415 0.378427 0.938976 -0.141121
C17   C     C_R   0.290690 0.424171 0.006267 -0.103197
C18   C     C_3   0.945263 0.468205 0.309836 0.001141
C19   C     C_3   0.878098 0.375903 0.224933 -0.369311
C20   C     C_3   0.813174 0.915163 0.894216 0.009576
C21   C     C_3   0.952789 0.029432 0.860620 -0.357173
C22   C     C_R   0.475559 0.543573 0.871315 -0.015665
C23   C     C_R   0.550567 0.545695 0.037480 -0.043000
C24   C     C_R   0.691959 0.639940 0.003995 0.043679
C25   C     C_R   0.715551 0.695604 0.908492 0.240674
C26   C     C_R   0.610341 0.644570 0.842810 -0.114450
C27   C     C_R   0.525153 0.496027 0.134732 -0.146429
C28   C     C_R   0.765651 0.639100 0.169604 -0.099140
Cu1   Cu    Cu3+1 0.362000 0.479240 0.482530 0.926071
Cu2   Cu    Cu3+1 0.638000 0.520760 0.517470 0.986928
H1    H     H_    0.845029 0.681409 0.221816 0.136597
H2    H     H_    0.249777 0.398971 0.084328 0.101541
H3    H     H_    0.074875 0.318529 0.966098 0.108957
H4    H     H_    0.633690 0.690031 0.770349 0.147015
H5    H     H_    0.625454 0.135151 0.514152 0.175764
H6    H     H_    0.063825 0.481276 0.300023 0.114857
H7    H     H_    0.939095 0.564857 0.300830 0.141717
H8    H     H_    0.757969 0.356019 0.232313 0.170368
H9    H     H_    0.931626 0.419789 0.150332 0.101336
H10   H     H_    0.895305 0.282419 0.228294 0.143727
H11   H     H_    0.777758 0.929763 0.976389 0.151282
H12   H     H_    0.375565 0.865011 0.483890 0.154252
H13   H     H_    0.726161 0.914847 0.849956 0.115497
H14   H     H_    0.992130 0.016807 0.779170 0.158056
H15   H     H_    0.929432 0.121100 0.871341 0.082653
H16   H     H_    0.040466 0.036195 0.906210 0.178862
H17   H     H_    0.978592 0.729072 0.973895 0.358655
H18   H     H_    0.302491 0.049300 0.475254 0.101061
H19   H     H_    0.697625 0.950692 0.524747 0.104046
H20   H     H_    0.136036 0.598984 0.551664 0.117757
H21   H     H_    0.098433 0.366482 0.415773 0.231648
H22   H     H_    0.891957 0.611906 0.602083 0.170093
H23   H     H_    0.423865 0.419128 0.161460 0.129220
H24   H     H_    0.149730 0.360753 0.784760 0.128539
N1    N     N_2   0.845330 0.551960 0.543750 -0.328404
N2    N     N_2   0.154690 0.448120 0.456210 -0.362987
O1    O     O_R   0.426290 0.668220 0.490680 -0.499156
O2    O     O_3   0.842710 0.798653 0.876706 -0.559952
O3    O     O_3   0.944779 0.761885 0.040882 -0.686081
O4    O     O_R   0.659360 0.703290 0.520190 -0.503379
O5    O     O_R   0.326580 0.473880 0.629020 -0.497142
O6    O     O_R   0.559660 0.508940 0.658530 -0.499472
O7    O     O_R   0.340640 0.296710 0.479810 -0.498227
O8    O     O_R   0.573710 0.331780 0.509320 -0.444146
O9    O     O_R   0.440340 0.491060 0.341470 -0.492904
O10   O     O_R   0.673420 0.526120 0.370980 -0.466766
O11   O     O_3   0.868011 0.416075 0.404659 -0.515285

loop_
_geom_bond_atom_site_label_1
_geom_bond_atom_site_label_2
_ccdc_geom_bond_type
C12   C17   A    
C6    C10   S    
C2    C4    S    
C5    H12   S    
Cu1   O7    S    
C13   C28   A    
C2    C22   A    
C6    C7    D    
C13   O3    S    
C19   H8    S    
C1    O1    A    
C14   C27   A    
C21   H14   S    
Cu2   N1    S    
C21   H15   S    
C10   O7    A    
H22   N1    S    
C23   C24   A    
C4    O6    A    
C20   H13   S    
C27   H23   S    
C20   H11   S    
C3    H19   S    
C3    C5    D    
C9    N2    D    
C24   C25   A    
C2    C15   A    
C12   C23   A    
C18   H6    S    
C25   O2    S    
Cu2   O10   S    
C19   H9    S    
Cu1   O9    S    
C11   O9    A    
C8    N1    D    
Cu1   N2    S    
C18   H7    S    
Cu1   O1    S    
C18   C19   S    
Cu2   O8    S    
C23   C27   A    
Cu2   O6    S    
C16   H3    S    
C11   C14   S    
Cu1   O5    S    
H17   O3    S    
C19   H10   S    
Cu1   Cu2   S    
C15   C16   A    
C15   H24   S    
C12   C22   A    
C20   O2    S    
C20   C21   S    
C18   O11   S    
C8    O11   S    
C21   H16   S    
C22   C26   A    
C1    O4    A    
C6    H18   S    
C5    C7    S    
C17   H2    S    
C16   C17   A    
C14   C28   A    
C25   C26   A    
C7    H5    S    
C4    O5    A    
C26   H4    S    
C28   H1    S    
C10   O8    A    
C9    H20   S    
H21   N2    S    
C13   C24   A    
C8    C9    S    
C1    C3    S    
C11   O10   A    
Cu2   O4    S    
