data_mof_unit_42727.cif
_audit_creation_date              2013-03-05T16:06:36-0500
_audit_creation_method            fapswitch 2.2
_symmetry_space_group_name_H-M    P1
_symmetry_Int_Tables_number       1
_space_group_crystal_system       triclinic
_cell_length_a                    8.275262
_cell_length_b                    15.131889
_cell_length_c                    23.101351
_cell_angle_alpha                 98.708984
_cell_angle_beta                  90.174537
_cell_angle_gamma                 98.337923
_cell_volume                      2828.25756702

loop_
_atom_site_label
_atom_site_type_symbol
_atom_site_description
_atom_site_fract_x
_atom_site_fract_y
_atom_site_fract_z
_atom_type_partial_charge
P1    P     P_3+3 0.056010 0.422560 0.367570 0.505173
O1    O     O_2   0.889550 0.449620 0.359410 -0.382560
O2    O     O_3   0.130120 0.450560 0.430480 -0.367784
O3    O     O_3   0.674100 0.616440 0.398760 -0.391723
O4    O     O_2   0.791577 0.553818 0.293947 -0.406958
O5    O     O_3   0.037178 0.305717 0.343722 -0.562230
O6    O     O_3   0.714538 0.716835 0.303630 -0.523404
H1    H     H_    0.721774 0.788249 0.387617 0.142167
C1    C     C_3   0.660141 0.869134 0.324332 -0.951984
H2    H     H_    0.787972 0.893110 0.313366 0.286207
H3    H     H_    0.580500 0.862418 0.284637 0.267744
P2    P     P_3+3 0.670430 0.710550 0.550450 0.472180
P3    P     P_3+3 0.130383 0.780839 0.434609 0.476169
O7    O     O_2   0.848070 0.724010 0.533650 -0.355150
O8    O     O_3   0.092910 0.663610 0.428710 -0.370183
O9    O     O_2   0.976026 0.814296 0.461847 -0.369774
O10   O     O_3   0.685255 0.732320 0.627102 -0.560216
O11   O     O_3   0.127588 0.809538 0.363890 -0.520493
C2    C     C_3   0.128166 0.731641 0.322391 0.418522
H4    H     H_    0.022269 0.680015 0.327993 0.166477
H5    H     H_    0.243536 0.703263 0.326037 0.048405
C3    C     C_3   0.113513 0.756051 0.261415 -0.796564
H6    H     H_    0.007460 0.792737 0.258479 0.276424
C4    C     C_3   0.231497 0.740289 0.613063 0.399917
H7    H     H_    0.354604 0.721263 0.604999 0.089383
H8    H     H_    0.153055 0.725242 0.572658 0.112467
C5    C     C_3   0.249583 0.841446 0.635024 -0.917913
H9    H     H_    0.309338 0.880117 0.601832 0.209020
H10   H     H_    0.127436 0.862080 0.643819 0.274969
Ba1   Ba    Ba6+2 0.856840 0.543240 0.473380 1.580645
C6    C     C_3   0.917679 0.253128 0.371530 0.356307
H11   H     H_    0.832284 0.293496 0.396416 0.062352
C7    C     C_3   0.005825 0.205468 0.412483 -0.900508
H12   H     H_    0.923958 0.148685 0.426799 0.225044
H13   H     H_    0.049952 0.255415 0.451214 0.283237
C8    C     C_3   0.710437 0.653896 0.648925 0.416797
H14   H     H_    0.820990 0.629293 0.629949 0.096389
H15   H     H_    0.603641 0.600221 0.638739 0.137744
C9    C     C_3   0.732994 0.676115 0.715166 -0.912552
H16   H     H_    0.846060 0.725096 0.726734 0.277147
H17   H     H_    0.742414 0.613938 0.734056 0.226166
H18   H     H_    0.626513 0.705841 0.734446 0.265739
P4    P     P_3+3 0.133710 0.577520 0.632440 0.476479
O12   O     O_2   0.300150 0.550410 0.640630 -0.373403
O13   O     O_3   0.059590 0.549510 0.569530 -0.407703
O14   O     O_3   0.515610 0.383640 0.601250 -0.370692
O15   O     O_3   0.158726 0.694332 0.656173 -0.549500
P5    P     P_3+3 0.059239 0.219626 0.571339 0.477293
O16   O     O_3   0.613300 0.389650 0.468010 -0.393085
O17   O     O_3   0.096810 0.336470 0.571300 -0.378044
O18   O     O_2   0.192964 0.177611 0.534829 -0.372885
O19   O     O_3   0.096372 0.200127 0.642467 -0.509704
Ba2   Ba    Ba6+2 0.332990 0.456840 0.526630 1.569567
P6    P     P_3+3 0.658566 0.608234 0.321106 0.452807
C10   C     C_3   0.649792 0.778487 0.345868 0.440087
H19   H     H_    0.519153 0.755518 0.354107 0.059207
H20   H     H_    0.618809 0.919578 0.359036 0.239293
O20   O     O_3   0.576410 0.610420 0.531990 -0.442703
C11   C     C_3   0.474433 0.313605 0.343097 0.280209
H21   H     H_    0.357801 0.334563 0.359348 0.153749
H22   H     H_    0.576046 0.370984 0.350594 0.161484
C12   C     C_3   0.456205 0.282818 0.276908 -0.931547
H23   H     H_    0.456208 0.343717 0.255286 0.202829
P7    P     P_3+3 0.524420 0.276464 0.447108 0.450331
O21   O     O_2   0.341630 0.276020 0.466390 -0.354354
O22   O     O_3   0.513079 0.243196 0.370907 -0.594572
H24   H     H_    0.093791 0.693281 0.228935 0.237088
C13   C     C_3   0.010076 0.254884 0.681865 0.425129
C14   C     C_3   0.948469 0.203084 0.731426 -0.881244
H25   H     H_    0.900907 0.132061 0.712451 0.224397
P8    P     P_3+3 0.536759 0.384734 0.676345 0.488112
C15   C     C_3   0.519427 0.212256 0.654899 0.359724
H26   H     H_    0.647427 0.218580 0.670368 0.027990
O23   O     O_2   0.431180 0.453771 0.706849 -0.374759
O24   O     O_3   0.440004 0.278136 0.688751 -0.456585
H27   H     H_    0.516960 0.219897 0.607826 0.098966
C16   C     C_3   0.437846 0.115843 0.658850 -0.686204
H28   H     H_    0.312852 0.103663 0.639124 0.244599
H29   H     H_    0.984450 0.276235 0.039990 0.182677
H30   H     H_    0.913683 0.270724 0.937475 0.184020
C17   C     C_R   0.332809 0.528304 0.329166 -0.489297
C18   C     C_R   0.109049 0.571700 0.940473 -0.063609
C19   C     C_R   0.065474 0.567229 0.880207 0.542620
O25   O     O_2   0.091498 0.635462 0.857376 -0.577493
N1    N     N_R   0.990978 0.486774 0.847506 -0.162514
C20   C     C_R   0.960207 0.409931 0.874659 0.532089
O26   O     O_2   0.896182 0.338504 0.846761 -0.628733
C21   C     C_R   0.002005 0.412362 0.934423 -0.043367
C22   C     C_R   0.076261 0.493710 0.967604 -0.018209
C23   C     C_R   0.183547 0.652591 0.974572 -0.108017
C24   C     C_R   0.224094 0.655828 0.033952 -0.106808
C25   C     C_R   0.191766 0.578282 0.061540 -0.043192
C26   C     C_R   0.117558 0.496955 0.028165 -0.011885
C27   C     C_R   0.970439 0.334634 0.961797 -0.082705
C28   C     C_R   0.011196 0.337757 0.020973 -0.104155
C29   C     C_R   0.084901 0.418728 0.055050 -0.074308
C30   C     C_R   0.127715 0.422763 0.115119 0.538378
N2    N     N_R   0.199797 0.503268 0.148330 -0.168059
C31   C     C_R   0.232204 0.580482 0.121611 0.509499
C32   C     C_2   0.791054 0.439665 0.765669 -0.193379
C33   C     C_3   0.758041 0.411137 0.700759 0.105279
C34   C     C_1   0.007463 0.514915 0.684514 0.298111
C35   C     C_2   0.055810 0.519440 0.740687 -0.186097
C36   C     C_2   0.941250 0.482244 0.785464 0.112017
C37   C     C_R   0.407419 0.545690 0.230601 -0.178609
C38   C     C_R   0.450489 0.556354 0.290279 0.141589
C39   C     C_R   0.180780 0.480692 0.311623 0.187455
C40   C     C_R   0.135860 0.470897 0.251323 -0.134224
C41   C     C_R   0.247022 0.506586 0.210205 0.105236
O27   O     O_2   0.103229 0.353962 0.137417 -0.536328
O28   O     O_2   0.295989 0.651710 0.150102 -0.600893
C42   C     C_2   0.866208 0.467583 0.663227 -0.470270
H31   H     H_    0.281131 0.719658 0.058275 0.176323
H32   H     H_    0.497603 0.568707 0.200260 0.174754
H33   H     H_    0.210717 0.713984 0.955446 0.176195
H34   H     H_    0.179787 0.549254 0.754414 0.185439
H35   H     H_    0.701851 0.414197 0.795739 0.185808
H36   H     H_    0.015470 0.436628 0.236738 0.188650
H37   H     H_    0.841058 0.454201 0.616347 0.170724
C43   C     C_R   0.323573 0.833295 0.476183 0.182423
H38   H     H_    0.346529 0.706829 0.503389 0.189182
C44   C     C_R   0.569145 0.796129 0.519843 0.291566
C45   C     C_R   0.763467 0.230527 0.517116 -0.524149
C46   C     C_R   0.851611 0.172651 0.541215 0.232646
C47   C     C_R   0.785836 0.081117 0.538581 -0.264031
C48   C     C_R   0.635960 0.044898 0.507481 0.045156
C49   C     C_R   0.555998 0.104646 0.479482 0.028301
C50   C     C_R   0.561982 0.951997 0.503098 0.055108
C51   C     C_R   0.399162 0.924739 0.478075 -0.088842
C52   C     C_R   0.322084 0.989530 0.454385 -0.130636
C53   C     C_R   0.408618 0.072602 0.449037 -0.144415
C54   C     C_R   0.644588 0.885600 0.522793 -0.285984
C55   C     C_R   0.408359 0.773194 0.499624 -0.426864
C56   C     C_R   0.619607 0.197213 0.484912 0.253221
H39   H     H_    0.767860 0.901310 0.540380 0.188479
H40   H     H_    0.812990 0.301317 0.519963 0.179824
H41   H     H_    0.852610 0.040750 0.561725 0.182376
H42   H     H_    0.325581 0.858308 0.676009 0.271527
C57   C     C_2   0.823056 0.182727 0.325618 1.040953
O29   O     O_2   0.844583 0.185585 0.273523 -0.567385
O30   O     O_R   0.712009 0.113179 0.342738 -0.827912
H43   H     H_    0.657051 0.069947 0.308125 0.329709
H44   H     H_    0.110974 0.177954 0.390432 0.275620
C58   C     C_2   0.300340 0.218693 0.260276 1.272386
O31   O     O_2   0.193800 0.242475 0.232117 -0.516602
O32   O     O_R   0.275600 0.131864 0.275497 -0.746744
H45   H     H_    0.374008 0.116628 0.295908 0.322399
H46   H     H_    0.562170 0.249981 0.260512 0.238678
H47   H     H_    0.090252 0.318987 0.699131 0.132990
H48   H     H_    0.901901 0.273350 0.660956 -0.013020
C59   C     C_2   0.075865 0.203047 0.778413 1.338059
O33   O     O_2   0.210083 0.248858 0.778488 -0.568083
O34   O     O_R   0.039930 0.151969 0.823538 -0.743381
H49   H     H_    0.924832 0.117638 0.819982 0.305685
H50   H     H_    0.844766 0.233383 0.752257 0.232578
H51   H     H_    0.508647 0.067802 0.632473 0.120912
C60   C     C_2   0.433944 0.095384 0.720427 1.220530
O35   O     O_2   0.304999 0.064433 0.740355 -0.621534
O36   O     O_R   0.578457 0.108671 0.754037 -0.823102
H52   H     H_    0.560306 0.091824 0.794597 0.330952
C61   C     C_2   0.374834 0.546770 0.389636 1.133909
O37   O     O_2   0.371732 0.621679 0.416099 -0.680366
O38   O     O_R   0.445981 0.483834 0.413725 -0.790923
H53   H     H_    0.513490 0.513686 0.448944 0.403626
C62   C     C_2   0.144843 0.985190 0.446219 1.133283
O39   O     O_2   0.058583 0.986055 0.488983 -0.652886
O40   O     O_R   0.078645 0.989841 0.391234 -0.766001
H54   H     H_    0.956052 0.989214 0.392044 0.326913
H55   H     H_    0.347241 0.116028 0.426439 0.176570
H56   H     H_    0.226749 0.799534 0.251240 0.257433

loop_
_geom_bond_atom_site_label_1
_geom_bond_atom_site_label_2
_geom_bond_distance
_ccdc_geom_bond_type
C10   H19   1.112680 S    
C17   C39   1.382632 A    
C62   O39   1.220145 D    
C43   C55   1.394442 A    
Ba2   O20   2.833270 S    
C5    H10   1.110872 S    
C57   O30   1.398631 S    
Ba1   O13   2.761352 S    
C34   C42   1.329741 D    
C28   C29   1.407559 A    
C49   C56   1.409736 A    
O6    C10   1.407837 S    
C15   H27   1.111292 S    
C50   C51   1.442767 A    
C30   N2    1.389923 Am   
C45   C46   1.392624 A    
C9    H17   1.107758 S    
C16   H28   1.108117 S    
C7    H44   1.110637 S    
C33   C42   1.513200 S    
C60   O35   1.221975 D    
C18   C22   1.411156 A    
P3    O11   1.753764 S    
C8    H14   1.104314 S    
C2    H5    1.110107 S    
C4    H8    1.110658 S    
O11   C2    1.402822 S    
C54   H39   1.077075 S    
C16   H51   1.111117 S    
C20   C21   1.416015 A    
C32   C36   1.357984 D    
C40   C41   1.434123 A    
P1    O1    1.511980 D    
C25   C26   1.405913 A    
C13   H47   1.111202 S    
C34   C35   1.345617 D    
O12   Ba2   2.828597 S    
P4    Ba2   3.402245 S    
P5    O18   1.545152 D    
C19   O25   1.221350 D    
C13   C14   1.531207 S    
P2    O10   1.752003 S    
C59   O33   1.220858 D    
C6    C7    1.517317 S    
C1    C10   1.519593 S    
O10   C8    1.399318 S    
Ba2   O21   2.886605 S    
C1    H2    1.110395 S    
O19   C13   1.404312 S    
P2    O20   1.594778 S    
P5    O17   1.750367 S    
O5    C6    1.397953 S    
P8    C33   1.882607 S    
O13   Ba2   2.929196 S    
C11   H21   1.108137 S    
C60   O36   1.396680 S    
N2    C41   1.472267 S    
C12   H46   1.109371 S    
O36   H52   1.013710 S    
C27   C28   1.399200 A    
O7    Ba1   2.886353 S    
C15   O24   1.412227 S    
C50   C54   1.421081 A    
H1    C10   1.111141 S    
C44   C54   1.397873 A    
C61   O38   1.372732 S    
C61   O37   1.207441 D    
C9    H18   1.110776 S    
C21   C27   1.410210 A    
Ba1   Ba2   4.549703 S    
P7    C56   1.846125 S    
C11   H22   1.110292 S    
O17   Ba2   2.784135 S    
P6    C38   1.876042 S    
C45   C56   1.389893 A    
C43   C51   1.427715 A    
C5    H42   1.110740 S    
C40   H36   1.081742 S    
C37   H32   1.082250 S    
C2    C3    1.518184 S    
C4    H7    1.106983 S    
C58   O32   1.397924 S    
O40   H54   1.013415 S    
C20   O26   1.218675 D    
C58   O31   1.220408 D    
C47   H41   1.076711 S    
N1    C20   1.395118 Am   
P2    Ba1   3.426870 S    
C24   H31   1.083152 S    
P1    O2    1.549344 S    
P7    O22   1.754434 S    
O2    Ba1   2.928439 S    
P4    O12   1.512255 D    
C44   C55   1.386415 A    
H29   C28   1.083210 S    
C15   C16   1.532171 S    
C42   H37   1.084985 S    
O32   H45   1.011779 S    
C1    H3    1.110968 S    
O4    P6    1.547198 D    
C6    H11   1.106495 S    
C39   C40   1.420906 A    
C4    C5    1.523398 S    
C31   O28   1.221301 D    
C29   C30   1.421250 A    
C12   H23   1.112685 S    
C7    H12   1.106904 S    
C14   H50   1.108175 S    
C23   H33   1.083112 S    
P4    O13   1.549382 S    
O14   P8    1.740401 S    
C3    H56   1.111585 S    
N1    C36   1.478769 S    
P1    C39   1.897188 S    
C19   N1    1.390632 Am   
Ba1   O16   2.833947 S    
P2    O7    1.514477 D    
N2    C31   1.395208 Am   
C26   C29   1.410967 A    
P3    O8    1.740241 S    
C47   C48   1.425833 A    
C6    C57   1.511216 S    
C24   C25   1.411067 A    
P3    C43   1.870841 S    
O8    Ba1   2.783582 S    
C51   C52   1.417486 A    
C37   C41   1.420529 A    
C17   C38   1.391572 A    
C53   H55   1.077673 S    
C11   C12   1.529812 S    
C48   C50   1.438098 A    
P1    O5    1.754540 S    
O3    P6    1.782286 S    
C4    O15   1.389232 S    
C17   C61   1.414597 S    
C8    C9    1.521134 S    
C12   C58   1.507953 S    
C15   H26   1.103076 S    
P5    C46   1.852129 S    
P8    O23   1.548154 D    
C57   O29   1.223422 D    
C37   C38   1.402381 A    
C18   C23   1.408905 A    
C45   H40   1.082078 S    
O1    Ba1   2.828101 S    
P7    O21   1.577524 D    
C2    H4    1.108028 S    
C8    H15   1.108499 S    
C52   C53   1.376486 A    
P4    C34   1.871303 S    
C11   O22   1.398203 S    
O30   H43   1.013538 S    
P8    O24   1.758376 S    
C30   O27   1.221517 D    
O2    Ba2   2.761921 S    
C52   C62   1.468942 S    
C23   C24   1.403142 A    
P4    O15   1.751428 S    
C48   C49   1.421843 A    
O16   Ba2   2.921381 S    
Ba1   O20   2.922066 S    
O14   Ba2   2.744102 S    
P1    Ba1   3.401732 S    
C7    H13   1.103769 S    
C35   H34   1.084942 S    
C1    H20   1.111048 S    
C59   O34   1.397048 S    
C22   C26   1.431069 A    
C14   H25   1.111606 S    
C49   C53   1.391830 A    
C3    H24   1.109176 S    
O38   H53   0.995402 S    
C13   H48   1.106127 S    
C9    H16   1.110665 S    
P5    O19   1.746845 S    
P2    C44   1.862219 S    
C21   C22   1.404430 A    
C62   O40   1.397333 S    
C18   C19   1.426279 A    
P3    O9    1.542666 D    
C35   C36   1.520879 S    
O16   P7    1.757714 S    
C3    H6    1.111446 S    
C32   C33   1.508901 S    
C32   H35   1.085205 S    
O6    P6    1.749110 S    
H38   C55   1.074952 S    
O34   H49   1.013375 S    
C14   C59   1.510975 S    
H30   C27   1.083348 S    
O3    Ba1   2.744707 S    
C25   C31   1.420846 A    
C16   C60   1.500400 S    
C46   C47   1.405009 A    
C5    H9    1.108684 S    
