data_mof_unit_9360.cif
_audit_creation_date              2013-03-05T15:51:32-0500
_audit_creation_method            fapswitch 2.2
_symmetry_space_group_name_H-M    P1
_symmetry_Int_Tables_number       1
_space_group_crystal_system       triclinic
_cell_length_a                    15.948022
_cell_length_b                    10.793493
_cell_length_c                    9.78983
_cell_angle_alpha                 91.679527
_cell_angle_beta                  88.03334
_cell_angle_gamma                 93.572159
_cell_volume                      1680.28253787

loop_
_atom_site_label
_atom_site_type_symbol
_atom_site_description
_atom_site_fract_x
_atom_site_fract_y
_atom_site_fract_z
_atom_type_partial_charge
O1    O     O_R   0.499990 0.319640 0.618810 -0.568683
O2    O     O_R   0.500000 0.319660 0.381240 -0.513225
C1    C     C_R   0.500618 0.261219 0.499280 0.872025
O3    O     O_R   0.379430 0.499990 0.618840 -0.534937
O4    O     O_R   0.379440 0.500020 0.381260 -0.533704
C2    C     C_R   0.341080 0.496734 0.502081 0.817074
Cu1   Cu    Cu3+1 0.499990 0.499990 0.640660 1.111287
Cu2   Cu    Cu3+1 0.500010 0.500010 0.359340 1.134048
O5    O     O_R   0.500000 0.680340 0.618760 -0.558034
O6    O     O_R   0.500010 0.680360 0.381190 -0.502251
O7    O     O_R   0.620560 0.499980 0.618740 -0.531144
O8    O     O_R   0.620570 0.500010 0.381160 -0.580245
C3    C     C_R   0.486038 0.733591 0.502822 0.894852
C4    C     C_R   0.659836 0.500539 0.497941 0.907049
C5    C     C_3   0.048338 0.515143 0.647015 -0.448614
C6    C     C_3   0.042744 0.348988 0.462606 0.207526
C7    C     C_3   0.946222 0.362989 0.436321 0.041053
H1    H     H_    0.928112 0.423935 0.702755 0.248407
H2    H     H_    0.069102 0.451814 0.725289 0.222625
H3    H     H_    0.043395 0.291545 0.555267 0.130292
H4    H     H_    0.910483 0.291262 0.498320 0.134989
C8    C     C_1   0.750715 0.501666 0.494462 0.048779
C9    C     C_3   0.085133 0.479145 0.503981 0.028569
C10   C     C_3   0.951056 0.507003 0.644905 -0.357220
C11   C     C_3   0.919979 0.493678 0.495427 -0.056742
C12   C     C_3   0.967448 0.598763 0.410220 0.271004
C13   C     C_3   0.062754 0.578015 0.401860 -0.411797
C14   C     C_1   0.826851 0.500189 0.494930 0.149588
C15   C     C_1   0.176720 0.481099 0.508774 0.093252
C16   C     C_1   0.251932 0.488009 0.507069 0.036520
H5    H     H_    0.100525 0.666615 0.421394 0.252969
H6    H     H_    0.081059 0.547493 0.296233 0.210386
H7    H     H_    0.072328 0.610055 0.678544 0.249977
H8    H     H_    0.926264 0.589534 0.699086 0.235722
H9    H     H_    0.945689 0.591399 0.304411 0.164648
H10   H     H_    0.425170 0.104322 0.318148 0.252519
C17   C     C_R   0.552716 0.108816 0.738150 0.425172
C18   C     C_R   0.530147 0.062633 0.867238 -0.079639
H11   H     H_    0.560652 0.101125 0.957165 0.228957
C19   C     C_R   0.474361 0.959058 0.879311 -0.113086
H12   H     H_    0.456087 0.924699 0.979134 0.235141
C20   C     C_R   0.453051 0.889791 0.762018 -0.064853
H13   H     H_    0.415774 0.803380 0.773113 0.201430
C21   C     C_R   0.477761 0.934930 0.632088 0.004228
C22   C     C_R   0.511600 0.057691 0.621851 -0.007712
C23   C     C_R   0.496078 0.122967 0.501235 -0.114523
C24   C     C_R   0.453893 0.056086 0.395574 -0.188515
C25   C     C_R   0.440192 0.926819 0.396680 0.442113
C26   C     C_R   0.464943 0.864781 0.511039 -0.192851
C27   C     C_R   0.633476 0.630681 0.136607 0.257434
C28   C     C_R   0.713719 0.618236 0.073943 0.175494
C29   C     C_R   0.715898 0.560496 0.944554 0.149543
C30   C     C_R   0.649231 0.584687 0.862467 0.325530
C31   C     C_R   0.568732 0.553705 0.924710 -0.001087
C32   C     C_R   0.563581 0.566434 0.073111 -0.042186
N1    N     N_R   0.500800 0.501210 0.147910 -0.245017
C33   C     C_R   0.441799 0.434591 0.072249 0.452712
C34   C     C_R   0.432141 0.459697 0.933175 0.396951
N2    N     N_R   0.500820 0.501290 0.852040 -0.241926
S1    S     S_3+6 0.648580 0.196746 0.725228 0.078947
O9    O     O_2   0.638325 0.314590 0.806550 -0.275928
O10   O     O_2   0.715151 0.126164 0.788265 -0.178826
O11   O     O_3   0.677133 0.225960 0.561808 -0.550380
H14   H     H_    0.739288 0.236614 0.560417 0.384123
S2    S     S_3+6 0.368887 0.851653 0.280585 0.030903
O12   O     O_2   0.306098 0.770019 0.359964 -0.314245
O13   O     O_2   0.322912 0.946160 0.207728 -0.285366
O14   O     O_3   0.418774 0.763131 0.163835 -0.501355
H15   H     H_    0.373545 0.719329 0.110897 0.380374
S3    S     S_3+6 0.405488 0.284383 0.118805 0.050502
O15   O     O_2   0.482676 0.214850 0.137307 -0.357506
O16   O     O_2   0.351950 0.286873 0.247771 -0.265975
O17   O     O_3   0.349758 0.211026 0.994477 -0.466737
H16   H     H_    0.344501 0.122771 0.019997 0.392971
N3    N     N_R   0.621532 0.738426 0.222198 0.175986
O18   O     O_R   0.661531 0.755694 0.335488 -0.255067
O19   O     O_R   0.585028 0.831178 0.173227 -0.294094
S4    S     S_3+6 0.801916 0.711049 0.129738 0.157229
O20   O     O_2   0.815298 0.674522 0.272418 -0.228138
O21   O     O_2   0.880064 0.692961 0.043207 -0.236395
O22   O     O_3   0.782605 0.862694 0.133421 -0.354446
H17   H     H_    0.750580 0.875116 0.050738 0.399449
N4    N     N_R   0.786066 0.495635 0.891192 0.151757
O23   O     O_R   0.782206 0.444292 0.770201 -0.384568
O24   O     O_R   0.841346 0.458627 0.972714 -0.247413
S5    S     S_3+6 0.671040 0.734913 0.791988 0.047532
O25   O     O_2   0.654540 0.741166 0.642840 -0.233939
O26   O     O_2   0.619207 0.825405 0.870039 -0.276824
O27   O     O_3   0.772761 0.781607 0.810599 -0.468301
H18   H     H_    0.804771 0.718817 0.759254 0.364253
S6    S     S_3+6 0.325213 0.470871 0.891225 0.065850
O28   O     O_2   0.297761 0.366830 0.794125 -0.232337
O29   O     O_2   0.270240 0.461096 0.018926 -0.216171
O30   O     O_3   0.311784 0.609918 0.824628 -0.573127
H19   H     H_    0.251036 0.609094 0.806320 0.367939
S7    S     S_3+6 0.104498 0.258683 0.341321 0.122991
O31   O     O_2   0.054169 0.146003 0.289164 -0.137482
O32   O     O_2   0.137663 0.335472 0.223488 -0.177554
O33   O     O_3   0.186660 0.209653 0.423676 -0.513081
H20   H     H_    0.213150 0.150429 0.358824 0.413535
S8    S     S_3+6 0.912224 0.328684 0.262597 0.116875
O34   O     O_2   0.895838 0.190724 0.244219 -0.103489
O35   O     O_2   0.831172 0.386977 0.238135 -0.269100
O36   O     O_3   0.984388 0.377638 0.143538 -0.416110
H21   H     H_    0.971490 0.463421 0.123049 0.369153
S9    S     S_3+6 0.950389 0.756482 0.470997 0.095550
O37   O     O_2   0.969487 0.842587 0.354589 -0.116170
O38   O     O_2   0.860672 0.768875 0.518813 -0.223390
O39   O     O_3   0.014272 0.801095 0.599087 -0.517902
H22   H     H_    0.976855 0.813776 0.680489 0.383623

loop_
_geom_bond_atom_site_label_1
_geom_bond_atom_site_label_2
_geom_bond_distance
_ccdc_geom_bond_type
C21   C26   1.401486 A    
C32   N1    1.387940 A    
S8    O34   1.502334 D    
O17   H16   0.989652 S    
Cu2   N1    2.069885 S    
O22   H17   0.988595 S    
Cu1   Cu2   2.754069 S    
C30   C31   1.426886 A    
C21   C22   1.404246 A    
C11   C14   1.491418 S    
C5    H2    1.113740 S    
C12   C13   1.549148 S    
C17   C18   1.399442 A    
S1    O11   1.681665 S    
H1    C10   1.110480 S    
C9    C15   1.461811 S    
C18   H11   1.080321 S    
O7    C4    1.319103 A    
S5    O26   1.494889 D    
S9    O37   1.502734 D    
S7    O33   1.682547 S    
N1    C33   1.372361 A    
H10   C24   1.064016 S    
S1    O10   1.503898 D    
C7    S8    1.823434 S    
O5    C3    1.318984 A    
C31   C32   1.455273 A    
N4    O23   1.294667 A    
O14   H15   0.990557 S    
S2    O13   1.502865 D    
S7    O32   1.502313 D    
C30   S5    1.790254 S    
C9    C13   1.549255 S    
C33   S3    1.754934 S    
C34   S6    1.779840 S    
Cu2   O8    1.941796 S    
C19   C20   1.392051 A    
S8    O35   1.501837 D    
C8    C14   1.215482 T    
C12   S9    1.820231 S    
C20   C21   1.410185 A    
O3    Cu1   1.941794 S    
Cu1   N2    2.069503 S    
O36   H21   0.988572 S    
C31   N2    1.397200 A    
C6    S7    1.816962 S    
C13   H5    1.113262 S    
C28   C29   1.395535 A    
C24   C25   1.399037 A    
C10   C11   1.560869 S    
O3    C2    1.313321 A    
S6    O28   1.503687 D    
S5    O25   1.496716 D    
C6    C7    1.586535 S    
C11   C12   1.568610 S    
C22   C23   1.429181 A    
O6    C3    1.324877 A    
C10   H8    1.110407 S    
S1    O9    1.495334 D    
O1    C1    1.312921 A    
C29   N4    1.432251 S    
Cu1   O7    1.927465 S    
N3    O18   1.301294 A    
C15   C16   1.196728 T    
S6    O29   1.504546 D    
O33   H20   0.990764 S    
C6    H3    1.114376 S    
S2    O14   1.679457 S    
S7    O31   1.501402 D    
S3    O17   1.681773 S    
C27   C28   1.412362 A    
N3    O19   1.300351 A    
S3    O15   1.499928 D    
C3    C26   1.474972 S    
C19   H12   1.079679 S    
C2    C16   1.418244 S    
O8    C4    1.321954 A    
S8    O36   1.682411 S    
C25   S2    1.778426 S    
C20   H13   1.080526 S    
C17   C22   1.414242 A    
C29   C30   1.396393 A    
Cu1   O5    1.964603 S    
C23   C24   1.409684 A    
C5    C10   1.549273 S    
N4    O24   1.297919 A    
C13   H6    1.111015 S    
O1    Cu1   1.952082 S    
O2    Cu2   1.964603 S    
S5    O27   1.682830 S    
O4    Cu2   1.927464 S    
C6    C9    1.568995 S    
C1    C23   1.490110 S    
C27   C32   1.426798 A    
C7    C11   1.583923 S    
C4    C8    1.447872 S    
O2    C1    1.333294 A    
C34   N2    1.389975 A    
C28   S4    1.767890 S    
C27   N3    1.431910 S    
S6    O30   1.682359 S    
C18   C19   1.389920 A    
S4    O20   1.488384 D    
S4    O22   1.683375 S    
C33   C34   1.411412 A    
O4    C2    1.313260 A    
S9    O38   1.502802 D    
C25   C26   1.401713 A    
C5    C9    1.547962 S    
S4    O21   1.502389 D    
O30   H19   0.990730 S    
C7    H4    1.114198 S    
C17   S1    1.751304 S    
O11   H14   0.990427 S    
C12   H9    1.102785 S    
Cu2   O6    1.952081 S    
S2    O12   1.503250 D    
S3    O16   1.500231 D    
O27   H18   0.988999 S    
O39   H22   0.990464 S    
C5    H7    1.109886 S    
S9    O39   1.683292 S    
