data_mof_unit_58548.cif
_audit_creation_date              2012-12-10T20:35:46-0500
_audit_creation_method            fapswitch 2.2
_symmetry_space_group_name_H-M    P1
_symmetry_Int_Tables_number       1
_space_group_crystal_system       triclinic
_cell_length_a                    15.814638
_cell_length_b                    10.801993
_cell_length_c                    9.912721
_cell_angle_alpha                 88.982472
_cell_angle_beta                  93.250903
_cell_angle_gamma                 91.135249
_cell_volume                      1690.09462795

loop_
_atom_site_label
_atom_site_type_symbol
_atom_type_description
_atom_site_fract_x
_atom_site_fract_y
_atom_site_fract_z
_atom_type_partial_charge
C1    C     C_R   0.504530 0.260677 0.500738 0.926937
C2    C     C_3   0.960663 0.483931 0.658534 0.014904
C3    C     C_3   0.916095 0.518288 0.516525 0.111491
C4    C     C_3   0.950112 0.654418 0.470242 0.278345
C5    C     C_3   0.052607 0.650806 0.475307 0.134357
C6    C     C_1   0.824895 0.518123 0.521824 -0.022635
C7    C     C_1   0.172921 0.503103 0.488486 -0.028387
C8    C     C_1   0.248476 0.500750 0.489849 -0.205503
C9    C     C_R   0.507014 0.058383 0.614806 0.011033
C10   C     C_R   0.515294 0.129615 0.498835 -0.176258
C11   C     C_R   0.530953 0.068313 0.376620 0.145309
C12   C     C_R   0.337997 0.499561 0.496704 0.907615
C13   C     C_R   0.523696 0.938380 0.372227 0.137931
C14   C     C_R   0.510018 0.870689 0.493455 -0.226219
C15   C     C_R   0.506069 0.934605 0.611597 0.071657
C16   C     C_3   0.489445 0.918722 0.757841 0.359906
C17   C     C_3   0.489015 0.061229 0.761517 -0.594683
C18   C     C_R   0.426188 0.505928 0.064406 0.025181
C19   C     C_R   0.573808 0.500537 0.078007 -0.110959
C20   C     C_R   0.573780 0.499297 0.934655 -0.137614
C21   C     C_R   0.426236 0.513197 0.921891 0.092947
C22   C     C_3   0.347432 0.434133 0.904506 0.228564
C23   C     C_R   0.502317 0.739371 0.498294 0.899570
C24   C     C_3   0.356628 0.409274 0.058235 0.197291
C25   C     C_R   0.661407 0.502824 0.503840 0.891565
C26   C     C_3   0.056774 0.469821 0.639864 -0.471541
C27   C     C_3   0.034592 0.420561 0.383371 0.221529
C28   C     C_3   0.936328 0.407009 0.415875 0.215082
C29   C     C_1   0.749761 0.512073 0.514518 -0.205959
C30   C     C_3   0.080767 0.509640 0.493753 0.189680
H1    H     H_    0.936091 0.393135 0.694510 0.171346
H2    H     H_    0.095095 0.524733 0.715367 0.213454
H3    H     H_    0.425451 0.095607 0.777931 0.207880
H4    H     H_    0.541747 0.104191 0.824484 0.186728
H5    H     H_    0.633709 0.499585 0.135946 0.151961
H6    H     H_    0.074516 0.374306 0.667054 0.172373
H7    H     H_    0.633335 0.496679 0.886434 0.148180
N1    N     N_R   0.499430 0.499140 0.142800 -0.086093
N2    N     N_R   0.499430 0.499180 0.857150 -0.107071
O1    O     O_R   0.500010 0.316790 0.614690 -0.624144
O2    O     O_R   0.500000 0.316760 0.385350 -0.573308
O3    O     O_R   0.377150 0.500020 0.614720 -0.566714
O4    O     O_R   0.377140 0.499990 0.385380 -0.621615
O5    O     O_R   0.500000 0.683240 0.614650 -0.586841
O6    O     O_R   0.499990 0.683210 0.385310 -0.589259
O7    O     O_R   0.622860 0.500010 0.614620 -0.632623
O8    O     O_R   0.622850 0.499980 0.385280 -0.627659
Zn1   Zn    Zn3+2 0.500010 0.500020 0.653130 0.969580
Zn2   Zn    Zn3+2 0.499990 0.499980 0.346870 0.965758
N3    N     N_2   0.945498 0.572764 0.763635 -0.240590
H8    H     H_    0.884139 0.602828 0.759705 0.250518
C31   C     C_3   0.969655 0.534243 0.901253 -0.835659
H9    H     H_    0.958388 0.610882 0.970878 0.247498
H10   H     H_    0.037685 0.511305 0.913366 0.250927
H11   H     H_    0.930925 0.452383 0.931280 0.218193
N4    N     N_3   0.916801 0.684663 0.331700 -0.510574
H12   H     H_    0.927174 0.778546 0.309472 0.180675
H13   H     H_    0.851231 0.670863 0.322223 0.189258
N5    N     N_2   0.554782 0.136167 0.259494 -0.267223
H14   H     H_    0.526795 0.108561 0.168365 0.219225
C32   C     C_3   0.644198 0.166422 0.254854 -0.793773
H15   H     H_    0.671761 0.115593 0.171865 0.211607
H16   H     H_    0.679661 0.141472 0.351176 0.231217
H17   H     H_    0.652360 0.267319 0.235622 0.260888
N6    N     N_2   0.530266 0.876874 0.247316 -0.267399
H18   H     H_    0.578808 0.908198 0.189731 0.217852
C33   C     C_3   0.450500 0.859197 0.170153 -0.773572
H19   H     H_    0.430198 0.947337 0.120180 0.201034
H20   H     H_    0.400044 0.825325 0.236013 0.247370
H21   H     H_    0.458229 0.788497 0.092229 0.237287
N7    N     N_2   0.408722 0.858346 0.787017 -0.260273
H22   H     H_    0.392986 0.869216 0.885442 0.210289
C34   C     C_3   0.336282 0.869337 0.691160 -0.782226
H23   H     H_    0.280589 0.820995 0.732680 0.226167
H24   H     H_    0.348705 0.824691 0.594637 0.235655
H25   H     H_    0.320420 0.967817 0.672066 0.223636
N8    N     N_3   0.560750 0.863301 0.836553 -0.434486
H26   H     H_    0.555639 0.885536 0.937809 0.164492
H27   H     H_    0.617888 0.903321 0.807495 0.164390
N9    N     N_3   0.274645 0.510185 0.858055 -0.419380
H28   H     H_    0.218706 0.466966 0.887299 0.188682
H29   H     H_    0.277854 0.596302 0.905116 0.160769
N10   N     N_2   0.357764 0.328458 0.818558 -0.236989
H30   H     H_    0.413998 0.283356 0.835095 0.218851
C35   C     C_3   0.284427 0.249649 0.786168 -0.813890
H31   H     H_    0.298376 0.187897 0.702446 0.227454
H32   H     H_    0.229212 0.304990 0.750456 0.248285
H33   H     H_    0.267684 0.192419 0.874917 0.219485
N11   N     N_2   0.283320 0.444816 0.129099 -0.304158
H34   H     H_    0.285712 0.528973 0.176849 0.237921
C36   C     C_3   0.233960 0.347495 0.189734 -0.732290
H35   H     H_    0.180950 0.389807 0.235173 0.278075
H36   H     H_    0.271981 0.298804 0.271302 0.260564
H37   H     H_    0.208960 0.281517 0.111905 0.222155
N12   N     N_3   0.389799 0.286984 0.101370 -0.405463
H38   H     H_    0.447897 0.271858 0.059668 0.159073
H39   H     H_    0.348463 0.216684 0.066550 0.175643
N13   N     N_3   0.044496 0.476894 0.247613 -0.482097
H40   H     H_    0.027870 0.413711 0.171439 0.158804
H41   H     H_    0.007969 0.553552 0.225357 0.224416
N14   N     N_2   0.074505 0.297701 0.377057 -0.300669
H42   H     H_    0.052407 0.244239 0.296720 0.207671
C37   C     C_3   0.110754 0.223820 0.488974 -0.840536
H43   H     H_    0.135122 0.136674 0.449274 0.227000
H44   H     H_    0.063020 0.196846 0.562042 0.246566
H45   H     H_    0.165939 0.271165 0.539113 0.257448
N15   N     N_2   0.920968 0.284043 0.480557 -0.295662
H46   H     H_    0.940739 0.212405 0.423666 0.242923
C38   C     C_3   0.836822 0.247804 0.520991 -0.825043
H47   H     H_    0.833896 0.146226 0.541084 0.222332
H48   H     H_    0.788097 0.269686 0.439818 0.262628
H49   H     H_    0.821659 0.291807 0.616386 0.240127
N16   N     N_3   0.879989 0.408640 0.291004 -0.469293
H50   H     H_    0.881394 0.489598 0.233535 0.181059
H51   H     H_    0.895022 0.335978 0.228784 0.165571
N17   N     N_3   0.089573 0.722766 0.591917 -0.439001
H52   H     H_    0.153497 0.702607 0.611061 0.178325
H53   H     H_    0.091078 0.817542 0.568791 0.157304
N18   N     N_3   0.085926 0.706724 0.351196 -0.469354
H54   H     H_    0.068494 0.799496 0.342282 0.164363
H55   H     H_    0.152132 0.708888 0.358508 0.184804
N19   N     N_2   0.924147 0.754774 0.559087 -0.263362
H56   H     H_    0.957800 0.835678 0.542525 0.226344
C39   C     C_3   0.835995 0.789646 0.567150 -0.830153
H57   H     H_    0.833489 0.880262 0.618158 0.227182
H58   H     H_    0.800586 0.724347 0.630669 0.246322
H59   H     H_    0.803399 0.801358 0.465997 0.233720

loop_
_geom_bond_atom_site_label_1
_geom_bond_atom_site_label_2
_ccdc_geom_bond_type
C27   N13   S    
C26   H2    S    
N14   H42   S    
C23   O6    A    
C18   C21   A    
C34   H24   S    
C34   H23   S    
C19   C20   A    
C3    C6    S    
C24   N11   S    
C7    C8    T    
O8    Zn2   S    
N1    Zn2   S    
C13   N6    S    
N8    H26   S    
N4    H12   S    
C5    N18   S    
C18   C24   S    
C3    C28   S    
C5    C30   S    
C12   O4    A    
C38   H48   S    
C28   N15   S    
C15   C16   S    
N13   H40   S    
N17   H52   S    
C16   N8    S    
C32   H16   S    
C12   O3    A    
C2    N3    S    
C1    O1    A    
N12   H38   S    
N17   H53   S    
C16   C17   S    
N6    C33   S    
N3    C31   S    
N15   H46   S    
N11   C36   S    
C9    C10   A    
C25   O8    A    
C31   H11   S    
N8    H27   S    
N5    H14   S    
N14   C37   S    
C7    C30   S    
C21   C22   S    
C4    N4    S    
C27   C30   S    
N15   C38   S    
C16   N7    S    
C17   H3    S    
C11   N5    S    
O2    Zn2   S    
C31   H10   S    
N18   H55   S    
C25   C29   S    
O7    Zn1   S    
N5    C32   S    
C35   H32   S    
C33   H19   S    
C37   H44   S    
C28   N16   S    
C24   N12   S    
C36   H35   S    
N7    C34   S    
C20   N2    A    
O4    Zn2   S    
C35   H31   S    
C27   N14   S    
C23   O5    A    
C2    H1    S    
C33   H20   S    
C14   C23   S    
C32   H17   S    
C19   N1    A    
C36   H36   S    
N10   H30   S    
C21   N2    A    
O6    Zn2   S    
C8    C12   S    
N3    H8    S    
C4    N19   S    
C2    C26   S    
O3    Zn1   S    
C39   H59   S    
C9    C17   S    
N10   C35   S    
C26   C30   S    
N13   H41   S    
C5    N17   S    
C34   H25   S    
C22   C24   S    
C38   H49   S    
C17   H4    S    
N19   C39   S    
C3    C4    S    
C37   H43   S    
C31   H9    S    
C39   H58   S    
N16   H50   S    
C35   H33   S    
C26   H6    S    
O1    Zn1   S    
C1    C10   S    
C1    O2    A    
N9    H28   S    
N18   H54   S    
N12   H39   S    
C33   H21   S    
C22   N10   S    
C2    C3    S    
C18   N1    A    
C22   N9    S    
N7    H22   S    
C19   H5    S    
C38   H47   S    
C36   H37   S    
C20   H7    S    
C11   C13   A    
N9    H29   S    
N4    H13   S    
C37   H45   S    
C9    C15   A    
C32   H15   S    
C10   C11   A    
C4    C5    S    
C6    C29   T    
N6    H18   S    
C27   C28   S    
N19   H56   S    
C14   C15   A    
N2    Zn1   S    
N11   H34   S    
C13   C14   A    
C25   O7    A    
O5    Zn1   S    
C39   H57   S    
N16   H51   S    
