data_mof_unit_60957.cif
_audit_creation_date              2012-12-10T17:51:41-0500
_audit_creation_method            fapswitch 2.2
_symmetry_space_group_name_H-M    P1
_symmetry_Int_Tables_number       1
_space_group_crystal_system       triclinic
_cell_length_a                    18.800033
_cell_length_b                    18.745983
_cell_length_c                    18.733943
_cell_angle_alpha                 109.168269
_cell_angle_beta                  109.527029
_cell_angle_gamma                 109.549005
_cell_volume                      5093.00401748

loop_
_atom_site_label
_atom_site_type_symbol
_atom_type_description
_atom_site_fract_x
_atom_site_fract_y
_atom_site_fract_z
_atom_type_partial_charge
C1    C     C_R   0.619859 0.119934 0.999756 0.884420
C2    C     C_R   0.508805 0.766732 0.683184 0.374623
C3    C     C_R   0.512057 0.831389 0.749580 0.295700
C4    C     C_R   0.495011 0.114017 0.119948 0.839949
C5    C     C_R   0.499923 0.815982 0.814256 -0.287359
C6    C     C_R   0.328607 0.816083 0.083048 -0.050765
C7    C     C_R   0.264825 0.749336 0.081219 -0.098069
C8    C     C_R   0.187230 0.686392 0.001602 -0.158354
C9    C     C_R   0.173077 0.688721 0.924280 0.402416
C10   C     C_R   0.237062 0.753732 0.926119 -0.174136
C11   C     C_R   0.314478 0.816650 0.004401 -0.136404
C12   C     C_R   0.822358 0.242295 0.000924 -0.051341
C13   C     C_R   0.620021 0.502384 0.622547 1.011014
C14   C     C_R   0.494884 0.383954 0.378120 0.901300
C15   C     C_R   0.380070 0.503942 0.383584 0.983209
C16   C     C_R   0.380039 0.881295 0.001794 0.888343
C17   C     C_R   0.498185 0.622781 0.620648 0.968120
C18   C     C_R   0.879796 0.500656 0.880379 1.029853
C19   C     C_R   0.879864 0.379956 0.999950 0.883558
C20   C     C_R   0.119596 0.498942 0.119509 0.931927
C21   C     C_R   0.119815 0.620020 0.999779 0.921535
C22   C     C_R   0.757821 0.581581 0.759908 0.311036
C23   C     C_R   0.813497 0.313657 0.999758 -0.096351
C24   C     C_R   0.823383 0.581083 0.821779 0.339646
C25   C     C_R   0.813769 0.500934 0.814444 -0.357909
C26   C     C_R   0.740689 0.421200 0.744498 0.306294
C27   C     C_R   0.677738 0.421558 0.679703 0.326795
C28   C     C_R   0.499964 0.880886 0.880561 0.998982
C29   C     C_R   0.686003 0.501793 0.688399 -0.368218
C30   C     C_R   0.321808 0.500045 0.243439 0.323809
C31   C     C_R   0.258526 0.500682 0.179118 -0.144705
C32   C     C_R   0.185775 0.499105 0.186061 -0.285223
C33   C     C_R   0.176843 0.499060 0.257641 0.349499
C34   C     C_R   0.741018 0.321408 0.997896 -0.050711
C35   C     C_R   0.242753 0.504008 0.324498 0.315746
C36   C     C_R   0.314188 0.503180 0.316439 -0.283844
C37   C     C_2   0.414581 0.238171 0.246207 -0.040292
C38   C     C_2   0.482266 0.321292 0.297195 -0.169279
C39   C     C_2   0.413895 0.176810 0.172801 -0.162146
C40   C     C_2   0.482772 0.163583 0.188565 0.171967
C41   C     C_R   0.756614 0.176574 0.997662 -0.052110
C42   C     C_1   0.343031 0.205109 0.261726 0.295731
C43   C     C_1   0.406196 0.885037 0.165702 0.250360
C44   C     C_1   0.279728 0.744136 0.160209 0.218339
C45   C     C_R   0.678092 0.258509 0.000378 -0.056793
C46   C     C_1   0.543319 0.354842 0.269098 0.317686
C47   C     C_1   0.270040 0.505562 0.107716 0.345325
C48   C     C_1   0.340674 0.136535 0.086330 0.230137
C49   C     C_1   0.760834 0.098561 0.990264 0.258680
C50   C     C_1   0.899895 0.237523 0.008022 0.250131
C51   C     C_1   0.729753 0.392378 0.990932 0.247397
C52   C     C_1   0.607231 0.269968 0.006745 0.234561
C53   C     C_R   0.685763 0.185942 0.999142 -0.105500
C54   C     C_R   0.485417 0.737494 0.813919 0.370108
C55   C     C_R   0.484318 0.674471 0.749128 -0.219650
C56   C     C_R   0.496643 0.689034 0.684679 -0.239715
Cl1   Cl    Cl    0.515427 0.782368 0.596832 -0.432521
Cl2   Cl    Cl    0.236616 0.514681 0.419599 -0.450869
Cl3   Cl    Cl    0.559377 0.197941 0.296880 -0.498335
Cl4   Cl    Cl    0.465436 0.714575 0.891659 -0.531926
Cl5   Cl    Cl    0.534440 0.932559 0.753124 -0.472116
Cl6   Cl    Cl    0.074765 0.613209 0.824520 -0.502461
Cl7   Cl    Cl    0.764916 0.682710 0.774913 -0.458124
Cl8   Cl    Cl    0.918819 0.681291 0.906261 -0.440821
Cl9   Cl    Cl    0.725368 0.320530 0.739073 -0.451405
Cl10  Cl    Cl    0.590884 0.320988 0.586315 -0.418386
Cl11  Cl    Cl    0.408327 0.491542 0.229968 -0.564045
Cl12  Cl    Cl    0.081718 0.489159 0.262792 -0.474358
H1    H     H_    0.474475 0.614207 0.749443 0.214940
H2    H     H_    0.226531 0.754813 0.866027 0.202594
N1    N     N_1   0.285739 0.178476 0.273865 -0.136436
N2    N     N_1   0.550920 0.279152 0.011943 -0.140680
N3    N     N_1   0.467939 0.940032 0.231601 -0.093415
N4    N     N_1   0.291571 0.739835 0.223015 -0.134149
N5    N     N_1   0.591718 0.381499 0.246779 -0.131745
N6    N     N_1   0.279249 0.509622 0.050820 -0.134130
N7    N     N_1   0.282057 0.104431 0.017368 -0.128651
N8    N     N_1   0.764088 0.036407 0.984209 -0.125164
N9    N     N_1   0.961663 0.233820 0.013818 -0.141719
N10   N     N_1   0.720736 0.448773 0.985235 -0.137296
O1    O     O_R   0.539900 0.091920 0.948590 -0.591886
O2    O     O_R   0.908310 0.551980 0.960300 -0.592770
O3    O     O_R   0.908280 0.357000 0.948510 -0.604037
O4    O     O_R   0.643340 0.091290 0.051390 -0.620986
O5    O     O_R   0.908310 0.459790 0.051330 -0.608787
O6    O     O_R   0.091510 0.448020 0.039520 -0.634584
O7    O     O_R   0.091540 0.550800 0.142340 -0.572889
O8    O     O_R   0.091520 0.540220 0.948490 -0.590677
O9    O     O_R   0.091540 0.643000 0.051310 -0.606591
O10   O     O_R   0.448270 0.091350 0.039630 -0.637138
O11   O     O_R   0.551710 0.090720 0.142430 -0.562520
O12   O     O_R   0.643360 0.554400 0.594170 -0.577077
O13   O     O_R   0.356660 0.908710 0.948610 -0.624720
O14   O     O_R   0.460100 0.908080 0.051410 -0.600385
O15   O     O_R   0.448290 0.909280 0.857570 -0.581212
O16   O     O_R   0.551730 0.908650 0.960370 -0.583530
O17   O     O_R   0.539910 0.450960 0.594180 -0.588084
O18   O     O_R   0.448310 0.360490 0.412110 -0.605909
O19   O     O_R   0.551750 0.463920 0.412090 -0.607020
O20   O     O_R   0.356690 0.452080 0.412090 -0.599298
O21   O     O_R   0.460130 0.555510 0.412070 -0.566661
O22   O     O_R   0.448290 0.542560 0.594160 -0.617529
O23   O     O_R   0.551730 0.645990 0.594150 -0.566047
O24   O     O_R   0.908290 0.449200 0.857490 -0.560872
Zn1   Zn    Zn3+2 0.430930 0.000420 0.931360 1.084196
Zn2   Zn    Zn3+2 0.569070 0.999580 0.068640 1.108268
Zn3   Zn    Zn3+2 0.430950 0.434180 0.503140 1.110642
Zn4   Zn    Zn3+2 0.569090 0.572300 0.503120 1.159143
Zn5   Zn    Zn3+2 0.999890 0.431370 0.931260 1.114464
Zn6   Zn    Zn3+2 0.999930 0.568630 0.068560 1.116395

loop_
_geom_bond_atom_site_label_1
_geom_bond_atom_site_label_2
_ccdc_geom_bond_type
C43   N3    T    
C55   C56   A    
C22   C29   A    
C27   C29   A    
C35   C36   A    
C15   O20   A    
C50   N9    T    
C2    Cl1   S    
C14   O19   A    
O7    Zn6   S    
C54   Cl4   S    
C1    O4    A    
O19   Zn4   S    
C12   C23   A    
C16   O13   A    
C12   C41   A    
C28   O15   A    
O2    Zn6   S    
C13   C29   S    
C47   N6    T    
O24   Zn5   S    
C33   C35   A    
C1    O1    A    
C20   O7    A    
C49   N8    T    
C37   C42   S    
C1    C53   S    
C51   N10   T    
O15   Zn1   S    
O13   Zn1   S    
C22   Cl7   S    
O12   Zn4   S    
C4    C40   S    
C8    C9    A    
C20   O6    A    
O4    Zn2   S    
O3    Zn5   S    
O23   Zn4   S    
C9    C10   A    
C30   Cl11  S    
C4    O11   A    
O21   Zn4   S    
C21   O8    A    
C45   C53   A    
C24   Cl8   S    
C40   Cl3   S    
C31   C47   S    
O11   Zn2   S    
C18   C25   S    
C19   O3    A    
C41   C49   S    
C46   N5    T    
C14   O18   A    
C4    O10   A    
C3    Cl5   S    
O1    Zn1   S    
C9    Cl6   S    
C5    C54   A    
C7    C8    A    
O6    Zn5   S    
C24   C25   A    
O5    Zn6   S    
C6    C11   A    
C21   O9    A    
C45   C52   S    
C19   O5    A    
C25   C26   A    
O9    Zn6   S    
C34   C51   S    
O18   Zn3   S    
C48   N7    T    
C19   C23   S    
C17   O22   A    
C37   C38   D    
C52   N2    T    
C14   C38   S    
C5    C28   S    
C11   C16   S    
C31   C32   A    
C23   C34   A    
C8    C21   S    
C26   C27   A    
O22   Zn3   S    
C34   C45   A    
C18   O24   A    
C7    C44   S    
C15   O21   A    
C44   N4    T    
C17   C56   S    
C41   C53   A    
C55   H1    S    
O8    Zn5   S    
C10   H2    S    
C6    C43   S    
C35   Cl2   S    
C13   O12   A    
C22   C24   A    
C15   C36   S    
C39   C40   D    
C20   C32   S    
O16   Zn2   S    
C54   C55   A    
O14   Zn2   S    
O20   Zn3   S    
C26   Cl9   S    
O10   Zn1   S    
C3    C5    A    
C12   C50   S    
C6    C7    A    
C16   O14   A    
C30   C36   A    
C28   O16   A    
C32   C33   A    
C2    C3    A    
C17   O23   A    
C37   C39   S    
C27   Cl10  S    
C2    C56   A    
C30   C31   A    
C42   N1    T    
C18   O2    A    
C13   O17   A    
C38   C46   S    
C10   C11   A    
O17   Zn3   S    
C33   Cl12  S    
C39   C48   S    
