data_mof_unit_23001.cif
_audit_creation_date              2012-12-11T15:07:30-0500
_audit_creation_method            fapswitch 2.2
_symmetry_space_group_name_H-M    P1
_symmetry_Int_Tables_number       1
_space_group_crystal_system       triclinic
_cell_length_a                    21.688956
_cell_length_b                    7.205435
_cell_length_c                    18.582884
_cell_angle_alpha                 90.000046
_cell_angle_beta                  95.917052
_cell_angle_gamma                 89.999967
_cell_volume                      2888.63015073

loop_
_atom_site_label
_atom_site_type_symbol
_atom_type_description
_atom_site_fract_x
_atom_site_fract_y
_atom_site_fract_z
_atom_type_partial_charge
O1    O     O_R   0.449650 0.506500 0.414480 -0.530487
O2    O     O_R   0.550350 0.006500 0.585520 -0.530487
O3    O     O_R   0.432010 0.173150 0.560250 -0.506324
O4    O     O_R   0.567990 0.673150 0.439750 -0.506324
C1    C     C_R   0.416272 0.344254 0.581323 0.721808
C2    C     C_R   0.583728 0.844254 0.418677 0.721808
O5    O     O_R   0.442320 0.176650 0.413480 -0.539657
O6    O     O_R   0.557680 0.676650 0.586520 -0.539657
O7    O     O_R   0.560730 0.008380 0.437700 -0.545804
O8    O     O_R   0.439270 0.508380 0.562300 -0.545805
C3    C     C_R   0.428650 0.344979 0.387494 0.696138
C4    C     C_R   0.571350 0.844979 0.612506 0.696138
O9    O     O_3   0.538840 0.339860 0.508120 -0.374983
O10   O     O_3   0.461160 0.839860 0.491880 -0.374983
V1    V     V_3+5 0.492800 0.064220 0.498490 1.472396
V2    V     V_3+5 0.507200 0.564220 0.501510 1.472396
C5    C     C_R   0.872141 0.925746 0.690096 -0.169222
C6    C     C_R   0.127858 0.425735 0.309903 -0.169222
H1    H     H_    0.960147 0.936444 0.753514 0.123682
H2    H     H_    0.039853 0.436433 0.246486 0.123682
H3    H     H_    0.790939 0.931511 0.573482 0.123815
H4    H     H_    0.209060 0.431494 0.426518 0.123815
H5    H     H_    0.893193 0.930520 0.639700 0.125311
H6    H     H_    0.106806 0.430503 0.360299 0.125310
C7    C     C_R   0.884937 0.938678 0.820899 -0.139328
C8    C     C_R   0.115063 0.438677 0.179101 -0.139328
C9    C     C_R   0.585315 0.804808 0.744274 -0.199426
C10   C     C_R   0.414686 0.304815 0.255726 -0.199426
C11   C     C_R   0.622030 0.768801 0.808459 -0.211025
C12   C     C_R   0.377971 0.268811 0.191539 -0.211025
C13   C     C_R   0.686763 0.781943 0.812423 0.353619
C14   C     C_R   0.313238 0.281952 0.187576 0.353619
C15   C     C_R   0.715285 0.856318 0.752786 0.051234
C16   C     C_R   0.284715 0.356320 0.247214 0.051235
C17   C     C_R   0.677593 0.873676 0.684972 0.002521
C18   C     C_R   0.322407 0.373674 0.315028 0.002521
C19   C     C_R   0.780495 0.898138 0.756041 0.040685
C20   C     C_R   0.219504 0.398137 0.243959 0.040685
C21   C     C_R   0.807692 0.912188 0.689924 0.068513
C22   C     C_R   0.192307 0.412180 0.310076 0.068513
C23   C     C_R   0.770392 0.915694 0.623896 -0.175438
C24   C     C_R   0.229608 0.415682 0.376105 -0.175438
C25   C     C_R   0.706259 0.905069 0.621661 -0.171838
C26   C     C_R   0.293741 0.405060 0.378339 -0.171836
C27   C     C_R   0.819244 0.934076 0.821749 0.337073
C28   C     C_R   0.180756 0.434079 0.178251 0.337073
C29   C     C_R   0.910343 0.931233 0.754912 -0.211826
C30   C     C_R   0.089657 0.431225 0.245088 -0.211825
C31   C     C_R   0.612255 0.849074 0.681434 -0.079290
C32   C     C_R   0.387745 0.349074 0.318566 -0.079290
H7    H     H_    0.535641 0.784622 0.742355 0.133690
H8    H     H_    0.464360 0.284631 0.257644 0.133690
H9    H     H_    0.600036 0.717417 0.854274 0.124664
H10   H     H_    0.399965 0.217432 0.145725 0.124664
H11   H     H_    0.679391 0.914632 0.569342 0.102710
H12   H     H_    0.320608 0.414620 0.430659 0.102708
C33   C     C_R   0.640101 0.711219 0.317235 0.302102
C34   C     C_R   0.359899 0.211220 0.682765 0.302102
C35   C     C_R   0.632826 0.854210 0.368053 -0.113814
C36   C     C_R   0.367174 0.354210 0.631947 -0.113814
C37   C     C_R   0.670459 0.013377 0.368289 -0.284075
C38   C     C_R   0.329541 0.513377 0.631711 -0.284075
C39   C     C_R   0.715607 0.031684 0.319976 0.090356
C40   C     C_R   0.284393 0.531684 0.680024 0.090356
C41   C     C_R   0.724505 0.887503 0.270783 0.011608
C42   C     C_R   0.275495 0.387503 0.729217 0.011608
C43   C     C_R   0.687383 0.725385 0.269579 -0.000621
C44   C     C_R   0.312617 0.225385 0.730421 -0.000621
C45   C     C_R   0.752452 0.192095 0.320525 -0.165631
C46   C     C_R   0.247548 0.692095 0.679475 -0.165630
C47   C     C_R   0.797775 0.210432 0.272609 -0.198529
C48   C     C_R   0.202225 0.710432 0.727391 -0.198530
C49   C     C_R   0.807438 0.068284 0.223469 0.090576
C50   C     C_R   0.192562 0.568284 0.776531 0.090576
C51   C     C_R   0.771040 0.905468 0.222931 0.076846
C52   C     C_R   0.228960 0.405468 0.777069 0.076846
C53   C     C_R   0.781517 0.760060 0.174983 0.090788
C54   C     C_R   0.218483 0.260060 0.825017 0.090788
C55   C     C_R   0.745645 0.598591 0.174949 -0.192377
C56   C     C_R   0.254355 0.098592 0.825051 -0.192377
C57   C     C_R   0.699461 0.580863 0.221668 -0.184101
C58   C     C_R   0.300539 0.080864 0.778332 -0.184102
C59   C     C_R   0.853371 0.085105 0.175569 -0.222094
C60   C     C_R   0.146629 0.585105 0.824431 -0.222094
C61   C     C_R   0.864635 0.939011 0.128343 -0.076350
C62   C     C_R   0.135365 0.439011 0.871657 -0.076350
C63   C     C_R   0.828292 0.777054 0.128527 -0.210894
C64   C     C_R   0.171707 0.277054 0.871473 -0.210894
H13   H     H_    0.664631 0.124150 0.406510 0.157626
H14   H     H_    0.335369 0.624150 0.593491 0.157626
H15   H     H_    0.746042 0.304164 0.357934 0.137709
H16   H     H_    0.253957 0.804164 0.642066 0.137709
H17   H     H_    0.825434 0.335883 0.274167 0.134933
H18   H     H_    0.174566 0.835883 0.725833 0.134933
H19   H     H_    0.881388 0.209856 0.176396 0.125155
H20   H     H_    0.118612 0.709856 0.823604 0.125155
H21   H     H_    0.836227 0.663837 0.092154 0.133738
H22   H     H_    0.163773 0.163837 0.907845 0.133738
H23   H     H_    0.753714 0.484397 0.139119 0.133211
H24   H     H_    0.246286 0.984397 0.860881 0.133211
H25   H     H_    0.674563 0.450782 0.220549 0.143863
H26   H     H_    0.325437 0.950782 0.779451 0.143863
O11   O     O_R   0.060820 0.290050 0.937800 -0.537377
O12   O     O_R   0.939180 0.790050 0.062200 -0.537377
O13   O     O_R   0.057690 0.616620 0.086540 -0.538274
O14   O     O_R   0.942310 0.116620 0.913460 -0.538274
C65   C     C_R   0.071739 0.448520 0.112284 0.683420
C66   C     C_R   0.928261 0.948520 0.887716 0.683419
O15   O     O_R   0.068010 0.619890 0.939770 -0.542689
O16   O     O_R   0.931990 0.119890 0.060230 -0.542689
O17   O     O_R   0.949640 0.787940 0.914460 -0.529413
O18   O     O_R   0.050360 0.287940 0.085540 -0.529414
C67   C     C_R   0.084654 0.451062 0.919571 0.695276
C68   C     C_R   0.915346 0.951062 0.080429 0.695276
O19   O     O_3   0.961210 0.453080 0.991940 -0.373948
O20   O     O_3   0.038790 0.953080 0.008060 -0.373948
V3    V     V_3+5 0.007200 0.728820 0.001500 1.412042
V4    V     V_3+5 0.992800 0.228820 0.998500 1.412043
O21   O     O_3   0.791796 0.982586 0.883079 -0.638253
H27   H     H_    0.823626 0.012901 0.923330 0.274028
O22   O     O_3   0.208204 0.482595 0.116922 -0.638253
H28   H     H_    0.176374 0.512914 0.076672 0.274029
N1    N     N_2   0.722077 0.695792 0.872261 -0.484616
H29   H     H_    0.700226 0.691753 0.919011 0.256558
C69   C     C_3   0.748852 0.518462 0.856079 -0.508038
H30   H     H_    0.711606 0.415816 0.840442 0.197175
H31   H     H_    0.777748 0.466424 0.904712 0.202725
H32   H     H_    0.778976 0.532176 0.811541 0.197318
N2    N     N_2   0.277924 0.195804 0.127736 -0.484617
H33   H     H_    0.299775 0.191771 0.080986 0.256558
C70   C     C_3   0.251150 0.018471 0.143915 -0.508037
H34   H     H_    0.222254 0.966437 0.095282 0.202723
H35   H     H_    0.221026 0.032180 0.188453 0.197319
H36   H     H_    0.288397 0.915825 0.159551 0.197175
O23   O     O_3   0.599597 0.562840 0.314420 -0.643182
H37   H     H_    0.589754 0.525539 0.263292 0.274014
O24   O     O_3   0.400403 0.062840 0.685580 -0.643182
H38   H     H_    0.410247 0.025540 0.736708 0.274015

loop_
_geom_bond_atom_site_label_1
_geom_bond_atom_site_label_2
_ccdc_geom_bond_type
C42   C44   A    
C39   C41   A    
C9    C11   A    
C23   C25   A    
C65   O18   A    
O1    C3    A    
C70   H36   S    
O2    C4    A    
O16   V4    S    
C2    O7    A    
C4    C31   S    
O15   V3    S    
N1    H29   S    
C21   C23   A    
C57   H25   S    
O5    C3    A    
O13   C65   A    
C5    H5    S    
C50   C52   A    
C62   C67   S    
C6    H6    S    
C55   H23   S    
C61   C68   S    
C20   C22   A    
C52   C54   A    
O12   V3    S    
C5    C21   A    
C62   C64   A    
N1    C69   S    
C34   C36   A    
O20   V3    S    
C36   C38   A    
C60   H20   S    
C45   C47   A    
C6    C22   A    
C38   C40   A    
C10   C32   A    
C39   C45   A    
C37   H13   S    
C41   C43   A    
C17   C31   A    
C69   H32   S    
C13   C15   A    
C28   O22   S    
C40   C46   A    
C12   C14   A    
C17   C25   A    
O16   C68   A    
C16   C18   A    
C8    C30   A    
C48   H18   S    
C27   O21   S    
C61   C63   A    
C42   C52   A    
O6    V2    S    
O14   V4    S    
C49   C51   A    
O13   V3    S    
C24   C26   A    
C33   C43   A    
C14   N2    S    
C9    H7    S    
C53   C55   A    
C54   C64   A    
C35   C37   A    
O23   H37   S    
C48   C50   A    
C50   C60   A    
C47   C49   A    
C70   H35   S    
C15   C19   A    
C40   C42   A    
O4    V2    S    
C12   H10   S    
C26   H12   S    
O6    C4    A    
O19   V4    S    
C59   H19   S    
C37   C39   A    
C58   H26   S    
H1    C29   S    
O1    V2    S    
O2    V1    S    
C51   C53   A    
O22   H28   S    
H2    C30   S    
H3    C23   S    
C34   O24   S    
O4    C2    A    
C59   C61   A    
C43   C57   A    
C69   H30   S    
O12   C68   A    
C18   C26   A    
O11   V4    S    
C19   C27   A    
C70   H34   S    
C7    C27   A    
C18   C32   A    
O14   C66   A    
C55   C57   A    
N2    H33   S    
C25   H11   S    
C7    C29   A    
C1    C36   S    
O11   C67   A    
C16   C20   A    
C2    C35   S    
C46   H16   S    
C5    C29   A    
C60   C62   A    
C22   C24   A    
O3    C1    A    
C6    C30   A    
C8    C65   S    
O21   H27   S    
C47   H17   S    
O15   C67   A    
O24   H38   S    
C41   C51   A    
C66   O17   A    
O17   V3    S    
C44   C58   A    
C10   C12   A    
O7    V1    S    
C13   N1    S    
C1    O8    A    
C11   C13   A    
C3    C32   S    
O8    V2    S    
O18   V4    S    
C10   H8    S    
C34   C44   A    
H4    C24   S    
C11   H9    S    
C38   H14   S    
O5    V1    S    
C15   C17   A    
C56   C58   A    
C54   C56   A    
C64   H22   S    
C20   C28   A    
C33   C35   A    
C8    C28   A    
C53   C63   A    
C19   C21   A    
O9    V2    S    
C69   H31   S    
O10   V1    S    
C33   O23   S    
O3    V1    S    
C46   C48   A    
N2    C70   S    
C45   H15   S    
C49   C59   A    
C56   H24   S    
C9    C31   A    
C7    C66   S    
C14   C16   A    
C63   H21   S    
