data_mof_unit_56383.cif
_audit_creation_date              2012-12-11T15:12:49-0500
_audit_creation_method            fapswitch 2.2
_symmetry_space_group_name_H-M    P1
_symmetry_Int_Tables_number       1
_space_group_crystal_system       triclinic
_cell_length_a                    22.371826
_cell_length_b                    6.934613
_cell_length_c                    19.306022
_cell_angle_alpha                 89.999978
_cell_angle_beta                  99.290191
_cell_angle_gamma                 89.999895
_cell_volume                      2955.84930479

loop_
_atom_site_label
_atom_site_type_symbol
_atom_type_description
_atom_site_fract_x
_atom_site_fract_y
_atom_site_fract_z
_atom_type_partial_charge
O1    O     O_R   0.448420 0.506120 0.415750 -0.535012
O2    O     O_R   0.551580 0.006120 0.584250 -0.535012
O3    O     O_R   0.436490 0.174470 0.555610 -0.542722
O4    O     O_R   0.563510 0.674470 0.444390 -0.542721
C1    C     C_R   0.421432 0.344566 0.576230 0.721113
C2    C     C_R   0.578568 0.844565 0.423769 0.721110
O5    O     O_R   0.441310 0.176330 0.414520 -0.534343
O6    O     O_R   0.558690 0.676330 0.585480 -0.534343
O7    O     O_R   0.556430 0.007110 0.442150 -0.530925
O8    O     O_R   0.443570 0.507110 0.557850 -0.530929
C3    C     C_R   0.427059 0.345485 0.387972 0.699123
C4    C     C_R   0.572941 0.845485 0.612028 0.699122
O9    O     O_3   0.537770 0.339560 0.509230 -0.367228
O10   O     O_3   0.462230 0.839560 0.490770 -0.367231
V1    V     V_3+5 0.492990 0.064280 0.498290 1.451103
V2    V     V_3+5 0.507010 0.564280 0.501710 1.451102
C5    C     C_R   0.868303 0.917253 0.694555 -0.164089
C6    C     C_R   0.131696 0.417234 0.305445 -0.164090
H1    H     H_    0.955656 0.945299 0.758299 0.101142
H2    H     H_    0.044343 0.445276 0.241701 0.101143
H3    H     H_    0.786710 0.879307 0.579677 0.117041
H4    H     H_    0.213289 0.379280 0.420322 0.117040
H5    H     H_    0.887397 0.915063 0.646411 0.107852
H6    H     H_    0.112602 0.415033 0.353589 0.107851
C7    C     C_R   0.884418 0.937138 0.821272 -0.039506
C8    C     C_R   0.115582 0.437137 0.178728 -0.039506
C9    C     C_R   0.588394 0.865747 0.741049 -0.137893
C10   C     C_R   0.411606 0.365760 0.258951 -0.137892
C11   C     C_R   0.624371 0.887340 0.807294 0.148111
C12   C     C_R   0.375629 0.387358 0.192706 0.148102
C13   C     C_R   0.687469 0.897593 0.811976 -0.205112
C14   C     C_R   0.312531 0.397610 0.188025 -0.205117
C15   C     C_R   0.716004 0.890169 0.751806 0.059272
C16   C     C_R   0.283996 0.390175 0.248195 0.059274
C17   C     C_R   0.678449 0.870342 0.684783 0.065063
C18   C     C_R   0.321551 0.370340 0.315217 0.065062
C19   C     C_R   0.780563 0.904742 0.755969 0.085505
C20   C     C_R   0.219437 0.404742 0.244031 0.085504
C21   C     C_R   0.805492 0.901539 0.692743 0.141982
C22   C     C_R   0.194508 0.401527 0.307257 0.141982
C23   C     C_R   0.767765 0.882269 0.627928 -0.206481
C24   C     C_R   0.232235 0.382251 0.372072 -0.206481
C25   C     C_R   0.705395 0.866314 0.623915 -0.182507
C26   C     C_R   0.294605 0.366301 0.376084 -0.182509
C27   C     C_R   0.821577 0.922114 0.820356 -0.215271
C28   C     C_R   0.178422 0.422121 0.179644 -0.215270
C29   C     C_R   0.907317 0.934876 0.758196 -0.171655
C30   C     C_R   0.092683 0.434860 0.241804 -0.171655
C31   C     C_R   0.614509 0.857032 0.679989 -0.122434
C32   C     C_R   0.385491 0.357034 0.320011 -0.122433
H7    H     H_    0.806545 0.922489 0.870629 0.090780
H8    H     H_    0.193455 0.422505 0.129371 0.090779
H9    H     H_    0.539585 0.857497 0.735860 0.115321
H10   H     H_    0.460415 0.357514 0.264140 0.115310
H11   H     H_    0.713068 0.914345 0.863876 0.106166
H12   H     H_    0.286932 0.414370 0.136124 0.106167
H13   H     H_    0.678328 0.851539 0.572381 0.100843
H14   H     H_    0.321671 0.351520 0.427618 0.100843
C33   C     C_3   0.798175 0.732523 0.250158 -0.324948
C34   C     C_3   0.201820 0.232544 0.749834 -0.324953
C35   C     C_3   0.788538 0.089685 0.249959 -0.374583
C36   C     C_3   0.211470 0.589697 0.750051 -0.374572
C37   C     C_3   0.740234 0.072561 0.299384 -0.326564
C38   C     C_3   0.259776 0.572582 0.700630 -0.326608
H15   H     H_    0.771398 0.710847 0.354086 0.164232
H16   H     H_    0.228595 0.210920 0.645904 0.164238
H17   H     H_    0.843243 0.748383 0.283821 0.149480
H18   H     H_    0.156752 0.248424 0.716173 0.149478
H19   H     H_    0.780576 0.224295 0.218424 0.145130
H20   H     H_    0.219431 0.724294 0.781593 0.145119
H21   H     H_    0.834349 0.103155 0.282125 0.150805
H22   H     H_    0.165660 0.603186 0.717883 0.150808
H23   H     H_    0.763579 0.075751 0.354843 0.139588
H24   H     H_    0.236436 0.575814 0.645171 0.139611
H25   H     H_    0.709901 0.199822 0.292841 0.182981
H26   H     H_    0.290115 0.699821 0.707187 0.182883
C39   C     C_1   0.622877 0.854171 0.376550 -0.142047
C40   C     C_1   0.377123 0.354174 0.623450 -0.142056
C41   C     C_3   0.786216 0.911042 0.200882 0.221782
C42   C     C_3   0.213784 0.411040 0.799119 0.221785
C43   C     C_3   0.749094 0.713367 0.298201 -0.436561
C44   C     C_3   0.250899 0.213398 0.701788 -0.436535
C45   C     C_3   0.703160 0.882434 0.285836 0.138791
C46   C     C_3   0.296840 0.382437 0.714165 0.138778
C47   C     C_3   0.672088 0.870689 0.206805 0.355513
C48   C     C_3   0.327910 0.370646 0.793194 0.355462
C49   C     C_3   0.720406 0.906111 0.157253 -0.119143
C50   C     C_3   0.279594 0.406072 0.842747 -0.119136
C51   C     C_1   0.659033 0.865354 0.335917 0.003953
C52   C     C_1   0.340968 0.365359 0.664083 0.003909
C53   C     C_1   0.834004 0.927736 0.155390 -0.072284
C54   C     C_1   0.165996 0.427734 0.844611 -0.072289
C55   C     C_1   0.873355 0.939228 0.118834 -0.204431
C56   C     C_1   0.126645 0.439227 0.881167 -0.204429
H27   H     H_    0.712510 0.054627 0.135801 0.172910
H28   H     H_    0.287495 0.554578 0.864206 0.172919
H29   H     H_    0.653218 0.722874 0.197754 0.082168
H30   H     H_    0.346772 0.222823 0.802236 0.082173
H31   H     H_    0.801055 0.597101 0.220759 0.134305
H32   H     H_    0.198938 0.097113 0.779226 0.134303
H33   H     H_    0.725076 0.573238 0.287699 0.148731
H34   H     H_    0.274910 0.073258 0.712278 0.148677
O11   O     O_R   0.056480 0.288780 0.942210 -0.535139
O12   O     O_R   0.943520 0.788780 0.057790 -0.535139
O13   O     O_R   0.058700 0.616820 0.085490 -0.538110
O14   O     O_R   0.941300 0.116820 0.914510 -0.538110
C57   C     C_R   0.073186 0.448018 0.111843 0.693897
C58   C     C_R   0.926814 0.948019 0.888157 0.693897
O15   O     O_R   0.063520 0.618570 0.944410 -0.537830
O16   O     O_R   0.936480 0.118570 0.055590 -0.537831
O17   O     O_R   0.948420 0.787670 0.915740 -0.535256
O18   O     O_R   0.051580 0.287670 0.084260 -0.535256
C59   C     C_R   0.079435 0.449667 0.924636 0.726708
C60   C     C_R   0.920565 0.949667 0.075364 0.726708
O19   O     O_3   0.962260 0.453430 0.990800 -0.365655
O20   O     O_3   0.037740 0.953430 0.009200 -0.365655
V3    V     V_3+5 0.007000 0.728750 0.001710 1.420316
V4    V     V_3+5 0.993000 0.228750 0.998290 1.420316
C61   C     C_3   0.710245 0.779040 0.089823 -0.388737
C62   C     C_3   0.726404 0.564359 0.099632 -0.306937
C63   C     C_3   0.699009 0.447162 0.035289 -0.719091
H35   H     H_    0.648762 0.451502 0.028461 0.242555
H36   H     H_    0.714140 0.505312 0.987359 0.215502
H37   H     H_    0.713900 0.294679 0.042087 0.213051
H38   H     H_    0.776345 0.547225 0.106367 0.191766
H39   H     H_    0.709629 0.504549 0.146182 0.225175
H40   H     H_    0.661893 0.791831 0.065505 0.229647
H41   H     H_    0.736736 0.840386 0.050997 0.168666
C64   C     C_3   0.289749 0.278983 0.910172 -0.388726
C65   C     C_3   0.273580 0.064316 0.900355 -0.306951
C66   C     C_3   0.300964 0.947097 0.964695 -0.719120
H42   H     H_    0.351210 0.951385 0.971522 0.242584
H43   H     H_    0.285840 0.005260 0.012627 0.215506
H44   H     H_    0.286058 0.794634 0.957896 0.213042
H45   H     H_    0.223639 0.047208 0.893616 0.191777
H46   H     H_    0.290356 0.004506 0.853806 0.225152
H47   H     H_    0.338101 0.291744 0.934490 0.229655
H48   H     H_    0.263261 0.340330 0.949001 0.168665
S1    S     S_3+6 0.607654 0.029925 0.184074 -0.084838
O21   O     O_2   0.579929 0.996850 0.108834 -0.353344
O22   O     O_2   0.560437 0.986868 0.229198 -0.370119
O23   O     O_3   0.628706 0.262761 0.193346 -0.542825
H49   H     H_    0.604949 0.317993 0.227640 0.336436
S2    S     S_3+6 0.392352 0.529839 0.815936 -0.084800
O24   O     O_2   0.420082 0.496671 0.891163 -0.353297
O25   O     O_2   0.439564 0.486833 0.770801 -0.370101
O26   O     O_3   0.371312 0.762678 0.806706 -0.542774
H50   H     H_    0.394981 0.817862 0.772316 0.336383
C67   C     C_3   0.598448 0.903031 0.875155 -0.395939
C68   C     C_3   0.529021 0.902506 0.867084 -0.305161
C69   C     C_3   0.508198 0.925624 0.938064 -0.586576
H51   H     H_    0.526238 0.806284 0.973745 0.234199
H52   H     H_    0.524330 0.065296 0.962268 0.232447
H53   H     H_    0.457954 0.922784 0.930935 0.240196
H54   H     H_    0.510007 0.023403 0.832558 0.213530
H55   H     H_    0.511248 0.763780 0.843553 0.266878
H56   H     H_    0.616446 0.781139 0.909838 0.181728
H57   H     H_    0.615461 0.039217 0.901801 0.187949
C70   C     C_3   0.401552 0.403056 0.124845 -0.395886
C71   C     C_3   0.470979 0.402488 0.132915 -0.305248
C72   C     C_3   0.491802 0.425582 0.061934 -0.586590
H58   H     H_    0.473751 0.306257 0.026253 0.234227
H59   H     H_    0.475682 0.565268 0.037732 0.232442
H60   H     H_    0.542047 0.422695 0.069063 0.240193
H61   H     H_    0.490000 0.523376 0.167440 0.213499
H62   H     H_    0.488743 0.263752 0.156446 0.266864
H63   H     H_    0.383547 0.281181 0.090157 0.181721
H64   H     H_    0.384546 0.539258 0.098205 0.187950

loop_
_geom_bond_atom_site_label_1
_geom_bond_atom_site_label_2
_ccdc_geom_bond_type
O18   V4    S    
C50   H28   S    
O4    V2    S    
C9    C11   A    
C33   H31   S    
C57   O18   A    
O26   H50   S    
O1    C3    A    
C66   H44   S    
O2    C4    A    
O16   V4    S    
C2    O7    A    
C41   C49   S    
C72   H58   S    
O15   V3    S    
C21   C23   A    
C43   H33   S    
C40   C52   T    
O5    C3    A    
O13   C57   A    
C39   C51   T    
C5    H5    S    
C46   C52   S    
C6    H6    S    
C36   C42   S    
O11   C59   A    
C46   C48   S    
O12   V3    S    
S1    O23   S    
C48   C50   S    
H16   C44   S    
C27   H7    S    
C28   H8    S    
O20   V3    S    
C36   H20   S    
C5    C21   A    
C69   H53   S    
C35   C37   S    
C6    C22   A    
C38   C46   S    
C63   H37   S    
C36   C38   S    
C66   H43   S    
C33   H17   S    
C10   C32   A    
C64   H48   S    
C65   H45   S    
C26   H14   S    
O19   V3    S    
C49   H27   S    
C17   C31   A    
C69   H51   S    
C13   C15   A    
O10   V2    S    
C71   H62   S    
C12   C14   A    
C17   C25   A    
C67   H57   S    
O16   C60   A    
C41   C53   S    
C8    C30   A    
C61   H41   S    
C35   H21   S    
O5    V1    S    
O6    V2    S    
C68   H55   S    
O14   V4    S    
C11   C13   A    
C23   C25   A    
O13   V3    S    
C24   C26   A    
C50   C64   S    
S2    O26   S    
C72   H59   S    
C56   C59   S    
C4    C31   S    
C47   C49   S    
C44   H34   S    
C12   C70   S    
C45   C51   S    
C20   C28   A    
C48   S2    S    
C33   C43   S    
S2    O25   D    
C33   C41   S    
C10   H10   S    
C62   H38   S    
C2    C39   S    
C37   H23   S    
C34   H32   S    
C15   C19   A    
C37   C45   S    
C14   C16   A    
C42   C54   S    
C49   C61   S    
C53   C55   T    
H15   C43   S    
C70   C71   S    
O10   V1    S    
O6    C4    A    
O19   V4    S    
C54   C56   T    
C38   H26   S    
C25   H13   S    
C36   H22   S    
O1    V2    S    
C71   H61   S    
C61   C62   S    
O2    V1    S    
C63   H35   S    
H2    C30   S    
C34   C44   S    
O20   V4    S    
H3    C23   S    
O4    C2    A    
C45   C47   S    
C70   H64   S    
C44   C46   S    
C68   H54   S    
O9    V1    S    
O12   C60   A    
C18   C26   A    
O11   V4    S    
C19   C27   A    
C66   H42   S    
C7    C27   A    
C72   H60   S    
C18   C32   A    
C62   C63   S    
O14   C58   A    
C64   C65   S    
C35   H19   S    
C47   S1    S    
C7    C29   A    
C34   C42   S    
C16   C20   A    
C65   H46   S    
C5    C29   A    
S2    O24   D    
O3    C1    A    
C6    C30   A    
C8    C57   S    
C43   C45   S    
S1    O21   D    
C9    H9    S    
O15   C59   A    
C58   O17   A    
O17   V3    S    
C71   C72   S    
H1    C29   S    
C10   C12   A    
C65   C66   S    
O7    V1    S    
C1    O8    A    
C42   C50   S    
C3    C32   S    
O8    V2    S    
C67   C68   S    
C20   C22   A    
S1    O22   D    
H4    C24   S    
C37   H25   S    
C35   C41   S    
C22   C24   A    
C15   C17   A    
C16   C18   A    
C70   H63   S    
C62   H39   S    
C55   C60   S    
C69   H52   S    
C48   H30   S    
C63   H36   S    
C47   H29   S    
C8    C28   A    
C11   C67   S    
C64   H47   S    
C34   H18   S    
C19   C21   A    
O9    V2    S    
O23   H49   S    
C38   H24   S    
C68   C69   S    
O3    V1    S    
C13   H11   S    
C1    C40   S    
C67   H56   S    
C14   H12   S    
C9    C31   A    
C7    C58   S    
C61   H40   S    
