data_mof_unit_40501.cif
_audit_creation_date              2012-12-10T20:36:37-0500
_audit_creation_method            fapswitch 2.2
_symmetry_space_group_name_H-M    P1
_symmetry_Int_Tables_number       1
_space_group_crystal_system       triclinic
_cell_length_a                    10.926472
_cell_length_b                    11.161227
_cell_length_c                    10.138499
_cell_angle_alpha                 85.927516
_cell_angle_beta                  88.932498
_cell_angle_gamma                 95.175327
_cell_volume                      1227.87885671

loop_
_atom_site_label
_atom_site_type_symbol
_atom_type_description
_atom_site_fract_x
_atom_site_fract_y
_atom_site_fract_z
_atom_type_partial_charge
C1    C     C_R   0.497876 0.260219 0.503890 0.875797
C2    C     C_R   0.477752 0.926191 0.614283 -0.034704
C3    C     C_3   0.472220 0.902129 0.761946 0.518687
C4    C     C_R   0.256974 0.495075 0.501933 1.072638
C5    C     C_3   0.464651 0.042382 0.768106 0.273783
C6    C     C_R   0.403948 0.446454 0.076350 0.174016
C7    C     C_R   0.590784 0.561728 0.062448 0.206385
C8    C     C_R   0.592065 0.556764 0.921485 -0.149015
C9    C     C_R   0.402954 0.448767 0.935297 0.249423
C10   C     C_3   0.363662 0.320020 0.941011 -0.565857
C11   C     C_3   0.361584 0.316578 0.090121 0.166317
C12   C     C_3   0.968872 0.554381 0.395857 0.375572
C13   C     C_R   0.494571 0.738791 0.496914 0.930233
C14   C     C_R   0.741867 0.499507 0.499520 0.963704
C15   C     C_3   0.027623 0.427944 0.612285 0.443312
C16   C     C_3   0.942226 0.379021 0.506053 -0.337798
C17   C     C_3   0.876043 0.494660 0.501132 -0.364045
C18   C     C_3   0.959531 0.541991 0.611067 0.317140
C19   C     C_3   0.050998 0.604500 0.504313 0.238002
C20   C     C_3   0.702886 0.900538 0.743875 -0.679708
C21   C     C_3   0.290310 0.059509 0.933354 -0.410262
C22   C     C_3   0.610905 0.098306 0.954852 -0.642298
C23   C     C_3   0.035455 0.438940 0.400275 -0.130637
C24   C     C_3   0.639953 0.754234 0.147418 -0.542449
C25   C     C_3   0.120151 0.489951 0.506815 -0.345085
C26   C     C_R   0.479202 0.048162 0.620074 -0.102162
C27   C     C_R   0.491163 0.127265 0.506746 -0.127715
C28   C     C_R   0.486199 0.071965 0.385820 -0.299150
C29   C     C_R   0.466129 0.946066 0.380910 0.365734
C30   C     C_R   0.481842 0.869612 0.495533 -0.158705
H1    H     H_    0.897968 0.285435 0.506257 0.223413
H2    H     H_    0.711848 0.997377 0.710138 0.253063
H3    H     H_    0.710771 0.849262 0.654843 0.269303
H4    H     H_    0.280022 0.072779 0.728818 0.278822
H5    H     H_    0.202186 0.100445 0.933333 0.253634
H6    H     H_    0.351167 0.095671 0.008309 0.250745
H7    H     H_    0.265604 0.965209 0.965111 0.322431
H8    H     H_    0.589598 0.200475 0.778958 0.267413
H9    H     H_    0.703513 0.147093 0.961209 0.248941
H10   H     H_    0.620923 0.003253 0.983806 0.285263
H11   H     H_    0.549924 0.136926 0.025059 0.224889
H12   H     H_    0.665227 0.604822 0.863005 0.221061
H13   H     H_    0.758981 0.656079 0.055348 0.287284
H14   H     H_    0.677042 0.826698 0.073196 0.199227
H15   H     H_    0.673278 0.778211 0.245480 0.260862
H16   H     H_    0.538813 0.748867 0.148316 0.298851
H17   H     H_    0.274026 0.210115 0.344269 0.350966
H18   H     H_    0.949862 0.199090 0.882144 0.393044
H19   H     H_    0.014118 0.707637 0.902147 0.390427
H20   H     H_    0.052992 0.919613 0.592050 0.381799
H21   H     H_    0.098149 0.733678 0.117970 0.405166
H22   H     H_    0.235597 0.003885 0.332665 0.373517
H23   H     H_    0.274402 0.300695 0.897186 0.308957
H24   H     H_    0.302087 0.689234 0.004132 0.404210
H25   H     H_    0.437788 0.272697 0.899653 0.197716
H26   H     H_    0.429098 0.260792 0.137914 0.079897
H27   H     H_    0.044931 0.385360 0.316456 0.302598
H28   H     H_    0.483108 0.126314 0.293894 0.191908
H29   H     H_    0.580142 0.777090 0.856693 0.249888
H30   H     H_    0.779596 0.886176 0.811636 0.281820
N1    N     N_R   0.499140 0.499140 0.142800 -0.159682
N2    N     N_R   0.499140 0.499180 0.857150 -0.131247
N3    N     N_2   0.586677 0.862957 0.813660 -0.342702
N4    N     N_2   0.344569 0.081613 0.801396 -0.326860
N5    N     N_2   0.569431 0.114347 0.820736 -0.322003
N6    N     N_2   0.681776 0.640572 0.116251 -0.233495
O1    O     O_R   0.500020 0.316790 0.614690 -0.639222
O2    O     O_2   0.136576 0.186095 0.120202 -0.270367
O3    O     O_3   0.224179 0.278910 0.327829 -0.570728
O4    O     O_2   0.149600 0.249127 0.711179 -0.379695
O5    O     O_2   0.104675 0.408077 0.858125 -0.186809
O6    O     O_3   0.926145 0.249863 0.804316 -0.530126
O7    O     O_2   0.836047 0.694364 0.735785 -0.371621
O8    O     O_2   0.852638 0.496424 0.852027 -0.234866
O9    O     O_3   0.044560 0.652289 0.839551 -0.391452
O10   O     O_2   0.236442 0.772617 0.533048 -0.273344
O11   O     O_2   0.087507 0.821276 0.366636 -0.216611
O12   O     O_R   0.500000 0.316760 0.385350 -0.642509
O13   O     O_3   0.024864 0.833022 0.610222 -0.461466
O14   O     O_2   0.894032 0.525687 0.151830 -0.244663
O15   O     O_2   0.891517 0.729853 0.234515 -0.325570
O16   O     O_3   0.101249 0.654782 0.168455 -0.446697
O17   O     O_2   0.450373 0.930806 0.126066 -0.362020
O18   O     O_2   0.325492 0.772054 0.261459 -0.188487
O19   O     O_3   0.255162 0.987807 0.240232 -0.485212
O20   O     O_2   0.219967 0.854215 0.784564 -0.272594
O21   O     O_2   0.329373 0.679520 0.766376 -0.220898
O22   O     O_3   0.340526 0.772631 0.985278 -0.522662
O23   O     O_R   0.313960 0.499990 0.614650 -0.556824
O24   O     O_R   0.313940 0.499950 0.385310 -0.540567
O25   O     O_R   0.500000 0.683240 0.614650 -0.585860
O26   O     O_R   0.499980 0.683210 0.385310 -0.611341
O27   O     O_R   0.686060 0.500050 0.614690 -0.585341
O28   O     O_R   0.686040 0.500010 0.385350 -0.578474
O29   O     O_2   0.147641 0.404924 0.121552 -0.187367
S1    S     S_3+6 0.211436 0.295063 0.162865 0.050906
S2    S     S_3+6 0.056775 0.331655 0.751363 0.076626
S3    S     S_3+6 0.918484 0.596854 0.764214 0.115688
S4    S     S_3+6 0.103538 0.761268 0.501126 0.128171
S5    S     S_3+6 0.958650 0.618578 0.232625 0.093258
S6    S     S_3+6 0.374154 0.902499 0.249620 0.032434
S7    S     S_3+6 0.336800 0.800451 0.820965 0.042436
Zn1   Zn    Zn3+2 0.500010 0.500020 0.653130 1.061840
Zn2   Zn    Zn3+2 0.499990 0.499980 0.346870 1.059753

loop_
_geom_bond_atom_site_label_1
_geom_bond_atom_site_label_2
_ccdc_geom_bond_type
C11   S1    S    
C15   C18   S    
O18   S6    D    
O29   S1    D    
O3    S1    S    
H20   O13   S    
O27   Zn1   S    
C6    C9    A    
C4    C25   S    
O1    Zn1   S    
C7    C8    A    
O8    S3    D    
C21   H6    S    
C16   H1    S    
O5    S2    D    
C12   C23   S    
C26   C27   A    
O2    S1    D    
C24   H15   S    
C6    N1    A    
O13   S4    S    
C28   C29   A    
H18   O6    S    
C4    O23   A    
C15   C25   S    
C22   H11   S    
C15   C16   S    
C18   C19   S    
C10   H23   S    
H17   O3    S    
C21   N4    S    
C7    N1    A    
C16   C17   S    
C12   C17   S    
H19   O9    S    
C20   H30   S    
C9    C10   S    
C14   O27   A    
O4    S2    D    
C24   N6    S    
O28   Zn2   S    
O14   S5    D    
C1    O12   A    
C14   C17   S    
C15   S2    S    
C4    O24   A    
O6    S2    S    
O7    S3    D    
O12   Zn2   S    
C9    N2    A    
C13   C30   S    
N1    Zn2   S    
C5    N5    S    
O25   Zn1   S    
C6    C11   S    
C19   S4    S    
O9    S3    S    
C5    N4    S    
O10   S4    D    
C22   N5    S    
C29   C30   A    
O21   S7    D    
H8    N5    S    
C22   H10   S    
H4    N4    S    
C17   C18   S    
C29   S6    S    
C2    C26   A    
C10   H25   S    
H21   O16   S    
O24   Zn2   S    
C20   H3    S    
C3    S7    S    
C16   C23   S    
C28   H28   S    
C13   O26   A    
C24   H14   S    
O20   S7    D    
O19   S6    S    
N2    Zn1   S    
C20   H2    S    
C23   H27   S    
H22   O19   S    
O17   S6    D    
O16   S5    S    
C8    H12   S    
C3    C5    S    
O22   S7    S    
C21   H5    S    
O15   S5    D    
C3    N3    S    
H29   N3    S    
C2    C30   A    
C24   H16   S    
C20   N3    S    
C2    C3    S    
O23   Zn1   S    
C7    N6    S    
H24   O22   S    
H13   N6    S    
C22   H9    S    
C12   C19   S    
C1    O1    A    
O11   S4    D    
C23   C25   S    
C19   C25   S    
C12   S5    S    
C10   C11   S    
O26   Zn2   S    
C5    C26   S    
C21   H7    S    
C27   C28   A    
C1    C27   S    
C18   S3    S    
C14   O28   A    
C13   O25   A    
C11   H26   S    
C8    N2    A    
