data_mof_unit_68604.cif
_audit_creation_date              2012-12-10T16:55:45-0500
_audit_creation_method            fapswitch 2.2
_symmetry_space_group_name_H-M    P1
_symmetry_Int_Tables_number       1
_space_group_crystal_system       triclinic
_cell_length_a                    7.873026
_cell_length_b                    8.533343
_cell_length_c                    10.481025
_cell_angle_alpha                 92.102205
_cell_angle_beta                  84.853435
_cell_angle_gamma                 93.720456
_cell_volume                      699.494867233

loop_
_atom_site_label
_atom_site_type_symbol
_atom_type_description
_atom_site_fract_x
_atom_site_fract_y
_atom_site_fract_z
_atom_type_partial_charge
C1    C     C_R   0.545412 0.794289 0.497066 0.995827
C2    C     C_R   0.454577 0.205710 0.502851 0.949811
C3    C     C_R   0.500655 0.499540 0.741989 0.913137
C4    C     C_R   0.499271 0.500025 0.258005 0.956440
C5    C     C_3   0.422213 0.625860 0.965506 -0.219941
C6    C     C_3   0.577577 0.372853 0.034524 -0.229013
C7    C     C_3   0.582618 0.629749 0.039159 0.451256
C8    C     C_3   0.417159 0.368871 0.960817 0.436422
C9    C     C_3   0.497858 0.500198 0.123235 -0.169510
C10   C     C_3   0.501934 0.498513 0.876744 -0.189426
C11   C     C_3   0.335834 0.494062 0.051509 -0.233108
C12   C     C_3   0.663917 0.504593 0.948476 -0.290710
C13   C     C_2   0.569111 0.958114 0.495390 -0.291811
C14   C     C_2   0.430856 0.041882 0.504529 -0.285106
H1    H     H_    0.361095 0.729579 0.933490 0.228897
H2    H     H_    0.638745 0.269157 0.066532 0.232855
H3    H     H_    0.202429 0.488197 0.096410 0.203307
H4    H     H_    0.797325 0.510430 0.903583 0.197606
H5    H     H_    0.699742 0.009124 0.486435 0.169677
H6    H     H_    0.300223 0.990884 0.513560 0.176996
N1    N     N_2   0.950320 0.457950 0.465730 -0.010146
N2    N     N_2   0.049680 0.542050 0.534270 -0.006254
O1    O     O_R   0.389250 0.738570 0.508410 -0.622814
O2    O     O_R   0.610750 0.261430 0.491590 -0.633139
O3    O     O_R   0.678390 0.711620 0.486450 -0.629792
O4    O     O_R   0.321610 0.288380 0.513550 -0.625630
O5    O     O_R   0.355460 0.513510 0.697030 -0.583096
O6    O     O_R   0.644540 0.486490 0.302970 -0.586110
O7    O     O_R   0.644600 0.486560 0.675070 -0.646221
O8    O     O_R   0.355400 0.513440 0.324930 -0.635214
Zn1   Zn    Zn3+2 0.306940 0.517990 0.514670 0.995871
Zn2   Zn    Zn3+2 0.693060 0.482010 0.485330 0.986181
S1    S     S_3+6 0.691470 0.806185 0.093342 0.053568
O9    O     O_2   0.569388 0.898574 0.179833 -0.279021
O10   O     O_2   0.838778 0.767418 0.165850 -0.287044
O11   O     O_3   0.764361 0.914541 0.966846 -0.481690
H7    H     H_    0.838171 0.845115 0.911728 0.346343
S2    S     S_3+6 0.309146 0.191551 0.907063 0.050217
O12   O     O_2   0.224038 0.107458 0.021422 -0.228726
O13   O     O_2   0.176133 0.228572 0.820336 -0.290380
O14   O     O_3   0.450074 0.074860 0.827956 -0.523867
H8    H     H_    0.530226 0.146563 0.776101 0.336801
C15   C     C_3   0.004621 0.307534 0.417296 -0.432927
H9    H     H_    0.906067 0.252407 0.357873 0.195816
H10   H     H_    0.123244 0.320042 0.353077 0.212672
H11   H     H_    0.015279 0.228780 0.497795 0.191376
C16   C     C_3   0.995325 0.692397 0.582866 -0.461542
H12   H     H_    0.093852 0.747447 0.642353 0.188160
H13   H     H_    0.984655 0.771281 0.502459 0.201359
H14   H     H_    0.876700 0.679807 0.647074 0.201641

loop_
_geom_bond_atom_site_label_1
_geom_bond_atom_site_label_2
_ccdc_geom_bond_type
S2    O13   D    
C15   H9    S    
O2    Zn2   S    
C1    O1    A    
N1    Zn2   S    
O7    Zn2   S    
C15   H10   S    
O14   H8    S    
C16   H12   S    
C7    C9    S    
C6    C9    S    
C3    O5    A    
S1    O9    D    
C5    C10   S    
C16   H13   S    
C3    C10   S    
N1    C15   S    
C13   C14   D    
C1    O3    A    
C7    S1    S    
S2    O12   D    
C8    S2    S    
O3    Zn2   S    
C8    C11   S    
C10   C12   S    
C6    C12   S    
C8    C10   S    
O11   H7    S    
S1    O10   D    
C5    C11   S    
C16   H14   S    
C5    C7    S    
C9    C11   S    
O5    Zn1   S    
C2    O2    A    
O8    Zn1   S    
C2    C14   S    
C15   H11   S    
N2    C16   S    
C7    C12   S    
C5    H1    S    
C1    C13   S    
N2    Zn1   S    
C13   H5    S    
C6    H2    S    
C14   H6    S    
O6    Zn2   S    
S1    O11   S    
S2    O14   S    
C2    O4    A    
C12   H4    S    
C3    O7    A    
C11   H3    S    
C6    C8    S    
C4    O6    A    
C4    C9    S    
N1    N2    D    
O4    Zn1   S    
C4    O8    A    
O1    Zn1   S    
