data_mof_unit_51544.cif
_audit_creation_date              2012-12-10T19:28:31-0500
_audit_creation_method            fapswitch 2.2
_symmetry_space_group_name_H-M    P1
_symmetry_Int_Tables_number       1
_space_group_crystal_system       triclinic
_cell_length_a                    27.710079
_cell_length_b                    10.437676
_cell_length_c                    9.831745
_cell_angle_alpha                 90.110229
_cell_angle_beta                  89.827795
_cell_angle_gamma                 89.440172
_cell_volume                      2843.47006312

loop_
_atom_site_label
_atom_site_type_symbol
_atom_type_description
_atom_site_fract_x
_atom_site_fract_y
_atom_site_fract_z
_atom_type_partial_charge
C1    C     C_R   0.500846 0.257921 0.499957 0.858530
C2    C     C_R   0.499494 0.742181 0.500028 0.872352
C3    C     C_R   0.100400 0.498683 0.468592 -0.101210
C4    C     C_R   0.897661 0.529356 0.444431 -0.102411
C5    C     C_R   0.123777 0.377677 0.473753 -0.069742
C6    C     C_R   0.873213 0.638486 0.495972 -0.065421
C7    C     C_R   0.095790 0.265347 0.463596 0.249551
C8    C     C_R   0.900037 0.747799 0.532649 0.253680
C9    C     C_R   0.127681 0.611611 0.475150 -0.011408
C10   C     C_R   0.871201 0.424531 0.395601 -0.009429
C11   C     C_R   0.352735 0.496316 0.501272 -0.169802
C12   C     C_R   0.645845 0.508225 0.498693 -0.154284
C13   C     C_R   0.972428 0.406672 0.411441 0.074522
C14   C     C_R   0.026228 0.628428 0.469252 0.075952
C15   C     C_R   0.975302 0.633665 0.477892 0.011078
C16   C     C_R   0.022636 0.395510 0.433796 0.011703
C17   C     C_R   0.948586 0.523635 0.443742 0.072599
C18   C     C_R   0.049655 0.507453 0.457019 0.072567
C19   C     C_R   0.945126 0.304642 0.358862 -0.225880
C20   C     C_R   0.054607 0.739787 0.472942 -0.225713
C21   C     C_R   0.895315 0.314742 0.348351 -0.150147
C22   C     C_R   0.104543 0.731244 0.473288 -0.149177
C23   C     C_R   0.406003 0.500548 0.500293 0.900403
C24   C     C_R   0.593500 0.500693 0.499809 0.925901
C25   C     C_R   0.046271 0.275552 0.439191 -0.292473
C26   C     C_R   0.950323 0.744405 0.522435 -0.291418
C27   C     C_3   0.511883 0.041023 0.625255 -0.150446
C28   C     C_3   0.488811 0.959355 0.374536 -0.156934
C29   C     C_3   0.544190 0.955147 0.534648 -0.166690
C30   C     C_3   0.456442 0.045161 0.465327 -0.170307
C31   C     C_3   0.499587 0.877411 0.499795 0.041804
C32   C     C_3   0.501071 0.122854 0.500117 0.045776
C33   C     C_3   0.467250 0.960601 0.590446 -0.195804
C34   C     C_3   0.533476 0.039832 0.409482 -0.199443
C35   C     C_3   0.482357 0.396144 0.046194 0.275208
C36   C     C_3   0.517697 0.603845 0.952967 0.268843
C37   C     C_3   0.525338 0.407100 0.952166 0.246548
C38   C     C_3   0.474720 0.593170 0.047697 0.237486
C39   C     C_3   0.456062 0.489372 0.950950 -0.228152
C40   C     C_3   0.544021 0.510964 0.048754 -0.232459
C41   C     C_R   0.174405 0.374203 0.488863 0.507306
C42   C     C_R   0.822866 0.631427 0.514332 0.504008
C43   C     C_R   0.177803 0.602681 0.482353 0.551612
C44   C     C_R   0.820935 0.431024 0.397317 0.555760
C45   C     C_R   0.275079 0.543016 0.610880 0.255540
C46   C     C_R   0.724948 0.413500 0.540317 0.265342
C47   C     C_R   0.325449 0.556541 0.606837 0.074310
C48   C     C_R   0.674402 0.402302 0.539184 0.060230
C49   C     C_R   0.328263 0.429499 0.397176 0.136710
C50   C     C_R   0.667583 0.622006 0.454551 0.149408
C51   C     C_R   0.278111 0.422826 0.399675 -0.225326
C52   C     C_R   0.717521 0.626643 0.441796 -0.220486
C53   C     C_R   0.251532 0.480316 0.503872 0.201979
C54   C     C_R   0.746410 0.523371 0.483199 0.189503
N1    N     N_R   0.199973 0.485614 0.493229 -0.334325
N2    N     N_R   0.797807 0.529205 0.464017 -0.335285
N3    N     N_3   0.499960 0.500030 0.863290 -0.144725
N4    N     N_3   0.500040 0.499970 0.136710 -0.148550
O1    O     O_R   0.500000 0.313960 0.616610 -0.619731
O2    O     O_R   0.500000 0.686040 0.383390 -0.624829
O3    O     O_R   0.500020 0.313950 0.383350 -0.633919
O4    O     O_R   0.499980 0.686050 0.616650 -0.626196
O5    O     O_R   0.428750 0.500030 0.616610 -0.629652
O6    O     O_R   0.571250 0.499970 0.383390 -0.613507
O7    O     O_R   0.428770 0.500020 0.383360 -0.594541
O8    O     O_R   0.571230 0.499980 0.616640 -0.631260
O9    O     O_2   0.198211 0.261267 0.498402 -0.536330
O10   O     O_2   0.799280 0.723207 0.585711 -0.541106
O11   O     O_2   0.795266 0.338799 0.334841 -0.575178
O12   O     O_2   0.204401 0.710356 0.477740 -0.567243
Zn1   Zn    Zn3+2 0.499990 0.500010 0.655740 0.942982
Zn2   Zn    Zn3+2 0.500010 0.499990 0.344260 0.946363
N5    N     N_2   0.353688 0.368856 0.288598 -0.266870
H1    H     H_    0.345663 0.272903 0.279716 0.227769
C55   C     C_3   0.348957 0.434947 0.159994 -0.724590
H2    H     H_    0.370517 0.384266 0.081573 0.241638
H3    H     H_    0.362178 0.534568 0.169156 0.251107
H4    H     H_    0.310750 0.436762 0.126022 0.214282
N6    N     N_2   0.639492 0.734350 0.430149 -0.307516
H5    H     H_    0.653461 0.814147 0.477316 0.227863
C56   C     C_3   0.629481 0.758862 0.288536 -0.782406
H6    H     H_    0.605042 0.843345 0.279979 0.239563
H7    H     H_    0.611447 0.675454 0.242046 0.267323
H8    H     H_    0.663433 0.778898 0.232351 0.234357
H9    H     H_    0.521604 0.078122 0.727350 0.160217
H10   H     H_    0.479343 0.922266 0.272204 0.161486
H11   H     H_    0.441080 0.925363 0.666628 0.136523
H12   H     H_    0.560019 0.076168 0.334550 0.134866
N7    N     N_2   0.553551 0.303925 0.892546 -0.293871
H13   H     H_    0.574386 0.335087 0.812849 0.250605
C57   C     C_3   0.580961 0.226420 0.987070 -0.858058
H14   H     H_    0.600438 0.149569 0.930399 0.246519
H15   H     H_    0.556818 0.180040 0.061746 0.246827
H16   H     H_    0.607842 0.285878 0.041300 0.249409
N8    N     N_2   0.447684 0.698931 0.106933 -0.298537
H17   H     H_    0.431585 0.676293 0.198108 0.261801
C58   C     C_3   0.415075 0.765242 0.016152 -0.870574
H18   H     H_    0.400765 0.852656 0.067277 0.248987
H19   H     H_    0.384313 0.702627 0.989769 0.245686
H20   H     H_    0.433881 0.794844 0.921918 0.248269
N9    N     N_2   0.462479 0.278558 0.099722 -0.278656
H21   H     H_    0.485497 0.231307 0.164516 0.252734
C59   C     C_3   0.442836 0.192438 0.999022 -0.825093
H22   H     H_    0.424864 0.111462 0.051104 0.239663
H23   H     H_    0.472085 0.153239 0.933182 0.257277
H24   H     H_    0.415677 0.242252 0.934839 0.243928
N10   N     N_2   0.536363 0.720874 0.894917 -0.267884
H25   H     H_    0.510590 0.773969 0.844632 0.245806
C60   C     C_3   0.565021 0.798016 0.985247 -0.820930
H26   H     H_    0.575027 0.888511 0.933509 0.239756
H27   H     H_    0.598800 0.745904 0.011193 0.251488
H28   H     H_    0.544314 0.821945 0.079071 0.252752
H29   H     H_    0.419798 0.478413 0.905876 0.134738
H30   H     H_    0.580633 0.517505 0.093205 0.149743
H31   H     H_    0.259424 0.375089 0.317566 0.175054
H32   H     H_    0.733972 0.711868 0.400314 0.180908
N11   N     N_2   0.116661 0.141080 0.478983 -0.249627
H33   H     H_    0.102869 0.073842 0.412958 0.209340
C61   C     C_3   0.116886 0.095734 0.617988 -0.691937
H34   H     H_    0.079368 0.078734 0.653500 0.203486
H35   H     H_    0.134332 0.166536 0.686109 0.256692
H36   H     H_    0.137644 0.004485 0.624008 0.243939
N12   N     N_2   0.877049 0.863205 0.577136 -0.250947
H37   H     H_    0.896003 0.911677 0.650968 0.216496
C62   C     C_3   0.862118 0.946941 0.467598 -0.700205
H38   H     H_    0.894174 0.981875 0.410961 0.205263
H39   H     H_    0.842187 0.030790 0.510132 0.246725
H40   H     H_    0.837814 0.895863 0.396503 0.251366
N13   N     N_2   0.652998 0.283456 0.575112 -0.314867
H41   H     H_    0.621382 0.291211 0.629579 0.229376
C63   C     C_3   0.648877 0.194917 0.462503 -0.807905
H42   H     H_    0.623015 0.233134 0.386141 0.236873
H43   H     H_    0.635720 0.101477 0.500421 0.237173
H44   H     H_    0.684513 0.178675 0.412987 0.267101
N14   N     N_2   0.346996 0.638903 0.704204 -0.317974
H45   H     H_    0.373548 0.599243 0.763665 0.250989
C64   C     C_3   0.357100 0.766202 0.655022 -0.782034
H46   H     H_    0.386507 0.762679 0.578085 0.227474
H47   H     H_    0.368146 0.827602 0.741455 0.233278
H48   H     H_    0.324256 0.809618 0.608807 0.267192
N15   N     N_2   0.754486 0.315061 0.598259 -0.281711
H49   H     H_    0.740274 0.224250 0.596334 0.263920
C65   C     C_3   0.774550 0.346768 0.729581 -0.766776
H50   H     H_    0.798843 0.267946 0.763533 0.243509
H51   H     H_    0.745145 0.359454 0.805708 0.245802
H52   H     H_    0.796009 0.435865 0.723696 0.253745
N16   N     N_2   0.247410 0.595688 0.720460 -0.276714
H53   H     H_    0.261003 0.677867 0.763479 0.264704
C66   C     C_3   0.232866 0.502817 0.821130 -0.797298
H54   H     H_    0.209505 0.550240 0.898555 0.245445
H55   H     H_    0.265140 0.461719 0.872594 0.234533
H56   H     H_    0.211985 0.424592 0.773086 0.257950
H57   H     H_    0.875647 0.233928 0.308116 0.182776
H58   H     H_    0.124959 0.819125 0.474630 0.185825
H59   H     H_    0.961684 0.217181 0.321812 0.140342
H60   H     H_    0.039105 0.835024 0.470864 0.137048
H61   H     H_    0.026374 0.187225 0.433795 0.139233
H62   H     H_    0.969188 0.828905 0.555286 0.139578
H63   H     H_    0.579558 0.913819 0.564831 0.143789
H64   H     H_    0.420853 0.086887 0.437042 0.138461

loop_
_geom_bond_atom_site_label_1
_geom_bond_atom_site_label_2
_ccdc_geom_bond_type
C65   H52   S    
N9    H21   S    
C27   C29   S    
C19   H59   S    
N5    H1    S    
C14   C18   A    
C53   N1    S    
C11   C47   A    
N16   H53   S    
C12   C48   A    
C63   H44   S    
C50   N6    S    
C58   H20   S    
C56   H6    S    
C66   H54   S    
N12   H37   S    
C29   H63   S    
C63   H43   S    
C27   C33   S    
C30   H64   S    
C64   H47   S    
C35   N4    S    
C11   C49   A    
N16   C66   S    
C37   C40   S    
N11   C61   S    
C38   C39   S    
C2    O2    A    
C9    C22   A    
N12   C62   S    
O2    Zn2   S    
C65   H50   S    
C39   N3    S    
C16   C25   A    
C8    C26   A    
C3    C18   A    
C65   H51   S    
C11   C23   S    
C27   H9    S    
C7    N11   S    
C41   N1    A    
C60   H27   S    
C42   N2    A    
C38   N4    S    
C40   H30   S    
N8    H17   S    
C49   C51   A    
C38   N8    S    
C62   H40   S    
C50   C52   A    
N10   H25   S    
C31   C33   S    
N7    C57   S    
C24   O8    A    
C47   N14   S    
C23   O5    A    
C28   C34   S    
C24   O6    A    
N14   C64   S    
C36   N10   S    
C42   O10   S    
N5    C55   S    
C58   H19   S    
C52   C54   A    
C58   H18   S    
C46   N15   S    
C46   C48   A    
C45   C47   A    
C10   C21   A    
C64   H48   S    
C54   N2    S    
C9    C43   A    
C40   N4    S    
C13   C19   A    
C10   C44   A    
C14   C20   A    
N14   H45   S    
C41   O9    S    
C36   N3    S    
C60   H28   S    
C57   H14   S    
N6    C56   S    
C15   C26   A    
C6    C8    A    
C39   H29   S    
C29   C34   S    
C1    C32   S    
C51   H31   S    
C2    C31   S    
C51   C53   A    
N15   C65   S    
C32   C34   S    
C35   C39   S    
C55   H2    S    
C3    C9    A    
C57   H15   S    
C44   N2    A    
O8    Zn1   S    
C36   C40   S    
C46   C54   A    
C44   O11   S    
C59   H23   S    
C16   C18   A    
C34   H12   S    
N3    Zn1   S    
C55   H3    S    
C61   H35   S    
C4    C17   A    
O3    Zn2   S    
C4    C6    A    
C1    O1    A    
C20   C22   A    
C43   O12   S    
C25   H61   S    
C62   H38   S    
C49   N5    S    
C48   N13   S    
C66   H56   S    
C28   H10   S    
C4    C10   A    
C63   H42   S    
C3    C5    A    
C56   H8    S    
C35   C37   S    
C5    C7    A    
N13   H41   S    
C22   H58   S    
C61   H36   S    
C43   N1    A    
C52   H32   S    
C15   C17   A    
C5    C41   A    
C20   H60   S    
C30   C33   S    
C19   C21   A    
C27   C32   S    
C45   N16   S    
C28   C31   S    
O5    Zn1   S    
C35   N9    S    
C1    O3    A    
C56   H7    S    
C12   C50   A    
C61   H34   S    
N8    C58   S    
C8    N12   S    
C13   C17   A    
O7    Zn2   S    
C64   H46   S    
C12   C24   S    
C7    C25   A    
C37   N7    S    
C23   O7    A    
C66   H55   S    
C33   H11   S    
C28   C30   S    
C29   C31   S    
N15   H49   S    
C57   H16   S    
C30   C32   S    
N4    Zn2   S    
N10   C60   S    
C36   C38   S    
O4    Zn1   S    
C26   H62   S    
C59   H24   S    
O6    Zn2   S    
C55   H4    S    
C45   C53   A    
N6    H5    S    
N9    C59   S    
C6    C42   A    
C13   C16   A    
C60   H26   S    
C59   H22   S    
C62   H39   S    
C21   H57   S    
C14   C15   A    
N7    H13   S    
N11   H33   S    
C37   N3    S    
C2    O4    A    
O1    Zn1   S    
N13   C63   S    
