data_mof_unit_50603.cif
_audit_creation_date              2012-12-11T15:59:44-0500
_audit_creation_method            fapswitch 2.2
_symmetry_space_group_name_H-M    P1
_symmetry_Int_Tables_number       1
_space_group_crystal_system       triclinic
_cell_length_a                    10.669504
_cell_length_b                    10.765918
_cell_length_c                    17.025593
_cell_angle_alpha                 99.10408
_cell_angle_beta                  99.409522
_cell_angle_gamma                 61.417709
_cell_volume                      1686.99376263

loop_
_atom_site_label
_atom_site_type_symbol
_atom_type_description
_atom_site_fract_x
_atom_site_fract_y
_atom_site_fract_z
_atom_type_partial_charge
C1    C     C_R   0.356798 0.768745 0.396931 0.574754
C2    C     C_R   0.821651 0.350424 0.323564 0.013846
C3    C     C_R   0.357709 0.800467 0.151969 -0.045183
C4    C     C_R   0.369736 0.346940 0.357605 0.579435
C5    C     C_R   0.458034 0.823892 0.208380 0.007005
C6    C     C_R   0.438686 0.845696 0.290390 0.035164
C7    C     C_R   0.274341 0.743260 0.256605 -0.128262
C8    C     C_R   0.279130 0.741892 0.175579 -0.010562
C9    C     C_R   0.579587 0.821013 0.184978 -0.097665
C10   C     C_R   0.676767 0.844253 0.242107 -0.141888
C11   C     C_R   0.643299 0.893224 0.320217 -0.137702
C12   C     C_R   0.834490 0.214715 0.194289 0.049555
C13   C     C_R   0.518973 0.903087 0.343676 0.025271
C14   C     C_R   0.346397 0.801790 0.314938 0.007387
C15   C     C_R   0.341345 0.342425 0.826241 -0.054038
C16   C     C_R   0.775128 0.378741 0.402992 0.541134
C17   C     C_R   0.456114 0.237522 0.784078 -0.015093
C18   C     C_R   0.428302 0.213227 0.701893 0.018620
C19   C     C_R   0.230050 0.451770 0.702376 -0.131870
C20   C     C_R   0.231203 0.456897 0.785321 -0.014617
C21   C     C_R   0.590371 0.145611 0.821856 -0.105228
C22   C     C_R   0.681277 0.018486 0.780886 -0.154261
C23   C     C_R   0.855640 0.219044 0.278567 -0.012967
C24   C     C_R   0.635440 0.979452 0.703829 -0.061964
C25   C     C_R   0.505455 0.074007 0.664887 0.302991
C26   C     C_R   0.329498 0.330279 0.659886 -0.043112
C27   C     C_1   0.816681 0.342395 0.709131 -0.027647
C28   C     C_R   0.380888 0.714684 0.631700 0.542175
C29   C     C_1   0.843663 0.314323 0.777000 -0.026658
C30   C     C_1   0.358310 0.764501 0.713941 -0.043469
C31   C     C_1   0.326094 0.811720 0.780884 -0.033565
C32   C     C_R   0.888638 0.309581 0.086114 0.561810
C33   C     C_R   0.319231 0.298838 0.120005 0.573600
C34   C     C_R   0.790258 0.469834 0.285392 -0.142379
C35   C     C_R   0.299477 0.882329 0.081796 0.523446
C36   C     C_R   0.885599 0.297620 0.859304 0.543627
C37   C     C_R   0.311178 0.296600 0.895245 0.525903
C38   C     C_R   0.281108 0.881049 0.857798 0.542639
C39   C     C_R   0.367529 0.347125 0.584349 0.572215
C40   C     C_R   0.772828 0.381014 0.629792 0.539149
C41   C     C_1   0.343137 0.336568 0.274188 -0.018421
C42   C     C_1   0.332164 0.325712 0.203299 0.007027
C43   C     C_R   0.820526 0.332070 0.158429 0.015237
C44   C     C_2   0.465893 0.992507 0.417580 0.291685
C45   C     C_R   0.790868 0.460195 0.204356 -0.165053
C46   C     C_2   0.124291 0.585261 0.828781 0.260295
C47   C     C_3   0.312149 0.050669 0.596321 -0.040922
C48   C     C_3   0.749234 0.985941 0.035183 -0.086332
C49   C     C_2   0.205850 0.675412 0.115895 0.221804
C50   C     C_R   0.832532 0.092558 0.149384 0.322163
C51   C     C_R   0.893695 0.966200 0.187728 -0.105000
C52   C     C_R   0.933725 0.966571 0.269686 -0.162454
C53   C     C_R   0.910125 0.092738 0.315445 -0.096917
Cr1   Cr    Cr6+3 0.608100 0.610860 0.522250 1.037175
Cr2   Cr    Cr6+3 0.288890 0.599990 0.488420 1.013152
Cr3   Cr    Cr6+3 0.603040 0.289190 0.489390 1.011899
Cr4   Cr    Cr6+3 0.053960 0.052250 0.967380 1.048489
Cr5   Cr    Cr6+3 0.059890 0.373160 0.992710 1.052896
Cr6   Cr    Cr6+3 0.373370 0.061690 0.991710 1.005249
H1    H     H_    0.762713 0.573035 0.317862 0.158687
H2    H     H_    0.977216 0.869553 0.298474 0.133369
H3    H     H_    0.939029 0.090011 0.379365 0.141647
H4    H     H_    0.217459 0.692955 0.273980 0.177656
H5    H     H_    0.605829 0.789229 0.123754 0.117073
H6    H     H_    0.540578 0.009635 0.463645 0.158102
H7    H     H_    0.139623 0.602453 0.893401 0.109179
H8    H     H_    0.294322 0.033371 0.655516 0.099490
H9    H     H_    0.289944 0.975814 0.551011 0.200753
H10   H     H_    0.233318 0.158986 0.580221 0.128367
H11   H     H_    0.682611 0.011813 0.977301 0.140866
H12   H     H_    0.776761 0.825916 0.225263 0.121506
H13   H     H_    0.692473 0.956078 0.072005 0.117399
H14   H     H_    0.855461 0.895974 0.022091 0.112665
H15   H     H_    0.226163 0.655580 0.053561 0.105835
H16   H     H_    0.712186 0.927041 0.361579 0.103210
H17   H     H_    0.155158 0.544306 0.671484 0.185158
H18   H     H_    0.622380 0.170963 0.883397 0.147259
H19   H     H_    0.782726 0.946627 0.810674 0.171311
H20   H     H_    0.699510 0.875123 0.674860 0.155038
H21   H     H_    0.778383 0.551007 0.178222 0.148695
H22   H     H_    0.907631 0.867085 0.155260 0.144978
O1    O     O_R   0.749810 0.499790 0.438040 -0.524354
O2    O     O_R   0.411730 0.181020 0.091530 -0.513499
O3    O     O_R   0.365010 0.944360 0.063320 -0.506618
O4    O     O_R   0.477660 0.726260 0.439290 -0.489564
O5    O     O_R   0.159380 0.906670 0.876210 -0.496704
O6    O     O_R   0.930820 0.177420 0.886730 -0.496982
O7    O     O_R   0.910360 0.395420 0.895720 -0.505809
O8    O     O_R   0.186010 0.361730 0.919870 -0.507140
O9    O     O_R   0.400000 0.173010 0.914630 -0.515835
O10   O     O_R   0.354140 0.936940 0.899340 -0.503242
O11   O     O_3   0.162410 0.162370 0.983930 -0.258078
O12   O     O_R   0.298970 0.468800 0.557390 -0.520670
O13   O     O_R   0.260150 0.743000 0.412270 -0.537726
O14   O     O_R   0.297740 0.466550 0.394720 -0.501291
O15   O     O_R   0.488080 0.253500 0.386430 -0.516034
O16   O     O_R   0.722670 0.303800 0.421940 -0.507891
O17   O     O_R   0.751130 0.502220 0.613520 -0.501746
O18   O     O_R   0.478890 0.728510 0.601960 -0.477151
O19   O     O_R   0.261470 0.745430 0.587750 -0.520378
O20   O     O_2   0.337525 0.056787 0.424676 -0.524780
O21   O     O_2   0.018708 0.674461 0.792835 -0.531778
O22   O     O_3   0.454300 0.025688 0.593033 -0.565470
O23   O     O_R   0.489400 0.255930 0.561910 -0.485217
O24   O     O_3   0.763615 0.106467 0.071359 -0.561717
O25   O     O_2   0.122880 0.640944 0.135745 -0.547145
O26   O     O_R   0.723890 0.306050 0.584610 -0.506831
O27   O     O_3   0.500010 0.500010 0.500020 -0.276438
O28   O     O_R   0.171100 0.914680 0.053100 -0.518958
O29   O     O_R   0.941680 0.184840 0.050710 -0.449546
O30   O     O_R   0.922080 0.403420 0.072610 -0.521392
O31   O     O_R   0.196880 0.369150 0.083850 -0.451830

loop_
_geom_bond_atom_site_label_1
_geom_bond_atom_site_label_2
_ccdc_geom_bond_type
C32   O30   A    
C27   C29   T    
C9    H5    S    
C41   C42   T    
C19   C20   A    
C18   C26   A    
Cr2   O12   S    
C39   O23   A    
C36   O7    A    
C46   O21   D    
C29   C36   S    
C32   O29   A    
C37   O9    A    
C38   O5    A    
Cr5   O31   S    
C33   C42   S    
C19   H17   S    
Cr4   O11   S    
Cr6   O2    S    
C46   H7    S    
C12   C43   A    
C52   H2    S    
C40   O17   A    
C30   C31   T    
C26   C39   S    
C4    C41   S    
Cr4   O5    S    
Cr3   O15   S    
C19   C26   A    
C47   H10   S    
C39   O12   A    
C4    O15   A    
C7    C14   A    
Cr4   O28   S    
Cr4   O29   S    
C1    O13   A    
Cr2   O19   S    
C50   O24   S    
C2    C16   S    
C9    C10   A    
C51   H22   S    
C35   O28   A    
C10   H12   S    
C2    C34   A    
C21   C22   A    
C34   H1    S    
C44   H6    S    
C18   C25   A    
Cr3   O16   S    
C48   H13   S    
Cr2   O13   S    
C47   H8    S    
C23   C53   A    
C36   O6    A    
C1    O4    A    
C15   C20   A    
C47   O22   S    
Cr5   O30   S    
C7    C8    A    
C24   C25   A    
Cr3   O23   S    
Cr2   O14   S    
C3    C8    A    
C33   O31   A    
C25   O22   S    
C50   C51   A    
C38   O10   A    
C17   C21   A    
C51   C52   A    
Cr6   O9    S    
Cr3   O26   S    
C5    C9    A    
C6    C14   A    
C4    O14   A    
C33   O2    A    
C53   H3    S    
C24   H20   S    
C48   O24   S    
C12   C23   A    
C3    C35   S    
C27   C40   S    
C44   O20   D    
C16   O1    A    
C17   C18   A    
C34   C45   A    
Cr6   O10   S    
Cr6   O3    S    
C43   C45   A    
C7    H4    S    
C40   O26   A    
C28   O18   A    
C22   C24   A    
Cr1   O18   S    
C47   H9    S    
Cr1   O1    S    
C52   C53   A    
C15   C17   A    
C48   H14   S    
C48   H11   S    
C3    C5    A    
Cr5   O7    S    
Cr1   O4    S    
C12   C50   A    
C35   O3    A    
C49   O25   D    
Cr1   O27   S    
C31   C38   S    
C37   O8    A    
Cr2   O27   S    
C28   C30   S    
C15   C37   S    
C6    C13   A    
C11   C13   A    
C28   O19   A    
C5    C6    A    
C22   H19   S    
C32   C43   S    
C45   H21   S    
Cr6   O11   S    
C16   O16   A    
Cr5   O8    S    
C10   C11   A    
Cr4   O6    S    
C21   H18   S    
C2    C23   A    
Cr3   O27   S    
C49   H15   S    
Cr1   O17   S    
C11   H16   S    
C1    C14   S    
Cr5   O11   S    
C8    C49   S    
C13   C44   S    
C20   C46   S    
