data_mof_unit_7276.cif
_audit_creation_date              2012-10-26T18:59:40-0400
_audit_creation_method            fapswitch 2.2
_symmetry_space_group_name_H-M    P1
_symmetry_Int_Tables_number       1
_space_group_crystal_system       triclinic
_cell_length_a                    23.503196
_cell_length_b                    10.827812
_cell_length_c                    9.554089
_cell_angle_alpha                 90.092868
_cell_angle_beta                  89.450829
_cell_angle_gamma                 89.980421
_cell_volume                      2431.28776109

loop_
_atom_site_label
_atom_site_type_symbol
_atom_type_description
_atom_site_fract_x
_atom_site_fract_y
_atom_site_fract_z
_atom_type_partial_charge
C1    C     C_R   0.499115 0.262451 0.499626 0.551863
C2    C     C_R   0.118959 0.595993 0.459624 0.396244
C3    C     C_R   0.238711 0.499387 0.631456 -0.056563
C4    C     C_R   0.390908 0.499831 0.500653 0.553192
C5    C     C_R   0.298033 0.500691 0.630024 -0.144158
C6    C     C_R   0.328224 0.499043 0.502251 0.005800
C7    C     C_R   0.297934 0.496152 0.376097 -0.143094
C8    C     C_R   0.238609 0.494735 0.377849 -0.057980
C9    C     C_R   0.208792 0.496278 0.505455 0.238575
C10   C     C_R   0.761119 0.410791 0.433836 -0.103582
C11   C     C_R   0.701943 0.411180 0.428749 -0.162990
C12   C     C_R   0.968925 0.287966 0.611103 -0.120133
C13   C     C_R   0.670884 0.500150 0.502897 -0.016740
C14   C     C_R   0.699164 0.584524 0.589065 -0.148423
C15   C     C_R   0.758615 0.582846 0.598141 0.189767
C16   C     C_R   0.499684 0.737507 0.499909 0.549886
C17   C     C_R   0.789914 0.496730 0.517266 0.261170
C18   C     C_R   0.471262 0.063554 0.607756 0.003292
C19   C     C_R   0.494736 0.129421 0.496087 0.006876
C20   C     C_R   0.510895 0.064123 0.374576 -0.157959
C21   C     C_R   0.511219 0.935289 0.374915 -0.163510
C22   C     C_R   0.496009 0.870475 0.497230 0.003002
C23   C     C_R   0.028499 0.283839 0.606200 0.125123
C24   C     C_R   0.473242 0.936972 0.609734 0.015867
C25   C     C_3   0.479057 0.932878 0.766042 -0.125806
C26   C     C_3   0.476600 0.073981 0.762761 -0.260281
C27   C     C_R   0.549243 0.480799 0.072032 0.187303
C28   C     C_R   0.608792 0.499740 0.499994 0.550813
C29   C     C_R   0.453115 0.536448 0.075389 -0.028947
C30   C     C_R   0.453171 0.536722 0.926817 -0.021587
C31   C     C_R   0.548769 0.479060 0.924604 0.147428
C32   C     C_3   0.584252 0.365919 0.913951 -0.243822
C33   C     C_3   0.586071 0.367183 0.073013 -0.002783
C34   C     C_R   0.059637 0.388168 0.557933 0.047556
C35   C     C_R   0.879909 0.596778 0.465175 0.426188
C36   C     C_R   0.879451 0.395512 0.566992 0.380612
C37   C     C_R   0.939157 0.391935 0.564443 0.000997
C38   C     C_R   0.969435 0.494425 0.512973 -0.039744
C39   C     C_R   0.939597 0.598402 0.463724 0.031832
C40   C     C_3   0.805524 0.616458 0.818272 -0.290531
C41   C     C_R   0.535031 0.884844 0.822113 0.062960
C42   C     C_R   0.587452 0.908716 0.754426 -0.080631
C43   C     C_R   0.638369 0.868391 0.813382 -0.120119
C44   C     C_R   0.637697 0.805787 0.941045 -0.115944
C45   C     C_R   0.029563 0.493142 0.510495 -0.058580
C46   C     C_R   0.586055 0.783504 0.009990 -0.117624
C47   C     C_R   0.534976 0.821878 0.950500 -0.080311
C48   C     C_3   0.064795 0.084888 0.537433 -0.252217
C49   C     C_3   0.671675 0.504043 0.102998 -0.289687
C50   C     C_R   0.059406 0.597367 0.460365 0.030861
C51   C     C_R   0.029193 0.700742 0.412454 -0.129419
C52   C     C_R   0.969942 0.701050 0.413585 -0.130150
C53   C     C_R   0.119770 0.392494 0.556184 0.407631
Cu1   Cu    Cu3+1 0.500000 0.499980 0.640670 0.942638
Cu2   Cu    Cu3+1 0.500000 0.500020 0.359330 0.940089
H1    H     H_    0.946019 0.207753 0.649243 0.162239
H2    H     H_    0.414979 0.563762 0.872814 0.116053
H3    H     H_    0.560265 0.286666 0.871723 0.114025
H4    H     H_    0.625626 0.382865 0.860199 0.146205
H5    H     H_    0.564870 0.286160 0.122277 0.134067
H6    H     H_    0.051221 0.781808 0.373668 0.156557
H7    H     H_    0.948042 0.782181 0.375515 0.160757
H8    H     H_    0.215908 0.501024 0.730470 0.131224
H9    H     H_    0.320161 0.503000 0.728883 0.119674
H10   H     H_    0.319988 0.494668 0.276076 0.120697
H11   H     H_    0.215724 0.492049 0.280056 0.129828
H12   H     H_    0.680382 0.340468 0.369555 0.150565
H13   H     H_    0.784754 0.343195 0.373155 0.138850
H14   H     H_    0.764860 0.750045 0.701642 0.245335
H15   H     H_    0.828765 0.687907 0.878486 0.151462
H16   H     H_    0.834781 0.537540 0.799660 0.184538
H17   H     H_    0.768349 0.584991 0.881437 0.122715
H18   H     H_    0.589132 0.959686 0.657150 0.111211
H19   H     H_    0.678422 0.886960 0.760756 0.105970
H20   H     H_    0.677230 0.775745 0.987155 0.106450
H21   H     H_    0.585450 0.737447 0.110296 0.112107
H22   H     H_    0.495432 0.804574 0.006176 0.097123
H23   H     H_    0.674920 0.650894 0.650154 0.117133
H24   H     H_    0.037796 0.133513 0.736410 0.246900
H25   H     H_    0.023156 0.050582 0.499148 0.118393
H26   H     H_    0.089683 0.005247 0.576916 0.169716
H27   H     H_    0.088842 0.127383 0.449143 0.184618
H28   H     H_    0.669677 0.311337 0.107720 0.246344
H29   H     H_    0.716246 0.498507 0.139944 0.143209
H30   H     H_    0.649932 0.577395 0.164259 0.171482
H31   H     H_    0.672580 0.528912 0.990443 0.128636
H32   H     H_    0.526096 0.111922 0.282028 0.128533
H33   H     H_    0.526299 0.887173 0.282279 0.133581
H34   H     H_    0.440740 0.891835 0.817099 0.118536
H35   H     H_    0.437442 0.112196 0.812563 0.135385
H36   H     H_    0.516630 0.119949 0.793721 0.135251
H37   H     H_    0.414830 0.563233 0.130993 0.121860
N1    N     N_R   0.851090 0.496793 0.517545 -0.384958
N2    N     N_R   0.147730 0.494840 0.507040 -0.407018
N3    N     N_R   0.500360 0.500930 0.147930 -0.249805
N4    N     N_R   0.500360 0.500890 0.852020 -0.234156
N5    N     N_2   0.786720 0.668312 0.687196 -0.478849
N6    N     N_2   0.056223 0.173559 0.649165 -0.456316
N7    N     N_2   0.643474 0.386302 0.125395 -0.519825
O1    O     O_R   0.500000 0.319640 0.618810 -0.502672
O2    O     O_R   0.582120 0.500020 0.618760 -0.503244
O3    O     O_R   0.582120 0.500060 0.381180 -0.479158
O4    O     O_2   0.850874 0.693774 0.413356 -0.492593
O5    O     O_2   0.849914 0.298902 0.619313 -0.513819
O6    O     O_2   0.150362 0.295936 0.603166 -0.461004
O7    O     O_2   0.148041 0.695539 0.413177 -0.503506
O8    O     O_R   0.500010 0.319680 0.381230 -0.504030
O9    O     O_R   0.417880 0.499940 0.618820 -0.511378
O10   O     O_R   0.417880 0.499980 0.381240 -0.509408
O11   O     O_R   0.499990 0.680320 0.618770 -0.487209
O12   O     O_R   0.500000 0.680360 0.381190 -0.512534

loop_
_geom_bond_atom_site_label_1
_geom_bond_atom_site_label_2
_ccdc_geom_bond_type
C4    O10   A    
C20   H32   S    
C8    H11   S    
C40   H16   S    
C41   C42   A    
Cu1   O2    S    
C27   N3    A    
C19   C20   A    
C18   C26   S    
C32   H3    S    
C46   H21   S    
C16   O11   A    
C7    C8    A    
C27   C33   S    
C4    O9    A    
C12   C23   A    
C37   C38   A    
C40   H15   S    
C18   C24   A    
C49   H29   S    
C36   C37   A    
C35   O4    S    
C38   C39   A    
C7    H10   S    
C10   C17   A    
C31   N4    A    
C30   H2    S    
C48   H26   S    
Cu1   O11   S    
C18   C19   A    
C12   C37   A    
C38   C45   A    
C30   N4    A    
C2    C50   A    
C46   C47   A    
C28   O2    A    
C11   H12   S    
C8    C9    A    
C51   H6    S    
C13   C28   S    
Cu1   N4    S    
C43   H19   S    
C39   C52   A    
C21   H33   S    
H28   N7    S    
C13   C14   A    
Cu2   O10   S    
Cu1   O1    S    
C15   N5    S    
C36   N1    A    
C1    O1    A    
C44   C46   A    
C35   N1    A    
C1    C19   S    
C27   C31   A    
C51   C52   A    
C49   H30   S    
C2    N2    A    
C24   C25   S    
Cu2   N3    S    
C25   C41   S    
C40   N5    S    
C29   N3    A    
C26   H36   S    
C2    O7    S    
C5    H9    S    
Cu2   O8    S    
C33   N7    S    
C44   H20   S    
C35   C39   A    
C43   C44   A    
C29   C30   A    
C3    C9    A    
C28   O3    A    
C49   N7    S    
C31   C32   S    
Cu2   O3    S    
C23   C34   A    
C50   C51   A    
C41   C47   A    
C34   C45   A    
C12   H1    S    
C1    O8    A    
C4    C6    S    
C33   H5    S    
C3    H8    S    
C22   C24   A    
C17   N1    S    
C42   C43   A    
C47   H22   S    
C15   C17   A    
Cu1   Cu2   S    
C42   H18   S    
C16   C22   S    
C40   H17   S    
Cu2   O12   S    
C53   N2    A    
C49   H31   S    
C3    C5    A    
C6    C7    A    
C10   H13   S    
C26   H35   S    
C48   N6    S    
C25   H34   S    
Cu1   O9    S    
C36   O5    S    
C32   C33   S    
C48   H25   S    
C25   C26   S    
C52   H7    S    
C11   C13   A    
C5    C6    A    
C45   C50   A    
C48   H27   S    
C14   H23   S    
C10   C11   A    
C53   O6    S    
C23   N6    S    
C20   C21   A    
C34   C53   A    
C14   C15   A    
H24   N6    S    
C32   H4    S    
C21   C22   A    
C9    N2    S    
C29   H37   S    
C16   O12   A    
H14   N5    S    
