data_mof_unit_41843.cif
_audit_creation_date              2012-12-11T17:47:22-0500
_audit_creation_method            fapswitch 2.2
_symmetry_space_group_name_H-M    P1
_symmetry_Int_Tables_number       1
_space_group_crystal_system       triclinic
_cell_length_a                    15.037649
_cell_length_b                    15.067787
_cell_length_c                    15.027486
_cell_angle_alpha                 110.576503
_cell_angle_beta                  109.377766
_cell_angle_gamma                 108.743477
_cell_volume                      2611.41416804

loop_
_atom_site_label
_atom_site_type_symbol
_atom_type_description
_atom_site_fract_x
_atom_site_fract_y
_atom_site_fract_z
_atom_type_partial_charge
C1    C     C_R   0.898374 0.194458 0.986060 0.288542
C2    C     C_R   0.029304 0.756502 0.941983 0.338099
C3    C     C_R   0.290744 0.870480 0.302243 0.062178
C4    C     C_R   0.673107 0.210934 0.670611 0.053580
C5    C     C_R   0.326064 0.501414 0.046810 0.064668
C6    C     C_R   0.690371 0.500210 0.048682 0.076392
C7    C     C_R   0.048006 0.500169 0.325980 0.047046
C8    C     C_R   0.080517 0.499883 0.706093 0.043772
C9    C     C_R   0.904256 0.852719 0.835189 -0.251813
C10   C     C_R   0.912879 0.015743 0.004966 -0.246882
C11   C     C_R   0.843861 0.006989 0.602693 -0.184444
C12   C     C_R   0.991027 0.006446 0.304850 -0.174598
C13   C     C_R   0.823457 0.962080 0.665860 0.257075
C14   C     C_R   0.000778 0.995411 0.212547 0.247050
C15   C     C_R   0.729010 0.239295 0.228404 0.318183
C16   C     C_R   0.423679 0.815710 0.907123 0.290691
C17   C     C_R   0.833645 0.326115 0.310602 -0.222227
C18   C     C_R   0.351179 0.715399 0.807988 -0.244519
C19   C     C_R   0.923111 0.308443 0.335427 0.079093
C20   C     C_R   0.256268 0.701037 0.730435 0.090569
C21   C     C_R   0.908032 0.205037 0.273750 -0.208677
C22   C     C_R   0.232961 0.786710 0.753083 -0.192882
C23   C     C_R   0.295161 0.807037 0.211278 -0.137584
C24   C     C_R   0.685925 0.243498 0.775653 -0.128914
C25   C     C_R   0.804667 0.120278 0.188396 -0.124916
C26   C     C_R   0.306286 0.887580 0.849558 -0.141936
C27   C     C_R   0.715936 0.137198 0.165906 -0.143899
C28   C     C_R   0.401304 0.902298 0.926260 -0.148568
C29   C     C_R   0.063944 0.400378 0.526485 -0.254021
C30   C     C_R   0.166518 0.590167 0.528823 -0.251806
C31   C     C_R   0.117006 0.499307 0.624601 0.059376
C32   C     C_R   0.084481 0.495645 0.427961 0.068425
C33   C     C_R   0.179079 0.595170 0.627684 0.053895
C34   C     C_R   0.031246 0.399186 0.427701 0.043533
C35   C     C_R   0.907485 0.955482 0.736974 0.086270
C36   C     C_R   0.906279 0.925172 0.107480 0.048954
C37   C     C_R   0.026185 0.035077 0.677521 -0.149693
C38   C     C_R   0.801340 0.869241 0.189637 -0.109277
C39   C     C_R   0.125641 0.975503 0.514089 -0.121518
C40   C     C_R   0.737879 0.043756 0.381813 -0.122786
C41   C     C_R   0.212992 0.026202 0.502265 -0.176965
C42   C     C_R   0.647050 0.033426 0.391185 -0.202610
C43   C     C_R   0.291810 0.994617 0.515793 0.115055
C44   C     C_R   0.636980 0.126163 0.435421 0.131706
C45   C     C_R   0.225101 0.408987 0.972801 -0.120887
C46   C     C_R   0.785711 0.591151 0.088751 -0.160534
C47   C     C_R   0.288713 0.919429 0.550621 -0.156077
C48   C     C_R   0.711502 0.226629 0.459790 -0.193482
C49   C     C_R   0.201412 0.869654 0.562592 -0.147789
C50   C     C_R   0.805648 0.237679 0.457652 -0.131673
C51   C     C_R   0.118945 0.896065 0.542891 -0.097319
C52   C     C_R   0.820184 0.146728 0.420541 -0.062371
C53   C     C_R   0.473577 0.127069 0.578034 -0.232779
C54   C     C_R   0.447100 0.042683 0.370033 -0.242326
C55   C     C_R   0.566618 0.154663 0.568238 0.059660
C56   C     C_R   0.365663 0.987339 0.385463 0.051411
C57   C     C_R   0.550570 0.116296 0.460247 0.031882
C58   C     C_R   0.375444 0.037763 0.490081 0.025737
C59   C     C_R   0.945220 0.045329 0.610063 -0.145908
C60   C     C_R   0.893420 0.940747 0.293337 -0.148705
C61   C     C_R   0.906435 0.924999 0.009261 0.029771
C62   C     C_R   0.904979 0.943242 0.829132 0.038978
C63   C     C_R   0.006156 0.986284 0.737300 -0.227791
C64   C     C_R   0.806433 0.864832 0.097424 -0.248394
C65   C     C_R   0.911350 0.846358 0.928139 0.079442
C66   C     C_R   0.915059 0.027654 0.918240 0.069260
C67   C     C_R   0.062073 0.591841 0.315785 -0.132022
C68   C     C_R   0.013903 0.409668 0.705227 -0.136387
C69   C     C_3   0.484830 0.399233 0.990192 -0.251752
C70   C     C_3   0.540228 0.604422 0.130397 -0.246270
C71   C     C_3   0.440384 0.469073 0.959872 0.393230
C72   C     C_3   0.586093 0.534793 0.160967 0.388204
C73   C     C_3   0.426482 0.502761 0.061011 0.095452
C74   C     C_3   0.598480 0.500570 0.059320 0.096947
C75   C     C_3   0.471035 0.433559 0.092910 -0.237432
C76   C     C_3   0.553674 0.569803 0.027868 -0.231174
C77   C     C_R   0.314973 0.592354 0.065310 -0.124065
C78   C     C_R   0.694157 0.408939 0.992596 -0.148455
C79   C     C_R   0.980481 0.410008 0.220566 -0.123833
C80   C     C_R   0.102177 0.589422 0.796189 -0.126835
C81   C     C_R   0.199965 0.803550 0.296737 -0.148773
C82   C     C_R   0.777151 0.239102 0.684138 -0.149736
C83   C     C_R   0.001748 0.197760 0.908337 -0.208283
C84   C     C_R   0.923119 0.734678 0.015793 -0.206406
C85   C     C_R   0.934604 0.133597 0.931485 0.020819
C86   C     C_R   0.945495 0.773000 0.950884 0.001920
H1    H     H_    0.782187 0.015962 0.551039 0.127546
H2    H     H_    0.059212 0.066363 0.385977 0.112894
H3    H     H_    0.106623 0.070039 0.688407 0.133913
H4    H     H_    0.725866 0.818340 0.180979 0.117491
H5    H     H_    0.636784 0.070552 0.100327 0.117061
H6    H     H_    0.454817 0.980007 0.002055 0.120379
H7    H     H_    0.845105 0.405816 0.359551 0.116462
H8    H     H_    0.367491 0.648069 0.791594 0.120935
H9    H     H_    0.975836 0.190485 0.292180 0.142846
H10   H     H_    0.155763 0.773709 0.698251 0.118525
H11   H     H_    0.792520 0.040991 0.139684 0.147597
H12   H     H_    0.287753 0.953356 0.866519 0.134257
H13   H     H_    0.027820 0.325197 0.524638 0.115333
H14   H     H_    0.215350 0.661873 0.530469 0.124957
H15   H     H_    0.435446 0.379704 0.120870 0.135177
H16   H     H_    0.588447 0.624349 0.000107 0.125730
H17   H     H_    0.347916 0.836009 0.181861 0.089842
H18   H     H_    0.624596 0.231978 0.798745 0.095087
H19   H     H_    0.071873 0.984149 0.793399 0.132208
H20   H     H_    0.733311 0.812375 0.017556 0.127149
H21   H     H_    0.050298 0.855285 0.550248 0.122173
H22   H     H_    0.894375 0.154574 0.421602 0.105487
H23   H     H_    0.063126 0.997570 0.501049 0.110285
H24   H     H_    0.746517 0.972675 0.351157 0.112594
H25   H     H_    0.219270 0.088435 0.480832 0.116011
H26   H     H_    0.587144 0.954254 0.368890 0.125399
H27   H     H_    0.350245 0.895241 0.562402 0.119829
H28   H     H_    0.702609 0.297893 0.491726 0.122457
H29   H     H_    0.195369 0.807156 0.582061 0.117121
H30   H     H_    0.867408 0.318475 0.489036 0.134836
H31   H     H_    0.477630 0.163379 0.656235 0.125967
H32   H     H_    0.437345 0.013369 0.288599 0.126892
H33   H     H_    0.904638 0.790874 0.770985 0.145111
H34   H     H_    0.922711 0.081381 0.074739 0.144166
H35   H     H_    0.462172 0.315252 0.931689 0.137351
H36   H     H_    0.561967 0.687951 0.189006 0.124843
H37   H     H_    0.206977 0.325033 0.936343 0.101028
H38   H     H_    0.812888 0.674467 0.146859 0.120069
H39   H     H_    0.112066 0.676220 0.380355 0.112342
H40   H     H_    0.993839 0.326308 0.656916 0.096529
H41   H     H_    0.378230 0.676540 0.117369 0.100828
H42   H     H_    0.637508 0.325277 0.961568 0.098848
H43   H     H_    0.962319 0.327239 0.194294 0.130155
H44   H     H_    0.165575 0.671052 0.835075 0.139558
H45   H     H_    0.157023 0.827083 0.336448 0.132488
H46   H     H_    0.801894 0.219565 0.624457 0.136439
H47   H     H_    0.038095 0.174707 0.860314 0.142514
H48   H     H_    0.857871 0.725943 0.031805 0.147339
H49   H     H_    0.961550 0.084653 0.564931 0.106277
H50   H     H_    0.889233 0.945730 0.365176 0.108622
N1    N     N_R   0.947560 0.293820 0.002910 -0.055020
N2    N     N_R   0.052440 0.706180 0.997090 -0.057920
N3    N     N_R   0.208960 0.706170 0.152110 -0.040993
N4    N     N_R   0.791040 0.293830 0.847890 -0.035184
N5    N     N_R   0.154330 0.443160 0.946140 -0.039320
N6    N     N_R   0.845670 0.556840 0.053860 -0.038265
N7    N     N_R   0.002190 0.556820 0.208880 -0.038643
N8    N     N_R   0.997810 0.443180 0.791120 -0.039927
N9    N     N_R   0.210550 0.556810 0.002910 -0.042105
N10   N     N_R   0.789450 0.443190 0.997090 -0.033266
N11   N     N_R   0.945970 0.443180 0.152110 -0.041188
N12   N     N_R   0.054030 0.556820 0.847890 -0.042182
N13   N     N_R   0.151530 0.706170 0.208880 -0.041262
N14   N     N_R   0.848470 0.293830 0.791120 -0.039183
N15   N     N_R   0.004980 0.293810 0.946140 -0.051894
N16   N     N_R   0.995020 0.706190 0.053860 -0.055033
Ni1   Ni    Ni4+2 0.869690 0.369690 0.000000 0.210566
Ni2   Ni    Ni4+2 0.130310 0.630310 0.000000 0.205959
Ni3   Ni    Ni4+2 0.001390 0.369680 0.869810 0.211795
Ni4   Ni    Ni4+2 0.998610 0.630320 0.130190 0.214854
C87   C     C_3   0.786569 0.147652 0.971857 -1.053970
H51   H     H_    0.726535 0.125641 0.889699 0.251800
H52   H     H_    0.762666 0.072788 0.976728 0.252017
H53   H     H_    0.781674 0.209062 0.034673 0.264653
C88   C     C_3   0.105011 0.816666 0.913433 -1.086573
H54   H     H_    0.070462 0.773570 0.823137 0.253810
H55   H     H_    0.118259 0.900942 0.942898 0.256703
H56   H     H_    0.185561 0.824458 0.955698 0.259121
C89   C     C_3   0.630638 0.252068 0.212996 -0.398039
C90   C     C_3   0.577774 0.249893 0.106075 -0.950031
H57   H     H_    0.632103 0.325002 0.113085 0.272219
H58   H     H_    0.561693 0.177091 0.035199 0.257307
H59   H     H_    0.499468 0.247417 0.091253 0.260138
H60   H     H_    0.571131 0.184794 0.212556 0.193008
H61   H     H_    0.652684 0.330080 0.282297 0.191387
C91   C     C_3   0.522257 0.828677 0.993140 -0.398035
C92   C     C_3   0.521252 0.860352 0.100942 -0.920263
H62   H     H_    0.542975 0.947233 0.144441 0.260450
H63   H     H_    0.439268 0.809380 0.084068 0.250249
H64   H     H_    0.579996 0.847731 0.155402 0.250031
H65   H     H_    0.524466 0.751024 0.965228 0.188719
H66   H     H_    0.596931 0.891262 0.006410 0.183952
C93   C     C_3   0.713730 0.925664 0.658731 -0.405975
C94   C     C_3   0.648089 0.801553 0.600606 -0.888781
H67   H     H_    0.636624 0.763808 0.516590 0.257728
H68   H     H_    0.689773 0.770603 0.647474 0.262321
H69   H     H_    0.567071 0.777044 0.593848 0.253272
H70   H     H_    0.723316 0.962701 0.741792 0.205657
H71   H     H_    0.666120 0.953326 0.612303 0.192479
C95   C     C_3   0.112508 0.054426 0.228185 -0.386431
C96   C     C_3   0.158175 0.177692 0.282717 -0.926005
H72   H     H_    0.106465 0.197506 0.229840 0.256802
H73   H     H_    0.163870 0.211842 0.364270 0.254394
H74   H     H_    0.240929 0.216993 0.294837 0.262768
H75   H     H_    0.168534 0.036975 0.279975 0.193881
H76   H     H_    0.111822 0.024238 0.148979 0.204698
C97   C     C_3   0.359118 0.432510 0.843601 -1.044532
H77   H     H_    0.396592 0.421155 0.791100 0.253476
H78   H     H_    0.285822 0.353964 0.808510 0.249797
H79   H     H_    0.335426 0.495383 0.845069 0.257718
C98   C     C_3   0.672463 0.573124 0.275223 -1.047252
H80   H     H_    0.641647 0.591870 0.333153 0.255584
H81   H     H_    0.692992 0.508318 0.273400 0.258302
H82   H     H_    0.746551 0.647754 0.303398 0.251841

loop_
_geom_bond_atom_site_label_1
_geom_bond_atom_site_label_2
_ccdc_geom_bond_type
C91   H65   S    
C16   C28   A    
C90   H58   S    
C89   H61   S    
C87   H51   S    
N4    N14   A    
C41   C43   A    
N6    N10   A    
C3    C23   A    
N8    N12   A    
C67   N7    A    
C66   C85   S    
C88   H54   S    
C65   C86   S    
C39   C41   A    
C92   H62   S    
C45   H37   S    
N7    N11   A    
N10   Ni1   S    
C84   H48   S    
C89   C90   S    
C10   C66   A    
N12   Ni2   S    
C23   N3    A    
C19   C21   A    
N13   Ni4   S    
C84   C86   A    
C13   C35   A    
C67   H39   S    
C14   C36   A    
C71   C76   S    
C14   C95   S    
C29   H13   S    
C53   H31   S    
C81   H45   S    
C51   H21   S    
C79   H43   S    
C30   H14   S    
C18   C20   A    
C98   H81   S    
C2    C86   A    
C95   H75   S    
C69   C71   S    
C42   H26   S    
C96   H74   S    
C22   C26   A    
C43   C58   S    
C37   C63   A    
C72   C98   S    
C48   H28   S    
C35   C63   A    
C23   H17   S    
N16   Ni4   S    
C11   H1    S    
C49   C51   A    
C3    C81   A    
C50   C52   A    
C31   C33   A    
C27   H5    S    
C83   H47   S    
N15   Ni3   S    
C63   H19   S    
C60   H50   S    
C83   N15   A    
C77   H41   S    
C94   H69   S    
N5    N9    A    
N4    Ni1   S    
N2    Ni2   S    
C53   C55   A    
C78   H42   S    
C87   H52   S    
C45   N5    A    
C73   C75   S    
C46   H38   S    
C42   C44   A    
C72   C75   S    
C11   C59   A    
C2    C88   S    
C88   H55   S    
C94   H68   S    
C6    C74   S    
C39   H23   S    
C38   C64   A    
C92   H63   S    
C1    C85   A    
C54   C56   A    
C80   H44   S    
C12   H2    S    
C9    C62   A    
C2    N2    A    
C10   H34   S    
C72   C74   S    
C71   C73   S    
C62   C66   A    
N5    Ni3   S    
C40   H24   S    
C21   H9    S    
N3    Ni2   S    
N2    N16   A    
C13   C93   S    
C5    C45   A    
C29   C34   A    
N3    N13   A    
C24   N4    A    
C24   H18   S    
C32   C34   A    
C98   H82   S    
C9    H33   S    
C3    C56   S    
C70   H36   S    
C15   C27   A    
C69   H35   S    
C44   C57   S    
C97   H79   S    
C70   C73   S    
C97   H78   S    
C39   C51   A    
N1    Ni1   S    
C69   C74   S    
C28   H6    S    
C82   N14   A    
C1    C87   S    
C64   H20   S    
C48   C50   A    
C37   C59   A    
C74   C76   S    
C26   H12   S    
C38   C60   A    
N9    Ni2   S    
C84   N16   A    
C25   H11   S    
C83   C85   A    
C12   C14   A    
C8    C68   A    
C87   H53   S    
N14   Ni3   S    
C55   C57   A    
C4    C55   S    
C70   C76   S    
C90   H57   S    
C18   H8    S    
C10   C61   A    
C17   H7    S    
C20   C33   S    
C5    C77   A    
C36   C61   S    
C68   H40   S    
C88   H56   S    
C1    N1    A    
C91   C92   S    
C7    C79   A    
C93   H70   S    
C92   H64   S    
C91   H66   S    
C89   H60   S    
C47   H27   S    
C21   C25   A    
C75   H15   S    
C7    C32   S    
C6    C46   A    
C30   C33   A    
C49   H29   S    
C8    C31   S    
C22   H10   S    
C5    C73   S    
C15   C89   S    
C20   C22   A    
C40   C42   A    
C19   C34   S    
C68   N8    A    
C79   N11   A    
C53   C58   A    
C15   C17   A    
C93   H71   S    
C47   C49   A    
C38   H4    S    
C26   C28   A    
C37   H3    S    
N8    Ni3   S    
C54   H32   S    
C96   H72   S    
C29   C31   A    
C40   C52   A    
C30   C32   A    
C11   C13   A    
C71   C97   S    
N7    Ni4   S    
C77   N9    A    
C43   C47   A    
C4    C24   A    
C81   N13   A    
C59   H49   S    
C46   N6    A    
C56   C58   A    
C69   C75   S    
C35   C62   S    
C50   H30   S    
C95   H76   S    
C98   H80   S    
N11   Ni1   S    
C9    C65   A    
C96   H73   S    
C6    C78   A    
C78   N10   A    
C7    C67   A    
C93   C94   S    
C12   C60   A    
C17   C19   A    
C61   C65   A    
C80   N12   A    
C4    C82   A    
C52   H22   S    
C90   H59   S    
C16   C18   A    
C97   H77   S    
C41   H25   S    
C8    C80   A    
N1    N15   A    
C70   C72   S    
C76   H16   S    
N6    Ni4   S    
C95   C96   S    
C36   C64   A    
C82   H46   S    
C54   C57   A    
C94   H67   S    
C44   C48   A    
C16   C91   S    
C25   C27   A    
