data_mof_unit_41661.cif
_audit_creation_date              2012-12-11T14:33:00-0500
_audit_creation_method            fapswitch 2.2
_symmetry_space_group_name_H-M    P1
_symmetry_Int_Tables_number       1
_space_group_crystal_system       triclinic
_cell_length_a                    6.961302
_cell_length_b                    13.822987
_cell_length_c                    18.00187
_cell_angle_alpha                 112.246507
_cell_angle_beta                  95.366301
_cell_angle_gamma                 90.123411
_cell_volume                      1594.95176228

loop_
_atom_site_label
_atom_site_type_symbol
_atom_type_description
_atom_site_fract_x
_atom_site_fract_y
_atom_site_fract_z
_atom_type_partial_charge
O1    O     O_R   0.484560 0.544530 0.414330 -0.536303
O2    O     O_R   0.197040 0.638810 0.585080 -0.545531
O3    O     O_R   0.026800 0.455470 0.585670 -0.544292
C1    C     C_R   0.373166 0.678982 0.610413 0.672040
O4    O     O_R   0.155000 0.556150 0.414940 -0.533395
O5    O     O_R   0.984450 0.372220 0.414320 -0.558673
C2    C     C_R   0.317800 0.565084 0.386674 0.763452
O6    O     O_R   0.526900 0.627780 0.585680 -0.549561
O7    O     O_3   0.339170 0.439750 0.499990 -0.369151
V1    V     V_3+5 0.064350 0.511180 0.500000 1.374246
O8    O     O_R   0.654880 0.361190 0.414920 -0.508057
C3    C     C_R   0.817316 0.324557 0.386694 0.669503
O9    O     O_R   0.696930 0.443850 0.585060 -0.545392
C4    C     C_R   0.873628 0.441357 0.615755 0.701412
V2    V     V_3+5 0.564340 0.488820 0.500000 1.410790
O10   O     O_3   0.839390 0.560250 0.500010 -0.382695
C5    C     C_R   0.046108 0.881338 0.836140 -0.067911
C6    C     C_R   0.909314 0.405790 0.682885 -0.046208
C7    C     C_R   0.928748 0.843686 0.697566 0.098156
C8    C     C_R   0.985738 0.810289 0.759667 -0.126446
C9    C     C_R   0.056578 0.989265 0.851158 -0.239383
C10   C     C_R   0.001838 0.025954 0.788131 0.072004
C11   C     C_R   0.931855 0.950407 0.711314 0.138578
C12   C     C_R   0.010791 0.134014 0.797661 0.071967
C13   C     C_R   0.947714 0.162209 0.730610 0.073372
C14   C     C_R   0.851990 0.085736 0.662094 -0.201838
C15   C     C_R   0.855971 0.982352 0.650075 -0.216024
C16   C     C_R   0.075523 0.214872 0.871467 -0.180368
C17   C     C_R   0.075784 0.318940 0.879280 -0.203601
C18   C     C_R   0.020738 0.345961 0.813096 0.081978
C19   C     C_R   0.966303 0.267475 0.735923 0.083477
C20   C     C_R   0.020653 0.451511 0.823835 -0.124250
C21   C     C_R   0.958405 0.481147 0.760174 -0.206688
C22   C     C_R   0.933091 0.298961 0.668198 0.115750
H1    H     H_    0.789198 0.928692 0.592531 0.133968
H2    H     H_    0.954917 0.563572 0.770702 0.104703
H3    H     H_    0.121687 0.379095 0.937767 0.125756
H4    H     H_    0.979499 0.727656 0.749040 0.082383
H5    H     H_    0.103572 0.041922 0.911902 0.102997
H6    H     H_    0.765203 0.104227 0.617046 0.165192
H7    H     H_    0.124037 0.200151 0.924690 0.128667
H8    H     H_    0.064995 0.511519 0.882357 0.154456
H9    H     H_    0.112850 0.222993 0.308149 0.138029
H10   H     H_    0.835067 0.034046 0.194322 0.202538
C23   C     C_2   0.134742 0.036940 0.183727 -0.358040
C24   C     C_2   0.972466 0.077370 0.217281 -0.077359
C25   C     C_2   0.812651 0.221076 0.319080 0.427954
C26   C     C_2   0.974900 0.180103 0.285439 -0.225427
H11   H     H_    0.272246 0.080080 0.206900 0.202766
C27   C     C_R   0.405515 0.784966 0.677753 -0.057005
C28   C     C_R   0.540296 0.471467 0.828268 -0.052166
C29   C     C_R   0.526783 0.885085 0.817187 -0.125333
C30   C     C_R   0.477288 0.789462 0.754126 -0.137205
C31   C     C_R   0.388475 0.880651 0.665380 -0.225973
C32   C     C_R   0.442655 0.980474 0.729359 0.099783
C33   C     C_R   0.509891 0.979835 0.805883 0.118836
C34   C     C_R   0.438006 0.080424 0.720447 0.070948
C35   C     C_R   0.496707 0.176683 0.788197 0.069081
C36   C     C_R   0.556366 0.169605 0.862728 -0.181729
C37   C     C_R   0.563199 0.073542 0.871062 -0.211468
C38   C     C_R   0.384889 0.086969 0.645261 -0.198622
C39   C     C_R   0.392669 0.181916 0.635517 -0.220335
C40   C     C_R   0.440974 0.275912 0.700771 0.122327
C41   C     C_R   0.496037 0.276374 0.778653 0.090626
C42   C     C_R   0.431259 0.369776 0.687915 -0.129809
C43   C     C_R   0.478017 0.465776 0.750675 -0.143397
C44   C     C_R   0.547267 0.376702 0.842529 -0.212720
H12   H     H_    0.613654 0.072506 0.929571 0.123146
H13   H     H_    0.589232 0.383785 0.903590 0.098354
H14   H     H_    0.465555 0.536377 0.738331 0.093103
H15   H     H_    0.358339 0.181778 0.575515 0.130991
H16   H     H_    0.581527 0.884893 0.875422 0.141602
H17   H     H_    0.496845 0.718214 0.765085 0.092099
H18   H     H_    0.336759 0.874475 0.605386 0.094618
H19   H     H_    0.602414 0.237536 0.915855 0.129485
H20   H     H_    0.342541 0.018979 0.591689 0.128377
H21   H     H_    0.384408 0.369004 0.628606 0.144527
H22   H     H_    0.335769 0.667648 0.195039 0.138163
H23   H     H_    0.614246 0.590338 0.308234 0.202166
C45   C     C_2   0.314641 0.602389 0.319131 -0.362266
C46   C     C_2   0.476707 0.610833 0.285487 -0.076448
C47   C     C_2   0.635748 0.655789 0.183543 0.430190
C48   C     C_2   0.473830 0.647235 0.217468 -0.224837
H24   H     H_    0.177030 0.622526 0.296164 0.202500
O11   O     O_R   0.421600 0.630430 0.917010 -0.539212
O12   O     O_R   0.793840 0.702190 0.087630 -0.510862
O13   O     O_R   0.964010 0.886170 0.088190 -0.539951
C49   C     C_R   0.631244 0.693214 0.115991 0.652638
O14   O     O_R   0.751460 0.619510 0.917500 -0.541724
O15   O     O_R   0.921330 0.802900 0.916840 -0.545222
C50   C     C_R   0.574939 0.578260 0.894156 0.677577
O16   O     O_R   0.464290 0.713700 0.088350 -0.561466
O17   O     O_3   0.609200 0.818520 0.002630 -0.376520
V3    V     V_3+5 0.884140 0.747190 0.002530 1.420078
O18   O     O_R   0.251150 0.814630 0.917340 -0.542177
C51   C     C_R   0.076476 0.839284 0.899840 0.686316
O19   O     O_R   0.293530 0.897310 0.087470 -0.535891
C52   C     C_R   0.131108 0.933723 0.115920 0.752830
V4    V     V_3+5 0.384070 0.769710 0.002370 1.395897
O20   O     O_3   0.109180 0.698190 0.002460 -0.374973
F1    F     F_    0.639716 0.167611 0.290459 -0.704949
C53   C     C_3   0.950133 0.226808 0.580932 -0.820428
H25   H     H_    0.018942 0.152550 0.574408 0.219987
H26   H     H_    0.805875 0.211332 0.545712 0.204172
H27   H     H_    0.046871 0.263098 0.552364 0.207357
F2    F     F_    0.808812 0.630649 0.211833 -0.704174
C54   C     C_3   0.864470 0.763461 0.616871 -0.641978
H28   H     H_    0.862509 0.687013 0.622591 0.236504
H29   H     H_    0.717535 0.777720 0.595575 0.180838
H30   H     H_    0.963279 0.765429 0.572496 0.194185

loop_
_geom_bond_atom_site_label_1
_geom_bond_atom_site_label_2
_ccdc_geom_bond_type
C13   C19   A    
C32   C33   A    
C40   C42   A    
O17   V3    S    
C25   F1    S    
C4    C6    S    
O2    C1    A    
O18   C51   A    
C1    O6    A    
C21   H2    S    
O19   C52   A    
O11   C50   A    
C23   C24   D    
C14   C15   A    
C39   C40   A    
C34   C38   A    
O11   V4    S    
C16   C17   A    
C23   C52   S    
O5    C3    A    
C18   C19   A    
O12   C49   A    
V2    O10   S    
O13   V3    S    
C16   H7    S    
C5    C8    A    
C53   H27   S    
O14   V3    S    
O12   V3    S    
O19   V4    S    
C31   H18   S    
O8    V2    S    
H22   C48   S    
V4    O20   S    
C54   H28   S    
O1    V2    S    
C11   C15   A    
O14   C50   A    
H9    C26   S    
O17   V4    S    
C45   H24   S    
O13   C52   A    
C28   C50   S    
C36   C37   A    
O9    C4    A    
C54   H29   S    
C53   H25   S    
C3    C25   S    
C46   C48   S    
H10   C24   S    
O15   V3    S    
C38   H20   S    
C35   C41   A    
C24   C26   S    
C27   C30   A    
C42   H21   S    
C41   C44   A    
C49   O16   A    
C12   C13   A    
H23   C46   S    
C28   C44   A    
C15   H1    S    
C13   C14   A    
C5    C9    A    
C33   C37   A    
C1    C27   S    
C44   H13   S    
C28   C43   A    
C7    C11   A    
C17   C18   A    
C29   H16   S    
C8    H4    S    
V3    O20   S    
C25   C26   D    
C9    H5    S    
C23   H11   S    
C19   C22   A    
C5    C51   S    
C22   C53   S    
C53   H26   S    
C6    C22   A    
O3    C4    A    
C42   C43   A    
O6    V2    S    
O9    V2    S    
C54   H30   S    
C10   C12   A    
O2    V1    S    
C36   H19   S    
C29   C30   A    
O4    C2    A    
O7    V1    S    
C31   C32   A    
O1    C2    A    
C30   H17   S    
C12   C16   A    
C45   C46   D    
O5    V1    S    
O8    C3    A    
O15   C51   A    
C20   C21   A    
C7    C8    A    
C32   C34   A    
C35   C36   A    
O4    V1    S    
C27   C31   A    
O3    V1    S    
V1    O10   S    
C18   C20   A    
C14   H6    S    
C34   C35   A    
C43   H14   S    
C47   C49   S    
C39   H15   S    
O18   V4    S    
C47   F2    S    
O7    V2    S    
C38   C39   A    
C6    C21   A    
C40   C41   A    
C37   H12   S    
C47   C48   D    
C17   H3    S    
C20   H8    S    
C10   C11   A    
C9    C10   A    
C29   C33   A    
O16   V4    S    
C2    C45   S    
C7    C54   S    
