data_mof_unit_21406.cif
_audit_creation_date              2012-10-26T18:54:11-0400
_audit_creation_method            fapswitch 2.2
_symmetry_space_group_name_H-M    P1
_symmetry_Int_Tables_number       1
_space_group_crystal_system       triclinic
_cell_length_a                    14.691222
_cell_length_b                    14.700303
_cell_length_c                    23.50404
_cell_angle_alpha                 76.949057
_cell_angle_beta                  102.763281
_cell_angle_gamma                 114.739134
_cell_volume                      4445.02544726

loop_
_atom_site_label
_atom_site_type_symbol
_atom_type_description
_atom_site_fract_x
_atom_site_fract_y
_atom_site_fract_z
_atom_type_partial_charge
C1    C     C_R   0.880323 0.312270 0.510276 0.549971
C2    C     C_R   0.079173 0.482880 0.312176 -0.130378
C3    C     C_R   0.916420 0.514979 0.746901 0.062123
C4    C     C_R   0.081389 0.482721 0.252861 0.061740
C5    C     C_R   0.993972 0.499274 0.790343 0.256527
C6    C     C_R   0.004997 0.500871 0.209446 0.256666
C7    C     C_R   0.812758 0.204703 0.518211 -0.001302
C8    C     C_R   0.187248 0.794986 0.489293 -0.000773
C9    C     C_R   0.784383 0.026912 0.538722 -0.128809
C10   C     C_R   0.216628 0.969911 0.488187 -0.129427
C11   C     C_R   0.850708 0.128219 0.532397 -0.133029
C12   C     C_R   0.119659 0.687722 0.490593 0.549427
C13   C     C_R   0.149754 0.870011 0.484631 -0.132664
C14   C     C_R   0.708311 0.178901 0.511706 -0.132310
C15   C     C_R   0.291759 0.821062 0.496585 -0.128444
C16   C     C_R   0.999350 0.499799 0.608992 0.553028
C17   C     C_R   0.000591 0.500150 0.390999 0.553459
C18   C     C_R   0.640008 0.077443 0.519729 0.033460
C19   C     C_R   0.360878 0.920138 0.503178 0.034623
C20   C     C_R   0.679558 0.001003 0.531791 0.052353
C21   C     C_R   0.321611 0.995457 0.497587 0.051708
C22   C     C_R   0.533605 0.050073 0.514248 0.034049
C23   C     C_R   0.071583 0.483189 0.774177 -0.068575
C24   C     C_R   0.467527 0.946423 0.514499 0.033703
C25   C     C_R   0.510266 0.872416 0.527411 -0.135232
C26   C     C_R   0.491252 0.122565 0.509638 -0.134542
C27   C     C_R   0.614252 0.899501 0.536450 -0.129502
C28   C     C_R   0.387302 0.095344 0.501812 -0.130574
C29   C     C_R   0.715294 0.668494 0.402320 -0.157060
C30   C     C_R   0.284612 0.331372 0.597684 -0.158924
C31   C     C_R   0.796894 0.638826 0.417550 0.040349
C32   C     C_R   0.202978 0.361018 0.582373 0.039953
C33   C     C_R   0.714850 0.509133 0.491751 0.034100
C34   C     C_R   0.928488 0.518533 0.225750 -0.068478
C35   C     C_R   0.285307 0.490994 0.508396 0.033075
C36   C     C_R   0.628780 0.535158 0.478209 0.002836
C37   C     C_R   0.371422 0.465011 0.522034 0.002484
C38   C     C_R   0.631306 0.617372 0.432593 0.039037
C39   C     C_R   0.368794 0.382683 0.567583 0.038698
C40   C     C_R   0.051856 0.589625 0.113830 0.388402
C41   C     C_R   0.946413 0.410459 0.885855 0.393482
C42   C     C_R   0.541532 0.483709 0.508210 0.022999
C43   C     C_R   0.458769 0.516563 0.492136 0.021383
C44   C     C_R   0.466261 0.599869 0.446854 -0.145377
C45   C     C_R   0.073358 0.483006 0.715248 -0.149706
C46   C     C_R   0.534101 0.400500 0.553562 -0.148286
C47   C     C_R   0.550553 0.648652 0.417679 -0.127710
C48   C     C_R   0.449655 0.351530 0.582608 -0.133664
C49   C     C_R   0.952736 0.411468 0.125820 0.393796
C50   C     C_R   0.045662 0.588591 0.873919 0.389036
C51   C     C_R   0.950087 0.409321 0.066109 0.027090
C52   C     C_R   0.048200 0.590742 0.933608 0.026388
C53   C     C_R   0.999909 0.500162 0.029954 -0.029314
C54   C     C_R   0.998288 0.499913 0.969740 -0.029404
C55   C     C_R   0.051284 0.591270 0.053862 0.026469
C56   C     C_R   0.926935 0.518372 0.284757 -0.149719
C57   C     C_R   0.946852 0.408823 0.945812 0.027097
C58   C     C_R   0.899012 0.318949 0.041797 -0.127055
C59   C     C_R   0.099203 0.681130 0.957903 -0.125821
C60   C     C_R   0.897413 0.318702 0.982255 -0.126845
C61   C     C_R   0.100698 0.681398 0.017420 -0.125773
C62   C     C_3   0.830881 0.532458 0.762262 -0.259808
C63   C     C_3   0.730975 0.441260 0.754444 -0.432266
C64   C     C_3   0.166028 0.464083 0.237260 -0.261339
C65   C     C_3   0.152851 0.353450 0.256374 -0.429644
C66   C     C_R   0.997434 0.499355 0.671431 -0.010092
C67   C     C_R   0.002155 0.500406 0.328519 -0.010373
C68   C     C_R   0.919327 0.515278 0.687639 -0.129797
Cu1   Cu    Cu3+1 0.081740 0.475680 0.515360 0.933874
Cu2   Cu    Cu3+1 0.918260 0.524320 0.484640 0.934083
H1    H     H_    0.860162 0.248155 0.068672 0.165746
H2    H     H_    0.720673 0.449258 0.526477 0.115278
H3    H     H_    0.137572 0.321002 0.605229 0.126465
H4    H     H_    0.862180 0.678709 0.394586 0.127054
H5    H     H_    0.718083 0.731447 0.367304 0.098218
H6    H     H_    0.281710 0.268308 0.632638 0.097517
H7    H     H_    0.408064 0.629817 0.432742 0.093026
H8    H     H_    0.592448 0.370759 0.567804 0.088564
H9    H     H_    0.857362 0.247731 0.964915 0.166152
H10   H     H_    0.140711 0.752379 0.034753 0.167047
H11   H     H_    0.130860 0.470907 0.807578 0.126738
H12   H     H_    0.138095 0.751918 0.931036 0.166697
H13   H     H_    0.869854 0.532255 0.192400 0.126915
H14   H     H_    0.134426 0.470481 0.704036 0.135302
H15   H     H_    0.866696 0.532155 0.296050 0.135418
H16   H     H_    0.860279 0.528108 0.654202 0.127512
H17   H     H_    0.138163 0.469673 0.345502 0.127258
H18   H     H_    0.643689 0.840355 0.546339 0.113784
H19   H     H_    0.358162 0.153245 0.498715 0.115167
H20   H     H_    0.317283 0.762441 0.496352 0.116054
H21   H     H_    0.681727 0.239547 0.498605 0.121327
H22   H     H_    0.069064 0.851376 0.478959 0.129650
H23   H     H_    0.814998 0.968693 0.548621 0.108945
H24   H     H_    0.931318 0.146573 0.537801 0.128280
H25   H     H_    0.709553 0.428065 0.707745 0.143684
H26   H     H_    0.737489 0.372348 0.783109 0.198658
H27   H     H_    0.670075 0.455456 0.767038 0.142355
H28   H     H_    0.845946 0.547096 0.808408 0.168384
H29   H     H_    0.823251 0.600782 0.733350 0.142509
H30   H     H_    0.155146 0.332614 0.304976 0.148039
H31   H     H_    0.079565 0.303129 0.234395 0.199816
H32   H     H_    0.215130 0.341719 0.243641 0.142538
H33   H     H_    0.169689 0.483578 0.189151 0.168457
H34   H     H_    0.186284 0.027089 0.484340 0.107898
H35   H     H_    0.239812 0.513515 0.259377 0.140591
H36   H     H_    0.465650 0.792162 0.532658 0.107630
H37   H     H_    0.536399 0.200974 0.513768 0.102191
H38   H     H_    0.552653 0.712051 0.383075 0.115734
H39   H     H_    0.447519 0.288087 0.617187 0.113701
H40   H     H_    0.279553 0.550926 0.473701 0.115800
N1    N     N_R   0.003424 0.500587 0.148326 -0.403687
N2    N     N_R   0.995071 0.499463 0.851411 -0.404022
N3    N     N_R   0.795430 0.560810 0.461550 -0.233277
N4    N     N_R   0.204570 0.439190 0.538450 -0.233171
O1    O     O_R   0.977900 0.338110 0.520250 -0.504784
O2    O     O_2   0.897934 0.324042 0.862084 -0.506392
O3    O     O_2   0.905108 0.325433 0.161158 -0.506790
O4    O     O_2   0.093028 0.674695 0.838540 -0.498873
O5    O     O_R   0.022100 0.661890 0.479750 -0.504781
O6    O     O_R   0.839850 0.379180 0.494310 -0.509996
O7    O     O_R   0.160150 0.620820 0.505690 -0.509496
O8    O     O_R   0.069020 0.479430 0.595090 -0.500080
O9    O     O_R   0.930980 0.520570 0.404910 -0.499825
O10   O     O_R   0.930970 0.520500 0.569150 -0.506748
O11   O     O_R   0.069030 0.479500 0.430850 -0.506112
O12   O     O_2   0.100556 0.676009 0.137627 -0.499519

loop_
_geom_bond_atom_site_label_1
_geom_bond_atom_site_label_2
_ccdc_geom_bond_type
C64   H33   S    
C66   C68   A    
C60   H9    S    
C34   C56   A    
C8    C13   A    
C23   C45   A    
C68   H16   S    
C6    N1    S    
C14   C18   A    
C36   C42   A    
C3    C68   A    
C59   H12   S    
C65   H31   S    
C64   H35   S    
C53   C54   A    
C15   C19   A    
C44   H7    S    
C19   C21   A    
C58   H1    S    
C61   H10   S    
C58   C60   A    
C63   H25   S    
C33   C36   A    
C35   N4    A    
C42   C46   A    
C16   O8    A    
C33   H2    S    
C1    C7    S    
C62   H28   S    
Cu2   O9    S    
C17   O9    A    
C7    C14   A    
C49   O3    S    
C12   O7    A    
Cu2   O6    S    
C49   C51   A    
C41   N2    A    
C29   C38   A    
C50   C52   A    
C28   H19   S    
C44   C47   A    
C49   N1    A    
C48   H39   S    
Cu1   O11   S    
Cu2   N3    S    
C50   O4    S    
Cu1   Cu2   S    
C65   H32   S    
C52   C54   A    
C25   H36   S    
C40   N1    A    
C53   C55   A    
C10   C21   A    
C46   C48   A    
Cu1   N4    S    
C59   C61   A    
C17   C67   S    
C24   C25   A    
C4    C6    A    
C2    C67   A    
C32   H3    S    
C46   H8    S    
C57   C60   A    
C63   H26   S    
C6    C34   A    
C51   C53   A    
C1    O6    A    
C37   C43   A    
C7    C11   A    
C43   C44   A    
C62   C63   S    
C52   C59   A    
C12   O5    A    
C30   H6    S    
C9    C20   A    
C5    C23   A    
Cu1   O7    S    
Cu2   O5    S    
C8    C12   S    
C40   C55   A    
C40   O12   S    
C50   N2    A    
C2    H17   S    
C51   C58   A    
C9    C11   A    
C38   C47   A    
C35   H40   S    
C11   H24   S    
C20   C27   A    
C21   C28   A    
C8    C15   A    
C13   H22   S    
C22   C26   A    
C22   C24   A    
C45   H14   S    
C16   C66   S    
C34   H13   S    
C41   O2    S    
C9    H23   S    
C3    C62   S    
Cu1   O1    S    
C23   H11   S    
C35   C37   A    
C18   C22   A    
C33   N3    A    
C63   H27   S    
C65   H30   S    
C3    C5    A    
C10   C13   A    
C26   H37   S    
C29   H5    S    
C5    N2    S    
C25   C27   A    
C56   C67   A    
C4    C64   S    
C26   C28   A    
C64   C65   S    
C10   H34   S    
C19   C24   A    
C16   O10   A    
C41   C57   A    
C29   C31   A    
C15   H20   S    
C30   C32   A    
C17   O11   A    
C56   H15   S    
Cu1   O8    S    
C2    C4    A    
C55   C61   A    
C36   C38   A    
C30   C39   A    
C18   C20   A    
C27   H18   S    
C31   H4    S    
C14   H21   S    
C62   H29   S    
Cu2   O10   S    
C37   C39   A    
C47   H38   S    
C42   C43   A    
C45   C66   A    
C1    O1    A    
C32   N4    A    
C31   N3    A    
C39   C48   A    
C54   C57   A    
