data_mof_unit_33832.cif
_audit_creation_date              2012-12-10T17:02:05-0500
_audit_creation_method            fapswitch 2.2
_symmetry_space_group_name_H-M    P1
_symmetry_Int_Tables_number       1
_space_group_crystal_system       triclinic
_cell_length_a                    10.801976
_cell_length_b                    11.066734
_cell_length_c                    9.845643
_cell_angle_alpha                 111.872983
_cell_angle_beta                  97.988453
_cell_angle_gamma                 90.288058
_cell_volume                      1079.5786558

loop_
_atom_site_label
_atom_site_type_symbol
_atom_type_description
_atom_site_fract_x
_atom_site_fract_y
_atom_site_fract_z
_atom_type_partial_charge
C1    C     C_R   0.489701 0.253348 0.439759 0.751474
C2    C     C_R   0.080085 0.610361 0.629084 0.031943
C3    C     C_R   0.129312 0.516548 0.509078 -0.082049
C4    C     C_R   0.049002 0.431499 0.385844 -0.197788
C5    C     C_R   0.921069 0.432578 0.382273 -0.229067
C6    C     C_R   0.870591 0.521117 0.500212 -0.072558
C7    C     C_2   0.478236 0.112131 0.405747 0.312718
C8    C     C_2   0.520715 0.068307 0.512353 -0.235097
C9    C     C_2   0.523251 0.886153 0.594533 -0.382282
C10   C     C_2   0.506059 0.929698 0.484508 -0.096265
C11   C     C_2   0.489060 0.527366 0.085322 0.023202
C12   C     C_R   0.262792 0.506557 0.503614 0.801195
C13   C     C_2   0.478196 0.502739 0.921074 -0.094790
C14   C     C_R   0.510841 0.746254 0.560133 0.840839
C15   C     C_R   0.737252 0.506995 0.500009 0.781030
C16   C     C_R   0.156551 0.699107 0.756791 -0.294993
C17   C     C_R   0.103161 0.787935 0.873202 0.536832
C18   C     C_R   0.975221 0.803248 0.854433 -0.184906
C19   C     C_R   0.898211 0.718615 0.729649 -0.252108
C20   C     C_R   0.948493 0.616150 0.620248 0.097925
Cu1   Cu    Cu3+1 0.521920 0.521810 0.644910 0.926704
Cu2   Cu    Cu3+1 0.478080 0.478190 0.355090 0.979688
H1    H     H_    0.085706 0.360245 0.293453 0.173277
H2    H     H_    0.400835 0.437871 0.847572 0.201328
H3    H     H_    0.537991 0.617242 0.163751 0.114482
H4    H     H_    0.257244 0.701797 0.771219 0.177680
H5    H     H_    0.935131 0.879164 0.938885 0.160984
H6    H     H_    0.799338 0.734836 0.720092 0.172120
H7    H     H_    0.861345 0.361077 0.288904 0.146040
H8    H     H_    0.480458 0.861560 0.370731 0.205954
H9    H     H_    0.568116 0.134002 0.619872 0.138236
H10   H     H_    0.547593 0.953173 0.708967 0.141046
N1    N     N_2   0.445130 0.445430 0.137370 0.038633
N2    N     N_2   0.554930 0.554500 0.862630 -0.234403
O1    O     O_R   0.511700 0.332330 0.577400 -0.597413
O2    O     O_R   0.474680 0.295500 0.332650 -0.556054
O3    O     O_R   0.338160 0.518420 0.622400 -0.597690
O4    O     O_R   0.301140 0.481590 0.377650 -0.555007
O5    O     O_R   0.525320 0.704500 0.667350 -0.599347
O6    O     O_R   0.488300 0.667670 0.422600 -0.602411
O7    O     O_R   0.698860 0.518410 0.622350 -0.574021
O8    O     O_R   0.661840 0.481580 0.377600 -0.598606
O9    O     O_3   0.404995 0.026840 0.277687 -0.586241
C21   C     C_3   0.445626 0.029764 0.149281 -0.241169
H11   H     H_    0.547815 0.055641 0.163952 0.101224
H12   H     H_    0.388253 0.096388 0.110179 0.235867
H13   H     H_    0.426949 0.931310 0.061157 0.186117
C22   C     C_R   0.662772 0.630618 0.955338 0.314549
C23   C     C_R   0.761559 0.570815 0.009697 -0.165738
C24   C     C_R   0.861853 0.646972 0.112103 -0.156846
C25   C     C_R   0.863948 0.782949 0.160794 -0.100379
C26   C     C_R   0.766691 0.842764 0.105399 -0.195348
C27   C     C_R   0.667200 0.766722 0.001378 -0.184215
H14   H     H_    0.759076 0.465668 0.975030 0.120091
H15   H     H_    0.937183 0.600692 0.154919 0.145018
H16   H     H_    0.941261 0.841919 0.240673 0.142567
H17   H     H_    0.768799 0.948028 0.142495 0.130251
H18   H     H_    0.592275 0.813640 0.959438 0.131619
O10   O     O_3   0.405145 0.324896 0.037839 -0.474119
C28   C     C_3   0.511736 0.251792 0.004119 -0.223927
H19   H     H_    0.574385 0.255998 0.105477 0.166982
H20   H     H_    0.566222 0.285653 0.936017 0.132201
H21   H     H_    0.480363 0.148627 0.936523 0.133189
O11   O     O_3   0.175412 0.861418 0.006378 -0.579635
C29   C     C_3   0.211011 0.778246 0.082744 -0.277718
H22   H     H_    0.290314 0.720661 0.037938 0.154254
H23   H     H_    0.131797 0.711712 0.079488 0.144720
H24   H     H_    0.242524 0.838457 0.201069 0.230206

loop_
_geom_bond_atom_site_label_1
_geom_bond_atom_site_label_2
_ccdc_geom_bond_type
C13   N2    D    
C9    C14   S    
Cu1   O1    S    
C27   H18   S    
C7    O9    S    
C22   C27   A    
C2    C16   A    
C9    C10   D    
C10   H8    S    
C15   O8    A    
C24   H15   S    
Cu1   O5    S    
C21   H13   S    
C11   N1    D    
O9    C21   S    
C29   H24   S    
Cu2   O6    S    
O11   C29   S    
C17   C18   A    
C14   O5    A    
Cu1   O3    S    
O10   C28   S    
N1    O10   S    
Cu1   Cu2   S    
C26   C27   A    
C12   O4    A    
C19   H6    S    
C11   C13   S    
C1    O1    A    
C25   C26   A    
Cu2   O8    S    
Cu2   N1    S    
C28   H21   S    
Cu1   O7    S    
C8    C10   S    
C22   C23   A    
C21   H12   S    
C24   C25   A    
C5    H7    S    
C17   O11   S    
C16   H4    S    
C5    C6    A    
C13   H2    S    
C3    C12   S    
N2    C22   S    
C26   H17   S    
C11   H3    S    
C2    C20   A    
C23   H14   S    
Cu2   O4    S    
C16   C17   A    
C7    C8    D    
C6    C20   A    
C21   H11   S    
C15   O7    A    
C28   H20   S    
C29   H22   S    
C18   C19   A    
C12   O3    A    
C23   C24   A    
C4    H1    S    
C4    C5    A    
C2    C3    A    
Cu1   N2    S    
C18   H5    S    
C9    H10   S    
C6    C15   S    
C1    C7    S    
C8    H9    S    
C14   O6    A    
Cu2   O2    S    
C3    C4    A    
C19   C20   A    
C1    O2    A    
C28   H19   S    
C29   H23   S    
C25   H16   S    
