data_mof_unit_24263.cif
_audit_creation_date              2012-12-10T20:40:56-0500
_audit_creation_method            fapswitch 2.2
_symmetry_space_group_name_H-M    P1
_symmetry_Int_Tables_number       1
_space_group_crystal_system       triclinic
_cell_length_a                    27.593485
_cell_length_b                    10.655565
_cell_length_c                    9.838514
_cell_angle_alpha                 89.704219
_cell_angle_beta                  90.113985
_cell_angle_gamma                 90.22215
_cell_volume                      2892.69504341

loop_
_atom_site_label
_atom_site_type_symbol
_atom_type_description
_atom_site_fract_x
_atom_site_fract_y
_atom_site_fract_z
_atom_type_partial_charge
C1    C     C_R   0.502023 0.259830 0.500461 0.914179
C2    C     C_R   0.276802 0.423169 0.593573 -0.121922
C3    C     C_R   0.252153 0.492428 0.494672 0.271693
C4    C     C_R   0.101161 0.456509 0.507263 -0.056247
C5    C     C_R   0.127590 0.396184 0.404627 -0.022062
C6    C     C_R   0.103839 0.314791 0.315208 -0.221560
C7    C     C_R   0.125258 0.535420 0.600096 -0.020647
C8    C     C_R   0.353142 0.494861 0.500536 -0.092004
C9    C     C_R   0.646215 0.484899 0.500800 -0.085598
C10   C     C_R   0.974989 0.383340 0.406361 0.062555
C11   C     C_R   0.974423 0.469519 0.638194 -0.052354
C12   C     C_R   0.405965 0.497925 0.500151 0.896263
C13   C     C_R   0.949312 0.428817 0.520571 0.074283
C14   C     C_R   0.949407 0.363299 0.284126 -0.082026
C15   C     C_R   0.899353 0.375669 0.278300 -0.081679
C16   C     C_R   0.873396 0.410729 0.393910 -0.040615
C17   C     C_R   0.898362 0.437280 0.515511 -0.050237
C18   C     C_R   0.872448 0.474603 0.631192 -0.071293
C19   C     C_R   0.822018 0.485193 0.623157 0.532914
C20   C     C_R   0.822906 0.422101 0.390563 0.532753
C21   C     C_R   0.719290 0.383283 0.579119 -0.100388
C22   C     C_R   0.669053 0.391689 0.580062 0.117247
C23   C     C_R   0.503414 0.740080 0.499238 0.901116
C24   C     C_R   0.673837 0.566041 0.419227 -0.238641
C25   C     C_R   0.724103 0.557369 0.419687 -0.072380
C26   C     C_R   0.746840 0.466461 0.500384 0.253564
C27   C     C_R   0.025954 0.369717 0.414854 0.035270
C28   C     C_R   0.050583 0.438990 0.516461 0.073461
C29   C     C_R   0.024743 0.493364 0.625669 0.039303
C30   C     C_R   0.053744 0.296377 0.322781 -0.043757
C31   C     C_R   0.098798 0.597821 0.699952 -0.121408
C32   C     C_R   0.947670 0.490262 0.759748 -0.020337
C33   C     C_R   0.897063 0.496657 0.753211 -0.096193
C34   C     C_R   0.593863 0.496835 0.500218 0.898963
C35   C     C_R   0.049223 0.578203 0.711571 -0.229120
C36   C     C_R   0.511366 0.062992 0.624021 0.055070
C37   C     C_R   0.512074 0.129197 0.502038 -0.141223
C38   C     C_R   0.525634 0.068224 0.382250 -0.198452
C39   C     C_R   0.527295 0.938139 0.379468 0.154373
C40   C     C_R   0.514071 0.871296 0.498868 -0.152722
C41   C     C_R   0.511970 0.935078 0.622112 0.104782
C42   C     C_3   0.477226 0.924192 0.738267 -0.544368
C43   C     C_3   0.476463 0.066763 0.740063 -0.192511
C44   C     C_R   0.457528 0.507942 0.070969 0.274041
C45   C     C_R   0.177882 0.413394 0.398926 0.530654
C46   C     C_R   0.541473 0.477704 0.072335 -0.079474
C47   C     C_R   0.541480 0.477936 0.928369 -0.081484
C48   C     C_R   0.457551 0.508128 0.928291 0.318564
C49   C     C_3   0.422722 0.614436 0.921558 -0.511836
C50   C     C_3   0.422570 0.614094 0.075796 -0.520040
C51   C     C_R   0.175466 0.550358 0.590162 0.514695
C52   C     C_R   0.277650 0.563075 0.398518 -0.077623
C53   C     C_R   0.328027 0.564477 0.401648 -0.243427
C54   C     C_R   0.327141 0.423322 0.597399 0.117904
H1    H     H_    0.258433 0.616893 0.322043 0.153987
H2    H     H_    0.116235 0.662610 0.769227 0.195158
H3    H     H_    0.656490 0.637229 0.357136 0.178810
H4    H     H_    0.876702 0.515550 0.844907 0.227794
H5    H     H_    0.745426 0.621723 0.358522 0.165817
H6    H     H_    0.030134 0.634607 0.784840 0.168039
H7    H     H_    0.531997 0.120442 0.289154 0.199484
H8    H     H_    0.441900 0.882326 0.707587 0.208949
H9    H     H_    0.256521 0.367592 0.666490 0.163526
H10   H     H_    0.494355 0.879997 0.829028 0.216565
H11   H     H_    0.440744 0.106999 0.711527 0.206944
H12   H     H_    0.575108 0.463249 0.126536 0.167911
H13   H     H_    0.575130 0.463996 0.874774 0.179886
H14   H     H_    0.439004 0.700514 0.876731 0.213326
H15   H     H_    0.387359 0.586133 0.876732 0.237404
H16   H     H_    0.438527 0.700357 0.120975 0.235893
H17   H     H_    0.387129 0.584697 0.118861 0.217453
H18   H     H_    0.124613 0.260859 0.242699 0.187847
H19   H     H_    0.737161 0.311709 0.639341 0.171469
H20   H     H_    0.881172 0.358830 0.182372 0.201814
H21   H     H_    0.967911 0.343027 0.190171 0.161333
H22   H     H_    0.347405 0.621322 0.328120 0.158807
N1    N     N_R   0.200566 0.488313 0.491869 -0.355097
N2    N     N_R   0.798450 0.458844 0.504215 -0.351983
N3    N     N_R   0.499670 0.499140 0.142800 -0.114246
N4    N     N_R   0.499670 0.499180 0.857150 -0.115736
O1    O     O_R   0.500010 0.316790 0.614690 -0.592644
O2    O     O_2   0.798346 0.395487 0.275409 -0.534629
O3    O     O_2   0.199233 0.625019 0.678699 -0.545611
O4    O     O_2   0.796643 0.522431 0.732900 -0.534260
O5    O     O_R   0.500000 0.316760 0.385350 -0.613021
O6    O     O_R   0.428760 0.500040 0.614660 -0.600218
O7    O     O_R   0.428750 0.500000 0.385310 -0.615999
O8    O     O_R   0.500000 0.683240 0.614650 -0.619896
O9    O     O_R   0.499990 0.683210 0.385310 -0.594800
O10   O     O_R   0.571250 0.500000 0.614690 -0.610369
O11   O     O_R   0.571240 0.499960 0.385340 -0.622708
O12   O     O_2   0.204097 0.354029 0.303239 -0.541598
Zn1   Zn    Zn3+2 0.500000 0.500020 0.653130 0.995316
Zn2   Zn    Zn3+2 0.500000 0.499980 0.346870 0.989923
I1    I     I_    0.359709 0.305496 0.746358 -0.330275
C55   C     C_2   0.970753 0.488696 0.896405 0.353949
H23   H     H_    0.006263 0.447164 0.910490 0.076383
O13   O     O_2   0.950194 0.532601 0.995059 -0.570652
I2    I     I_    0.546893 0.858353 0.188845 -0.384271
C56   C     C_2   0.498750 0.121882 0.865963 0.529656
H24   H     H_    0.534762 0.093821 0.898528 0.090433
O14   O     O_2   0.476393 0.198405 0.932745 -0.566318
I3    I     I_    0.630699 0.254542 0.695393 -0.364825
C57   C     C_2   0.033972 0.187631 0.246758 0.377401
H25   H     H_    0.051766 0.156389 0.154681 0.072262
O15   O     O_2   0.999445 0.127626 0.289978 -0.534412

loop_
_geom_bond_atom_site_label_1
_geom_bond_atom_site_label_2
_ccdc_geom_bond_type
C10   C27   A    
C21   C26   A    
C33   H4    S    
C49   H14   S    
C20   O2    S    
C41   C42   S    
C34   O10   A    
C52   C53   A    
C6    H18   S    
C26   N2    S    
C28   C29   A    
C46   H12   S    
C5    C6    A    
C9    C22   A    
C1    O1    A    
C15   C16   A    
O7    Zn2   S    
C21   H19   S    
C18   C19   A    
O9    Zn2   S    
C45   O12   S    
C34   O11   A    
C46   C47   A    
C46   N3    A    
C24   H3    S    
C55   O13   D    
C23   C40   S    
C23   O9    A    
C31   H2    S    
C42   H8    S    
C52   H1    S    
C16   C20   A    
C38   H7    S    
C49   H15   S    
C21   C22   A    
C27   C30   A    
C36   C41   A    
C47   N4    A    
C4    C7    A    
C47   H13   S    
C57   H25   S    
C4    C28   A    
C1    O5    A    
C7    C31   A    
C24   C25   A    
N3    Zn2   S    
C2    C54   A    
C8    C54   A    
C39   C40   A    
C16   C17   A    
C25   C26   A    
C5    C45   A    
C22   I3    S    
C35   H6    S    
C19   N2    A    
C50   H17   S    
C51   N1    A    
C37   C38   A    
O6    Zn1   S    
O1    Zn1   S    
O5    Zn2   S    
C39   I2    S    
C43   H11   S    
C55   H23   S    
C56   O14   D    
C17   C18   A    
C43   C56   S    
C54   I1    S    
C48   C49   S    
C6    C30   A    
C11   C32   A    
C23   O8    A    
C10   C14   A    
C9    C34   S    
C31   C35   A    
C53   H22   S    
C42   C43   S    
C19   O4    S    
C3    N1    S    
C51   O3    S    
C2    H9    S    
O10   Zn1   S    
C44   C50   S    
O8    Zn1   S    
C40   C41   A    
C12   O7    A    
C32   C55   S    
C44   N3    A    
C4    C5    A    
C10   C13   A    
C8    C53   A    
C42   H10   S    
C3    C52   A    
C9    C24   A    
C57   O15   D    
C1    C37   S    
C29   C35   A    
C12   O6    A    
C32   C33   A    
C48   N4    A    
C2    C3    A    
C50   H16   S    
C7    C51   A    
C14   H21   S    
O11   Zn2   S    
C11   C13   A    
C38   C39   A    
C20   N2    A    
C56   H24   S    
C18   C33   A    
C13   C17   A    
C44   C48   A    
C15   H20   S    
C11   C29   A    
C36   C37   A    
C49   C50   S    
C30   C57   S    
C27   C28   A    
C14   C15   A    
C36   C43   S    
C45   N1    A    
C25   H5    S    
N4    Zn1   S    
C8    C12   S    
