data_mof_unit_31796.cif
_audit_creation_date              2013-03-05T15:55:21-0500
_audit_creation_method            fapswitch 2.2
_symmetry_space_group_name_H-M    P1
_symmetry_Int_Tables_number       1
_space_group_crystal_system       triclinic
_cell_length_a                    14.698562
_cell_length_b                    14.719288
_cell_length_c                    33.294252
_cell_angle_alpha                 96.53497
_cell_angle_beta                  96.378379
_cell_angle_gamma                 61.15778
_cell_volume                      6255.6540071

loop_
_atom_site_label
_atom_site_type_symbol
_atom_site_description
_atom_site_fract_x
_atom_site_fract_y
_atom_site_fract_z
_atom_type_partial_charge
O1    O     O_R   0.679450 0.499830 0.463150 -0.533861
O2    O     O_R   0.480650 0.664000 0.464630 -0.524049
C1    C     C_R   0.390284 0.700871 0.446375 0.857809
O3    O     O_R   0.323930 0.675950 0.455370 -0.541223
O4    O     O_R   0.354700 0.475360 0.451930 -0.561038
C2    C     C_R   0.403486 0.383876 0.434769 0.793944
O5    O     O_R   0.494470 0.320860 0.448390 -0.514535
O6    O     O_R   0.662580 0.357570 0.460050 -0.523563
C3    C     C_R   0.702243 0.408657 0.447514 0.825964
O7    O     O_R   0.680900 0.502040 0.551870 -0.511691
O8    O     O_R   0.481990 0.666040 0.546870 -0.518502
C4    C     C_R   0.392261 0.704767 0.560878 0.840879
O9    O     O_R   0.325370 0.678160 0.544080 -0.538485
O10   O     O_R   0.356040 0.477400 0.534170 -0.557149
C5    C     C_R   0.406833 0.389256 0.549089 0.870626
O11   O     O_R   0.495910 0.323070 0.537100 -0.475123
O12   O     O_R   0.663920 0.359620 0.542290 -0.498366
C6    C     C_R   0.704411 0.411950 0.562272 0.885104
Cr1   Cr    Cr6+3 0.576280 0.580550 0.506370 1.067384
Cr2   Cr    Cr6+3 0.346780 0.572400 0.496520 0.981512
Cr3   Cr    Cr6+3 0.576960 0.347070 0.497150 1.112720
O13   O     O_3   0.500010 0.500010 0.500010 -0.375491
C7    C     C_R   0.363096 0.356443 0.394516 -0.177567
C8    C     C_R   0.276253 0.433923 0.373138 -0.175052
C9    C     C_R   0.267449 0.422071 0.330472 0.427184
C10   C     C_R   0.342226 0.332794 0.309861 -0.042395
C11   C     C_R   0.416960 0.247536 0.331322 -0.159314
C12   C     C_R   0.423285 0.257672 0.374145 -0.116217
C13   C     C_R   0.409919 0.271780 0.163133 0.401572
C14   C     C_R   0.395129 0.259254 0.120488 -0.163505
C15   C     C_R   0.206745 0.365734 0.126103 0.337851
C16   C     C_R   0.222796 0.376505 0.168185 0.341932
C17   C     C_R   0.323257 0.325909 0.186632 -0.181499
C18   C     C_1   0.335477 0.327509 0.230090 0.231308
C19   C     C_1   0.340251 0.329298 0.266393 0.165847
C20   C     C_R   0.292117 0.299662 0.102064 -0.328911
N1    N     N_R   0.737476 0.410901 0.221318 -0.187704
N2    N     N_R   0.729365 0.418716 0.261123 -0.259058
C21   C     C_R   0.761346 0.369717 0.410040 -0.132795
C22   C     C_R   0.818756 0.417725 0.399856 -0.118751
C23   C     C_R   0.835906 0.416387 0.358977 0.329877
C24   C     C_R   0.802659 0.361858 0.328938 -0.098830
C25   C     C_R   0.763285 0.297960 0.339611 -0.152568
C26   C     C_R   0.743648 0.300789 0.380509 -0.074300
N3    N     N_R   0.908311 0.307147 0.270413 -0.192187
N4    N     N_R   0.916427 0.299417 0.230651 -0.232462
C27   C     C_R   0.831095 0.350351 0.205430 0.651587
C28   C     C_R   0.814540 0.366390 0.286211 0.570518
C29   C     C_R   0.812661 0.412488 0.136996 0.328670
C30   C     C_R   0.837222 0.391310 0.096158 -0.084503
C31   C     C_R   0.914160 0.204465 0.104296 -0.094784
C32   C     C_R   0.880688 0.226889 0.144154 -0.099699
C33   C     C_R   0.839450 0.330230 0.161380 -0.070076
C34   C     C_R   0.899059 0.286727 0.081112 -0.162534
N5    N     N_R   0.367279 0.734138 0.217723 -0.212047
N6    N     N_R   0.376259 0.723502 0.257325 -0.207952
C35   C     C_R   0.369337 0.754321 0.408700 -0.118331
C36   C     C_R   0.293474 0.748953 0.380558 -0.174909
C37   C     C_R   0.288416 0.768518 0.340552 0.384802
C38   C     C_R   0.359248 0.795444 0.327589 -0.099296
C39   C     C_R   0.429696 0.812645 0.356124 -0.141294
C40   C     C_R   0.433098 0.794005 0.397370 -0.111020
N7    N     N_R   0.327218 0.900212 0.270532 -0.218687
N8    N     N_R   0.318317 0.910799 0.230963 -0.236476
C41   C     C_R   0.336909 0.828364 0.203921 0.601615
C42   C     C_R   0.356371 0.806331 0.284290 0.641040
C43   C     C_R   0.271456 0.808653 0.131299 -0.091872
C44   C     C_R   0.261286 0.833715 0.090495 -0.085394
C45   C     C_R   0.369405 0.918457 0.109431 0.364355
C46   C     C_R   0.381084 0.890939 0.148730 -0.128617
C47   C     C_R   0.329004 0.841708 0.160528 -0.064027
C48   C     C_R   0.301788 0.898304 0.080466 -0.126899
H1    H     H_    0.241283 0.722811 0.388912 0.218137
H2    H     H_    0.429462 0.911224 0.170896 0.202560
N9    N     N_R   0.343762 0.409819 0.775916 -0.229457
N10   N     N_R   0.352603 0.412572 0.736823 -0.212198
C49   C     C_R   0.370170 0.374958 0.586264 -0.172325
C50   C     C_R   0.304036 0.465244 0.608964 -0.246141
C51   C     C_R   0.283129 0.461019 0.647999 0.399578
C52   C     C_R   0.327624 0.365180 0.665397 -0.132135
C53   C     C_R   0.388698 0.271506 0.642155 -0.154221
C54   C     C_R   0.408537 0.276984 0.602086 0.343673
N11   N     N_R   0.262187 0.317688 0.719678 -0.241214
N12   N     N_R   0.253349 0.314933 0.758779 -0.266306
C55   C     C_R   0.294109 0.360801 0.787436 0.547210
C56   C     C_R   0.312998 0.365608 0.708168 0.666404
C57   C     C_R   0.232811 0.426504 0.857593 -0.095913
C58   C     C_R   0.231277 0.404657 0.897913 -0.095753
C59   C     C_R   0.360644 0.224533 0.882879 -0.116974
C60   C     C_R   0.364796 0.244713 0.843523 -0.087945
C61   C     C_R   0.296881 0.344606 0.830173 -0.054566
C62   C     C_R   0.290795 0.300975 0.909436 -0.080967
H3    H     H_    0.272399 0.541208 0.597295 0.182336
H4    H     H_    0.408648 0.146025 0.892113 0.216811
H5    H     H_    0.011089 0.122664 0.870649 0.170083
C63   C     C_R   0.764900 0.374619 0.601669 -0.222095
C64   C     C_R   0.803537 0.435204 0.626396 0.343094
C65   C     C_R   0.829259 0.419419 0.668123 -0.133797
C66   C     C_R   0.824682 0.337103 0.684165 -0.085739
C67   C     C_R   0.802488 0.266188 0.658455 -0.085297
C68   C     C_R   0.773944 0.284247 0.617183 0.260121
C69   C     C_R   0.929100 0.211028 0.820085 0.415776
C70   C     C_R   0.952925 0.198497 0.861179 -0.229220
C71   C     C_R   0.835268 0.382444 0.876819 -0.118230
C72   C     C_R   0.809492 0.395765 0.834602 -0.148075
C73   C     C_R   0.859797 0.309401 0.806441 -0.004097
C74   C     C_1   0.846361 0.321034 0.763459 0.148646
C75   C     C_1   0.836852 0.328767 0.727471 0.095954
C76   C     C_R   0.910629 0.283335 0.889695 -0.100317
C77   C     C_R   0.373013 0.764550 0.601437 -0.024784
C78   C     C_R   0.274738 0.803995 0.617877 -0.131112
C79   C     C_R   0.267969 0.817519 0.660416 -0.121325
C80   C     C_R   0.358753 0.794953 0.686020 0.072940
C81   C     C_R   0.452838 0.771400 0.669577 -0.125365
C82   C     C_R   0.457823 0.762925 0.627103 -0.157747
C83   C     C_R   0.410448 0.846928 0.834362 0.337522
C84   C     C_R   0.390258 0.882953 0.875111 0.336514
C85   C     C_R   0.226295 0.877827 0.864249 -0.252206
C86   C     C_R   0.246997 0.841029 0.824124 0.420742
C87   C     C_R   0.336734 0.830080 0.808574 -0.162950
C88   C     C_1   0.347643 0.812085 0.765579 0.236883
C89   C     C_1   0.353562 0.802541 0.729456 0.151809
C90   C     C_R   0.294349 0.904114 0.889755 -0.260960
H6    H     H_    0.153725 0.890453 0.874815 0.207239
O14   O     O_R   0.170070 0.978950 0.027680 -0.529028
O15   O     O_R   0.001760 0.175230 0.026640 -0.557790
C91   C     C_R   0.961770 0.265060 0.045421 0.874223
O16   O     O_R   0.984760 0.333570 0.037150 -0.494094
O17   O     O_R   0.183410 0.309240 0.041890 -0.493977
C92   C     C_R   0.272791 0.260827 0.060184 0.868134
O18   O     O_R   0.340240 0.172500 0.045430 -0.526273
O19   O     O_R   0.309670 0.000990 0.032050 -0.505144
C93   C     C_R   0.260457 0.958488 0.043669 0.889059
O20   O     O_R   0.168330 0.982130 0.939200 -0.550514
O21   O     O_R   0.000140 0.178170 0.944610 -0.547041
C94   C     C_R   0.961199 0.267881 0.931057 0.857428
O22   O     O_R   0.983010 0.336750 0.948660 -0.530555
O23   O     O_R   0.181800 0.312190 0.959860 -0.526615
C95   C     C_R   0.271509 0.264426 0.945595 0.808858
O24   O     O_R   0.338500 0.175680 0.956950 -0.538074
O25   O     O_R   0.308050 0.003930 0.950020 -0.502288
C96   C     C_R   0.257218 0.963023 0.929134 0.875067
Cr4   Cr    Cr6+3 0.087320 0.083240 0.984860 0.984932
Cr5   Cr    Cr6+3 0.087720 0.316210 0.996740 1.066227
Cr6   Cr    Cr6+3 0.317350 0.090340 0.995890 1.074491
O26   O     O_3   0.164130 0.163270 0.992500 -0.368438
C97   C     C_2   0.485751 0.208107 0.094704 0.663416
H7    H     H_    0.477479 0.232024 0.064270 -0.002342
O27   O     O_2   0.569106 0.137587 0.106409 -0.439765
C98   C     C_2   0.699711 0.235345 0.391178 0.597651
H8    H     H_    0.632155 0.236823 0.373788 -0.026951
O28   O     O_2   0.742054 0.175565 0.418080 -0.470513
C99   C     C_2   0.797389 0.479240 0.069580 0.553196
H9    H     H_    0.784420 0.555630 0.081939 0.132530
O29   O     O_2   0.775152 0.467927 0.033581 -0.488675
Cl1   Cl    Cl    0.899105 0.483397 0.344812 -0.525647
C100  C     C_2   0.744332 0.227898 0.307518 0.443981
H10   H     H_    0.722322 0.249826 0.276522 0.121820
O30   O     O_2   0.757027 0.143023 0.314898 -0.481455
Cl2   Cl    Cl    0.750603 0.542495 0.158220 -0.511298
C101  C     C_2   0.964080 0.095358 0.086900 0.387490
H11   H     H_    0.932701 0.074776 0.058394 0.091275
O31   O     O_2   0.042651 0.028833 0.103524 -0.542309
C102  C     C_2   0.885586 0.143020 0.167312 0.512864
H12   H     H_    0.941727 0.062306 0.161210 0.127556
O32   O     O_2   0.823773 0.162974 0.192848 -0.483393
C103  C     C_2   0.504212 0.814242 0.427956 0.490363
H13   H     H_    0.579608 0.800340 0.419906 0.036407
O33   O     O_2   0.477769 0.849604 0.462218 -0.462163
C104  C     C_2   0.206438 0.794326 0.058888 0.465056
H14   H     H_    0.141441 0.785039 0.066211 0.061872
O34   O     O_2   0.235396 0.769209 0.024465 -0.501608
Cl3   Cl    Cl    0.536009 0.222348 0.187974 -0.475026
Cl4   Cl    Cl    0.192369 0.756207 0.307111 -0.421139
C105  C     C_2   0.499742 0.849573 0.343391 0.475116
H15   H     H_    0.520548 0.900402 0.363879 0.041140
O35   O     O_2   0.536961 0.821874 0.310372 -0.469957
C106  C     C_2   0.219713 0.750958 0.142993 0.492577
H16   H     H_    0.217669 0.688531 0.122856 0.040170
O36   O     O_2   0.175963 0.774693 0.174568 -0.455467
Cl5   Cl    Cl    0.439100 0.982740 0.100079 -0.522832
Cl6   Cl    Cl    0.483717 0.161418 0.572343 -0.496176
C107  C     C_2   0.166295 0.489587 0.927370 0.425985
H17   H     H_    0.091842 0.552489 0.917412 0.041026
O37   O     O_2   0.196788 0.491419 0.962952 -0.497655
Cl7   Cl    Cl    0.202476 0.579156 0.674775 -0.558350
C108  C     C_2   0.436209 0.168030 0.659426 0.487230
H18   H     H_    0.450385 0.098984 0.639860 0.128019
O38   O     O_2   0.463203 0.157764 0.695369 -0.520361
C109  C     C_2   0.488549 0.148352 0.309244 0.474275
H19   H     H_    0.568308 0.102837 0.320894 0.078240
O39   O     O_2   0.458831 0.115855 0.277967 -0.466973
C110  C     C_2   0.168438 0.534848 0.844761 0.459475
H20   H     H_    0.152058 0.600644 0.866549 0.056595
O40   O     O_2   0.131389 0.552187 0.810049 -0.462331
C111  C     C_2   0.439866 0.159691 0.816465 0.496058
H21   H     H_    0.448888 0.174168 0.786329 0.093396
O41   O     O_2   0.493703 0.071935 0.827665 -0.456469
Cl8   Cl    Cl    0.994416 0.101783 0.786349 -0.470568
C112  C     C_2   0.804714 0.174506 0.674465 0.548561
H22   H     H_    0.751904 0.145642 0.661235 0.106064
O42   O     O_2   0.867270 0.128428 0.701828 -0.454492
Cl9   Cl    Cl    0.757317 0.187502 0.585056 -0.523102
Cl10  Cl    Cl    0.830905 0.523016 0.604445 -0.493299
C113  C     C_2   0.730623 0.499006 0.820079 0.455842
H23   H     H_    0.720123 0.570519 0.836805 0.082908
O43   O     O_2   0.674967 0.505487 0.789269 -0.479822
C114  C     C_2   0.781186 0.469954 0.907361 0.471492
H24   H     H_    0.756567 0.549512 0.901341 0.051156
O44   O     O_2   0.761833 0.453862 0.939746 -0.471652
C115  C     C_2   0.486623 0.163758 0.397522 0.509630
H25   H     H_    0.556776 0.099003 0.386147 0.029931
O45   O     O_2   0.458397 0.156432 0.429597 -0.470690
C116  C     C_2   0.859386 0.489174 0.695672 0.601316
H26   H     H_    0.909657 0.460191 0.722778 0.037777
O46   O     O_2   0.825535 0.580398 0.689410 -0.463957
Cl11  Cl    Cl    0.486135 0.901516 0.906492 -0.495556
Cl12  Cl    Cl    0.526874 0.826414 0.815192 -0.447024
C117  C     C_2   0.546373 0.756566 0.696529 0.467008
H27   H     H_    0.595663 0.787596 0.689208 0.088985
O47   O     O_2   0.571228 0.706452 0.726357 -0.460775
C118  C     C_2   0.552293 0.751958 0.610117 0.485476
H28   H     H_    0.629008 0.703546 0.623924 0.093788
O48   O     O_2   0.544528 0.800588 0.581410 -0.453249
C119  C     C_2   0.178077 0.838157 0.590632 0.490345
H29   H     H_    0.111984 0.832043 0.598713 0.048242
O49   O     O_2   0.170447 0.876664 0.558991 -0.473370
Cl13  Cl    Cl    0.155781 0.814260 0.793493 -0.441200
C120  C     C_2   0.165690 0.855848 0.677983 0.531829
H30   H     H_    0.112014 0.827890 0.665088 0.089439
O50   O     O_2   0.139610 0.920715 0.706655 -0.444211
C121  C     C_2   0.193068 0.523114 0.395774 0.584784
H31   H     H_    0.176078 0.512619 0.425284 0.043613
O51   O     O_2   0.143973 0.608854 0.382429 -0.458205
Cl14  Cl    Cl    0.114971 0.450646 0.198338 -0.387729
Cl15  Cl    Cl    0.077046 0.435106 0.105413 -0.511568
Cl16  Cl    Cl    0.162274 0.517642 0.302023 -0.361455
C122  C     C_2   0.862367 0.468401 0.431608 0.516244
H32   H     H_    0.874581 0.531829 0.424745 0.104402
O52   O     O_2   0.888488 0.437281 0.465626 -0.485516

loop_
_geom_bond_atom_site_label_1
_geom_bond_atom_site_label_2
_geom_bond_distance
_ccdc_geom_bond_type
Cr4   O26   1.969288 S    
C57   C58   1.420562 A    
C109  H19   1.083528 S    
C51   Cl7   1.765489 S    
C57   C61   1.420821 A    
C69   C70   1.384662 A    
C6    C63   1.498845 S    
C23   C24   1.403713 A    
C82   C118  1.487082 S    
C78   C79   1.415436 A    
C39   C105  1.491507 S    
C81   C117  1.491290 S    
N5    N6    1.329942 A    
C37   Cl4   1.765554 S    
C4    C77   1.500703 S    
Cr6   O26   1.968683 S    
C60   C61   1.410693 A    
C14   C97   1.489103 S    
C103  O33   1.221228 D    
O17   Cr5   1.916929 S    
C5    C49   1.477705 S    
C49   C50   1.403729 A    
C32   C33   1.413926 A    
C12   C115  1.491875 S    
C66   C75   1.444899 S    
O8    Cr1   1.915432 S    
C10   C11   1.411304 A    
O15   C91   1.276103 A    
C72   C73   1.420451 A    
N11   N12   1.329659 A    
O19   Cr6   1.930202 S    
C102  H12   1.081730 S    
C97   O27   1.220427 D    
N1    N2    1.330787 A    
O7    C6    1.278131 A    
C80   C81   1.412379 A    
O2    C1    1.276089 A    
C107  O37   1.221253 D    
O4    C2    1.279931 A    
C52   C53   1.422365 A    
C116  O46   1.220692 D    
O20   C96   1.272693 A    
C104  H14   1.084502 S    
C50   H3    1.083744 S    
C5    O11   1.272656 A    
C65   C66   1.411306 A    
C64   C65   1.413865 A    
O15   Cr4   1.914950 S    
C3    C21   1.495849 S    
C83   C84   1.408486 A    
C18   C19   1.200909 T    
C59   H4    1.083399 S    
C77   C78   1.420364 A    
C79   C80   1.414837 A    
C22   C122  1.488666 S    
N5    C41   1.355072 A    
O20   Cr4   2.030095 S    
C85   C86   1.391866 A    
C44   C104  1.488974 S    
N9    C55   1.354101 A    
C100  H10   1.083854 S    
C80   C89   1.445395 S    
C97   H7    1.085340 S    
C13   C17   1.403507 A    
C114  H24   1.082098 S    
C110  O40   1.220871 D    
C26   C98   1.483303 S    
C46   H2    1.085130 S    
C52   C56   1.462440 S    
C7    C8    1.419503 A    
N6    C42   1.357651 A    
C29   Cl2   1.773309 S    
C84   Cl11  1.769638 S    
C46   C47   1.390035 A    
C11   C109  1.491442 S    
C99   O29   1.221128 D    
C15   C20   1.424627 A    
N2    C28   1.357225 A    
O25   Cr6   1.909967 S    
C27   C33   1.469638 S    
C23   Cl1   1.773539 S    
O21   Cr4   1.925491 S    
C40   C103  1.487671 S    
C65   C116  1.491846 S    
N7    C42   1.353567 A    
C38   C42   1.462269 S    
C37   C38   1.401492 A    
C100  O30   1.220953 D    
C63   C68   1.422848 A    
C76   C94   1.476976 S    
C45   C46   1.381704 A    
C71   C72   1.424940 A    
C101  O31   1.220341 D    
C120  H30   1.083465 S    
H5    C70   1.084321 S    
C86   Cl13  1.762754 S    
C119  H29   1.082675 S    
C35   C36   1.401260 A    
C113  O43   1.221098 D    
C55   C61   1.462222 S    
C95   O24   1.267906 A    
C122  O52   1.221409 D    
O1    Cr1   2.034530 S    
N7    N8    1.328796 A    
C43   C44   1.421203 A    
C78   C119  1.490800 S    
O10   Cr2   1.929414 S    
O21   C94   1.274332 A    
Cr1   O13   1.969606 S    
O1    C3    1.276784 A    
C8    C9    1.410552 A    
C57   C110  1.493481 S    
C105  O35   1.220858 D    
C68   Cl9   1.778396 S    
C103  H13   1.084702 S    
O4    Cr2   1.911303 S    
C116  H26   1.085262 S    
O6    C3    1.275930 A    
C58   C107  1.487951 S    
C85   H6    1.083201 S    
C35   C40   1.420802 A    
C9    C10   1.405218 A    
C41   C47   1.464448 S    
C30   C99   1.488416 S    
C53   C54   1.415937 A    
C79   C120  1.490795 S    
C31   C32   1.414467 A    
C38   C39   1.420748 A    
C45   C48   1.418500 A    
N9    N10   1.329386 A    
C107  H17   1.084650 S    
C13   C14   1.416953 A    
C20   C92   1.496291 S    
C117  O47   1.220637 D    
C105  H15   1.084799 S    
C9    Cl16  1.773624 S    
O7    Cr1   2.039953 S    
C44   C48   1.425565 A    
C58   C62   1.418506 A    
C63   C64   1.418867 A    
C121  O51   1.220091 D    
O12   C6    1.275858 A    
C24   C28   1.465153 S    
C7    C12   1.422776 A    
N12   C55   1.357089 A    
C59   C62   1.400916 A    
C118  O48   1.221301 D    
O16   Cr5   2.041267 S    
C88   C89   1.202840 T    
C2    O5    1.272279 A    
C32   C102  1.497408 S    
C31   C101  1.482844 S    
C67   C112  1.491182 S    
Cr5   O26   1.967904 S    
C22   C23   1.407732 A    
C115  O45   1.221485 D    
O22   Cr5   2.033843 S    
Cr2   O13   1.968804 S    
C110  H20   1.084464 S    
O25   C96   1.275782 A    
C25   C26   1.414931 A    
C98   O28   1.221085 D    
C51   C52   1.401778 A    
N3    N4    1.329470 A    
N1    C27   1.356048 A    
C24   C25   1.411655 A    
C74   C75   1.202755 T    
C83   Cl12  1.768418 S    
C91   O16   1.272623 A    
C1    C35   1.480662 S    
C21   C22   1.421184 A    
C87   C88   1.438283 S    
O17   C92   1.273798 A    
C15   Cl15  1.772493 S    
N3    C28   1.354190 A    
O14   C93   1.277683 A    
C69   C73   1.401604 A    
C117  H27   1.084790 S    
C113  H23   1.082083 S    
N4    C27   1.357342 A    
C109  O39   1.221110 D    
O9    Cr2   2.026513 S    
O2    Cr1   1.924726 S    
C50   C51   1.383109 A    
C15   C16   1.398554 A    
C13   Cl3   1.773027 S    
C111  H21   1.084072 S    
C25   C100  1.497684 S    
C43   C106  1.488438 S    
O6    Cr3   1.926125 S    
O24   Cr6   2.047532 S    
C106  O36   1.220892 D    
C86   C87   1.400517 A    
O11   Cr3   2.044080 S    
C81   C82   1.412369 A    
C21   C26   1.426341 A    
C72   C113  1.493334 S    
C14   C20   1.424940 A    
C34   C91   1.495621 S    
C54   Cl6   1.772408 S    
C98   H8    1.084428 S    
C66   C67   1.411318 A    
C8    C121  1.489052 S    
O18   Cr6   2.027669 S    
C70   C76   1.399851 A    
C31   C34   1.423598 A    
C16   C17   1.397819 A    
C102  O32   1.221438 D    
C92   O18   1.278179 A    
C36   C37   1.381054 A    
C108  H18   1.084361 S    
C30   C34   1.422148 A    
C114  O44   1.221025 D    
C101  H11   1.085077 S    
C69   Cl8   1.762962 S    
N8    C41   1.357832 A    
O5    Cr3   2.031224 S    
C48   C93   1.489030 S    
C71   C76   1.420107 A    
C104  O34   1.221277 D    
C49   C54   1.413310 A    
C112  H22   1.084733 S    
C29   C33   1.404589 A    
C2    C7    1.497639 S    
C77   C82   1.422663 A    
C90   C96   1.487402 S    
C122  H32   1.084176 S    
C67   C68   1.407944 A    
C119  O49   1.221452 D    
C17   C18   1.437013 S    
O19   C93   1.272060 A    
C43   C47   1.416202 A    
C85   C90   1.407604 A    
C71   C114  1.489510 S    
C84   C90   1.420064 A    
C39   C40   1.421577 A    
O12   Cr3   1.914260 S    
C108  O38   1.220727 D    
C111  O41   1.221335 D    
O23   C95   1.275647 A    
C115  H25   1.082379 S    
O3    Cr2   2.047484 S    
C83   C87   1.405951 A    
C10   C19   1.439842 S    
O14   Cr4   2.044464 S    
N11   C56   1.354821 A    
C60   C111  1.492386 S    
C4    O9    1.277630 A    
C36   H1    1.081889 S    
C120  O50   1.220889 D    
C29   C30   1.407222 A    
C73   C74   1.441038 S    
N10   C56   1.357104 A    
C45   Cl5   1.764890 S    
C11   C12   1.413926 A    
O10   C5    1.271677 A    
C94   O22   1.269015 A    
O23   Cr5   1.924902 S    
C64   Cl10  1.774417 S    
C59   C60   1.390260 A    
Cr3   O13   1.968421 S    
C62   C95   1.479704 S    
C118  H28   1.083855 S    
C53   C108  1.490665 S    
C112  O42   1.219941 D    
C1    O3    1.269060 A    
O8    C4    1.277789 A    
C121  H31   1.085290 S    
C106  H16   1.084749 S    
C99   H9    1.084094 S    
C16   Cl14  1.773736 S    
