data_mof_unit_10985.cif
_audit_creation_date              2012-12-10T17:01:13-0500
_audit_creation_method            fapswitch 2.2
_symmetry_space_group_name_H-M    P1
_symmetry_Int_Tables_number       1
_space_group_crystal_system       triclinic
_cell_length_a                    15.821026
_cell_length_b                    15.588342
_cell_length_c                    9.886106
_cell_angle_alpha                 90.122502
_cell_angle_beta                  60.707236
_cell_angle_gamma                 91.174804
_cell_volume                      2125.84940396

loop_
_atom_site_label
_atom_site_type_symbol
_atom_type_description
_atom_site_fract_x
_atom_site_fract_y
_atom_site_fract_z
_atom_type_partial_charge
C1    C     C_R   0.371999 0.116638 0.560184 0.867539
C2    C     C_R   0.628171 0.883570 0.439849 0.869953
C3    C     C_R   0.629786 0.116501 0.438381 0.880232
C4    C     C_R   0.375429 0.878604 0.558461 0.865194
C5    C     C_R   0.871999 0.616638 0.560183 0.867536
C6    C     C_R   0.128171 0.383570 0.439849 0.869965
C7    C     C_R   0.129786 0.616502 0.438382 0.880252
C8    C     C_R   0.875428 0.378605 0.558462 0.865182
C9    C     C_2   0.509505 0.005266 0.917992 -0.045495
C10   C     C_2   0.490360 0.995229 0.082250 -0.023335
C11   C     C_2   0.009505 0.505266 0.917992 -0.045509
C12   C     C_2   0.990360 0.495230 0.082250 -0.023342
C13   C     C_2   0.313734 0.802350 0.580738 -0.431344
C14   C     C_2   0.706044 0.180436 0.405030 -0.442339
C15   C     C_2   0.705479 0.824700 0.407908 -0.438397
C16   C     C_2   0.295074 0.176098 0.592529 -0.433576
C17   C     C_2   0.813732 0.302352 0.580741 -0.431320
C18   C     C_2   0.206042 0.680438 0.405032 -0.442339
C19   C     C_2   0.205480 0.324700 0.407908 -0.438386
C20   C     C_2   0.795074 0.676099 0.592529 -0.433579
C21   C     C_2   0.321203 0.756738 0.458806 0.425048
C22   C     C_2   0.752470 0.184665 0.488003 0.421339
C23   C     C_2   0.710815 0.780965 0.521194 0.415953
C24   C     C_2   0.289954 0.220230 0.479514 0.415267
C25   C     C_2   0.821198 0.256741 0.458810 0.425054
C26   C     C_2   0.252475 0.684661 0.487996 0.421338
C27   C     C_2   0.210815 0.280965 0.521194 0.415947
C28   C     C_2   0.789953 0.720229 0.479514 0.415265
Cu1   Cu    Cu3+1 0.522650 0.000000 0.349410 0.953672
Cu2   Cu    Cu3+1 0.477350 1.000000 0.650590 0.953470
Cu3   Cu    Cu3+1 0.022650 0.500000 0.349410 0.953671
Cu4   Cu    Cu3+1 0.977350 0.500000 0.650590 0.953473
H1    H     H_    0.725449 0.224873 0.309661 0.145815
H2    H     H_    0.262290 0.782180 0.698325 0.139553
H3    H     H_    0.239446 0.180939 0.713029 0.148846
H4    H     H_    0.761280 0.820100 0.287511 0.150836
H5    H     H_    0.225442 0.724880 0.309673 0.145799
H6    H     H_    0.762289 0.282183 0.698328 0.139560
H7    H     H_    0.739449 0.680943 0.713030 0.148851
H8    H     H_    0.261282 0.320103 0.287511 0.150835
H9    H     H_    0.417296 0.982348 0.174040 0.153169
H10   H     H_    0.582642 0.017458 0.826132 0.175494
H11   H     H_    0.917296 0.482349 0.174040 0.153173
H12   H     H_    0.082643 0.517456 0.826131 0.175498
N1    N     N_2   0.443290 1.000000 0.876860 -0.180230
N2    N     N_2   0.556710 0.000000 0.123140 -0.181011
N3    N     N_2   0.943290 0.500000 0.876860 -0.180230
N4    N     N_2   0.056710 0.500000 0.123140 -0.181012
O1    O     O_R   0.422430 0.089640 0.419570 -0.536349
O2    O     O_R   0.577570 0.910360 0.580430 -0.528308
O3    O     O_R   0.577570 0.089640 0.580430 -0.535639
O4    O     O_R   0.422430 0.910360 0.419570 -0.523089
O5    O     O_R   0.922430 0.589640 0.419570 -0.536347
O6    O     O_R   0.077570 0.410360 0.580430 -0.528305
O7    O     O_R   0.077570 0.589640 0.580430 -0.535641
O8    O     O_R   0.922430 0.410360 0.419570 -0.523092
O9    O     O_R   0.384170 0.089650 0.673910 -0.608565
O10   O     O_R   0.615830 0.910350 0.326090 -0.604074
O11   O     O_R   0.615830 0.089650 0.326090 -0.601989
O12   O     O_R   0.384170 0.910350 0.673910 -0.600380
O13   O     O_R   0.884170 0.589650 0.673910 -0.608566
O14   O     O_R   0.115830 0.410350 0.326090 -0.604080
O15   O     O_R   0.115830 0.589650 0.326090 -0.601985
O16   O     O_R   0.884170 0.410350 0.673910 -0.600381
C29   C     C_3   0.657083 0.023321 0.015147 -0.142890
C30   C     C_3   0.670331 0.120537 0.983965 -0.321092
C31   C     C_3   0.775306 0.149218 0.927529 -0.864537
H13   H     H_    0.793233 0.142396 0.022447 0.250259
H14   H     H_    0.825957 0.110344 0.827490 0.256867
H15   H     H_    0.785538 0.217404 0.890972 0.253815
H16   H     H_    0.649393 0.137837 0.895904 0.240450
H17   H     H_    0.622461 0.156389 0.090724 0.247558
H18   H     H_    0.701256 0.003463 0.068457 0.205869
H19   H     H_    0.685713 0.986875 0.906083 0.098594
C32   C     C_3   0.341518 0.982814 0.987059 -0.145257
C33   C     C_3   0.320513 0.887154 0.029425 -0.345522
C34   C     C_3   0.211572 0.867702 0.109419 -0.899092
H20   H     H_    0.173731 0.904123 0.219191 0.254414
H21   H     H_    0.181856 0.885098 0.032222 0.256085
H22   H     H_    0.197159 0.798316 0.136495 0.257630
H23   H     H_    0.357515 0.847468 0.923875 0.251946
H24   H     H_    0.348416 0.868536 0.108141 0.244527
H25   H     H_    0.315835 0.022213 0.092248 0.100029
H26   H     H_    0.298639 0.003213 0.931855 0.207281
C35   C     C_3   0.157084 0.523319 0.015147 -0.142888
C36   C     C_3   0.170335 0.620535 0.983964 -0.321086
C37   C     C_3   0.275307 0.649216 0.927554 -0.864568
H27   H     H_    0.293215 0.642407 0.022494 0.250267
H28   H     H_    0.325966 0.610331 0.827540 0.256846
H29   H     H_    0.285547 0.717398 0.890970 0.253819
H30   H     H_    0.149409 0.637833 0.895887 0.240449
H31   H     H_    0.122456 0.656387 0.090717 0.247559
H32   H     H_    0.201256 0.503459 0.068457 0.205873
H33   H     H_    0.185713 0.486872 0.906083 0.098591
C38   C     C_3   0.841518 0.482814 0.987058 -0.145257
C39   C     C_3   0.820514 0.387154 0.029425 -0.345527
C40   C     C_3   0.711572 0.367702 0.109423 -0.899088
H34   H     H_    0.673733 0.404123 0.219194 0.254415
H35   H     H_    0.681854 0.385098 0.032228 0.256083
H36   H     H_    0.697160 0.298316 0.136498 0.257628
H37   H     H_    0.857514 0.347468 0.923875 0.251945
H38   H     H_    0.848418 0.368536 0.108139 0.244532
H39   H     H_    0.815835 0.522213 0.092248 0.100031
H40   H     H_    0.798639 0.503212 0.931855 0.207281
O17   O     O_3   0.734334 0.124287 0.602172 -0.584877
C41   C     C_3   0.816891 0.073178 0.550282 -0.384900
H41   H     H_    0.880640 0.111397 0.537265 0.163756
H42   H     H_    0.834149 0.040574 0.439614 0.160267
H43   H     H_    0.801807 0.022550 0.637993 0.176220
O18   O     O_3   0.382876 0.784062 0.307189 -0.578293
C42   C     C_3   0.446518 0.717928 0.223019 -0.338226
H44   H     H_    0.407637 0.663943 0.201765 0.152139
H45   H     H_    0.486194 0.694576 0.282284 0.152788
H46   H     H_    0.501313 0.744055 0.108200 0.198523
O19   O     O_3   0.362286 0.214664 0.325933 -0.570606
C43   C     C_3   0.330651 0.156969 0.248798 -0.310372
H47   H     H_    0.267836 0.180747 0.240200 0.132520
H48   H     H_    0.310394 0.093083 0.307188 0.160766
H49   H     H_    0.390869 0.149258 0.128781 0.191747
O20   O     O_3   0.638492 0.786504 0.674911 -0.569866
C44   C     C_3   0.670140 0.844250 0.752010 -0.322068
H50   H     H_    0.688202 0.908362 0.695156 0.172229
H51   H     H_    0.734318 0.821414 0.757615 0.132338
H52   H     H_    0.610760 0.850999 0.872974 0.191707
O21   O     O_3   0.234342 0.624276 0.602155 -0.584877
C45   C     C_3   0.316923 0.573203 0.550305 -0.384923
H53   H     H_    0.380630 0.611446 0.537398 0.163786
H54   H     H_    0.334252 0.540626 0.439587 0.160265
H55   H     H_    0.301832 0.522555 0.637986 0.176231
O22   O     O_3   0.882868 0.284066 0.307192 -0.578305
C46   C     C_3   0.946526 0.217939 0.223035 -0.338217
H56   H     H_    0.907658 0.163932 0.201810 0.152129
H57   H     H_    0.986218 0.194618 0.282297 0.152798
H58   H     H_    0.001308 0.244062 0.108204 0.198520
O23   O     O_3   0.862283 0.714662 0.325932 -0.570607
C47   C     C_3   0.830646 0.656966 0.248801 -0.310377
H59   H     H_    0.767830 0.680744 0.240208 0.132522
H60   H     H_    0.810391 0.593081 0.307191 0.160768
H61   H     H_    0.890863 0.649256 0.128782 0.191748
O24   O     O_3   0.138489 0.286501 0.674911 -0.569870
C48   C     C_3   0.170131 0.344248 0.752016 -0.322033
H62   H     H_    0.188219 0.408356 0.695138 0.172219
H63   H     H_    0.234291 0.321401 0.757668 0.132340
H64   H     H_    0.110735 0.351014 0.872968 0.191707

loop_
_geom_bond_atom_site_label_1
_geom_bond_atom_site_label_2
_ccdc_geom_bond_type
C37   H27   S    
C9    N1    D    
C45   H53   S    
C39   H38   S    
C28   O23   S    
Cu2   N1    S    
C11   N3    D    
C38   C39   S    
C18   C26   D    
C24   C27   S    
C7    O7    A    
C12   N4    D    
C46   H58   S    
C32   H25   S    
C8    O8    A    
C14   H1    S    
C40   H34   S    
O23   C47   S    
C5    C20   S    
Cu1   O1    S    
C34   H20   S    
C38   H40   S    
C6    C19   S    
C9    H10   S    
C4    O4    A    
C5    O5    A    
C18   H5    S    
Cu4   O13   S    
C12   H11   S    
C36   H30   S    
C48   H63   S    
C16   H3    S    
C32   H26   S    
C41   H41   S    
O19   C43   S    
Cu2   O9    S    
C29   H18   S    
C43   H47   S    
C4    C13   S    
O18   C42   S    
C44   H52   S    
C2    O2    A    
C35   H32   S    
C30   H17   S    
Cu1   O11   S    
C22   C25   S    
Cu2   O12   S    
C10   N2    D    
Cu3   O8    S    
C19   C27   D    
C9    C10   S    
Cu4   O7    S    
C15   C23   D    
C30   C31   S    
Cu2   O2    S    
C16   C24   D    
C39   H37   S    
C10   H9    S    
Cu3   O14   S    
C6    O6    A    
C47   H61   S    
C25   O22   S    
Cu4   O6    S    
C40   H35   S    
C21   C26   S    
C38   H39   S    
C21   O18   S    
C34   H21   S    
C5    O13   A    
C31   H13   S    
Cu2   O3    S    
Cu3   O15   S    
C33   C34   S    
Cu4   O16   S    
N2    C29   S    
C47   H60   S    
C48   H64   S    
C33   H24   S    
C23   O20   S    
C20   H7    S    
C3    O3    A    
C36   C37   S    
C20   C28   D    
C45   H55   S    
C35   C36   S    
Cu3   O5    S    
C29   H19   S    
C31   H14   S    
C26   O21   S    
C32   C33   S    
Cu1   Cu2   S    
C1    O9    A    
C35   H33   S    
C30   H16   S    
C7    C18   S    
C39   C40   S    
C4    O12   A    
C13   C21   D    
C11   H12   S    
C42   H45   S    
C1    C16   S    
C23   C28   S    
O24   C48   S    
C2    C15   S    
C7    O15   A    
C44   H50   S    
C3    C14   S    
C8    O16   A    
Cu3   N4    S    
C37   H28   S    
O21   C45   S    
Cu4   N3    S    
C46   H56   S    
C15   H4    S    
C40   H36   S    
O20   C44   S    
C34   H22   S    
C45   H54   S    
C42   H44   S    
Cu3   Cu4   S    
C8    C17   S    
C47   H59   S    
C46   H57   S    
C33   H23   S    
C11   C12   S    
C2    O10   A    
C22   O17   S    
O17   C41   S    
C27   O24   S    
C43   H49   S    
Cu1   N2    S    
N1    C32   S    
C31   H15   S    
C17   C25   D    
C6    O14   A    
O22   C46   S    
C13   H2    S    
C36   H31   S    
C48   H62   S    
C14   C22   D    
C41   H42   S    
C43   H48   S    
C42   H46   S    
C17   H6    S    
C44   H51   S    
C19   H8    S    
Cu1   O10   S    
C24   O19   S    
C29   C30   S    
C37   H29   S    
N3    C38   S    
N4    C35   S    
C1    O1    A    
Cu1   O4    S    
C41   H43   S    
C3    O11   A    
