data_mof_unit_63955.cif
_audit_creation_date              2012-12-11T17:41:36-0500
_audit_creation_method            fapswitch 2.2
_symmetry_space_group_name_H-M    P1
_symmetry_Int_Tables_number       1
_space_group_crystal_system       triclinic
_cell_length_a                    7.202355
_cell_length_b                    23.875519
_cell_length_c                    26.198548
_cell_angle_alpha                 90.0
_cell_angle_beta                  89.999945
_cell_angle_gamma                 89.999886
_cell_volume                      4505.10136168

loop_
_atom_site_label
_atom_site_type_symbol
_atom_type_description
_atom_site_fract_x
_atom_site_fract_y
_atom_site_fract_z
_atom_type_partial_charge
O1    O     O_R   0.607880 0.800910 0.198150 -0.505351
O2    O     O_R   0.392120 0.199090 0.801850 -0.505331
O3    O     O_R   0.392120 0.199090 0.698150 -0.505352
O4    O     O_R   0.607880 0.800910 0.301850 -0.505332
O5    O     O_R   0.107880 0.699090 0.301850 -0.505345
O6    O     O_R   0.892120 0.300910 0.698150 -0.505338
O7    O     O_R   0.892120 0.300910 0.801850 -0.505344
O8    O     O_R   0.107880 0.699090 0.198150 -0.505337
O9    O     O_R   0.278160 0.807580 0.301500 -0.542181
O10   O     O_R   0.721840 0.192420 0.698500 -0.542178
O11   O     O_R   0.721840 0.192420 0.801500 -0.542182
O12   O     O_R   0.278160 0.807580 0.198500 -0.542179
O13   O     O_R   0.778160 0.692420 0.198500 -0.542173
O14   O     O_R   0.221840 0.307580 0.801500 -0.542178
O15   O     O_R   0.221840 0.307580 0.698500 -0.542172
O16   O     O_R   0.778160 0.692420 0.301500 -0.542177
C1    C     C_R   0.447166 0.820936 0.318815 0.808462
C2    C     C_R   0.552834 0.179064 0.681184 0.808458
C3    C     C_R   0.552833 0.179063 0.818815 0.808459
C4    C     C_R   0.447166 0.820936 0.181184 0.808455
C5    C     C_R   0.947167 0.679062 0.181185 0.808466
C6    C     C_R   0.052833 0.320937 0.818815 0.808432
C7    C     C_R   0.052833 0.320937 0.681185 0.808469
C8    C     C_R   0.947167 0.679063 0.318815 0.808435
O17   O     O_3   0.441370 0.714400 0.250000 -0.372516
O18   O     O_3   0.558630 0.285600 0.750000 -0.372516
O19   O     O_3   0.941370 0.785600 0.250000 -0.372524
O20   O     O_3   0.058630 0.214400 0.750000 -0.372524
V1    V     V_3+5 0.166530 0.756600 0.250000 1.649932
V2    V     V_3+5 0.833470 0.243400 0.750000 1.649932
V3    V     V_3+5 0.666530 0.743400 0.250000 1.649943
V4    V     V_3+5 0.333470 0.256600 0.750000 1.649943
C9    C     C_R   0.185455 0.434887 0.585331 0.674758
C10   C     C_R   0.814544 0.565104 0.414661 0.674760
C11   C     C_R   0.814544 0.565114 0.085330 0.674757
C12   C     C_R   0.185457 0.434894 0.914662 0.674759
C13   C     C_R   0.685448 0.065116 0.914671 0.674747
C14   C     C_R   0.314561 0.934909 0.085352 0.674751
C15   C     C_R   0.314553 0.934886 0.414670 0.674748
C16   C     C_R   0.685439 0.065089 0.585353 0.674753
C17   C     C_R   0.196378 0.395381 0.624965 -0.283865
C18   C     C_R   0.803624 0.604611 0.375028 -0.283852
C19   C     C_R   0.803621 0.604620 0.124964 -0.283870
C20   C     C_R   0.196377 0.395388 0.875029 -0.283856
C21   C     C_R   0.696373 0.104620 0.875036 -0.283904
C22   C     C_R   0.303639 0.895403 0.124985 -0.283853
C23   C     C_R   0.303628 0.895381 0.375035 -0.283900
C24   C     C_R   0.696360 0.104595 0.624987 -0.283848
C25   C     C_R   0.040874 0.362809 0.638668 -0.356528
C26   C     C_R   0.959124 0.637192 0.361332 -0.356533
C27   C     C_R   0.959126 0.637191 0.138668 -0.356528
C28   C     C_R   0.040876 0.362808 0.861332 -0.356535
C29   C     C_R   0.540877 0.137191 0.861331 -0.356523
C30   C     C_R   0.459120 0.862808 0.138669 -0.356519
C31   C     C_R   0.459123 0.862809 0.361331 -0.356522
C32   C     C_R   0.540880 0.137192 0.638668 -0.356519
C33   C     C_R   0.873961 0.370685 0.610965 0.554124
C34   C     C_R   0.126032 0.629324 0.389043 0.554104
C35   C     C_R   0.126041 0.629313 0.110967 0.554123
C36   C     C_R   0.873966 0.370677 0.889042 0.554104
C37   C     C_R   0.373969 0.129312 0.889031 0.554131
C38   C     C_R   0.626008 0.870662 0.110947 0.554116
C39   C     C_R   0.626029 0.870686 0.389033 0.554131
C40   C     C_R   0.373993 0.129339 0.610945 0.554115
C41   C     C_R   0.863955 0.409980 0.571287 0.567701
C42   C     C_R   0.136036 0.590028 0.428720 0.567697
C43   C     C_R   0.136046 0.590018 0.071288 0.567701
C44   C     C_R   0.863962 0.409973 0.928719 0.567697
C45   C     C_R   0.363964 0.090019 0.928712 0.567702
C46   C     C_R   0.636015 0.909959 0.071269 0.567699
C47   C     C_R   0.636035 0.909979 0.428713 0.567703
C48   C     C_R   0.363986 0.090043 0.571268 0.567700
C49   C     C_R   0.019002 0.442394 0.558284 -0.311567
C50   C     C_R   0.980992 0.557605 0.441716 -0.311576
C51   C     C_R   0.980998 0.557606 0.058284 -0.311567
C52   C     C_R   0.019008 0.442395 0.941716 -0.311576
C53   C     C_R   0.519003 0.057608 0.941718 -0.311530
C54   C     C_R   0.480991 0.942395 0.058286 -0.311541
C55   C     C_R   0.480997 0.942391 0.441718 -0.311530
C56   C     C_R   0.519009 0.057605 0.558286 -0.311542
C57   C     C_1   0.006136 0.483077 0.517184 0.264946
C58   C     C_1   0.993856 0.516922 0.482815 0.264937
C59   C     C_1   0.993864 0.516923 0.017184 0.264946
C60   C     C_1   0.006144 0.483078 0.982816 0.264936
C61   C     C_1   0.506135 0.016926 0.982819 0.264958
C62   C     C_1   0.493856 0.983079 0.017186 0.264941
C63   C     C_1   0.493864 0.983074 0.482819 0.264958
C64   C     C_1   0.506144 0.016921 0.517186 0.264941
F1    F     F_    0.337405 0.465905 0.573493 -0.561735
F2    F     F_    0.662594 0.534080 0.426491 -0.561757
F3    F     F_    0.662593 0.534097 0.073491 -0.561731
F4    F     F_    0.337407 0.465917 0.926494 -0.561753
F5    F     F_    0.837390 0.034099 0.926511 -0.561745
F6    F     F_    0.162630 0.965947 0.073534 -0.561820
F7    F     F_    0.162612 0.965903 0.426509 -0.561749
F8    F     F_    0.837369 0.034050 0.573536 -0.561824
H1    H     H_    0.326629 0.390682 0.645164 0.227685
H2    H     H_    0.673377 0.609304 0.354822 0.227650
H3    H     H_    0.673369 0.609321 0.145162 0.227691
H4    H     H_    0.326625 0.390693 0.854824 0.227656
H5    H     H_    0.826619 0.109322 0.854838 0.227696
H6    H     H_    0.173408 0.890721 0.145201 0.227594
H7    H     H_    0.173383 0.890681 0.354836 0.227690
H8    H     H_    0.826590 0.109277 0.645203 0.227587
F9    F     F_    0.720021 0.339919 0.621411 -0.626329
F10   F     F_    0.279966 0.660101 0.378607 -0.626315
F11   F     F_    0.279982 0.660077 0.121414 -0.626334
F12   F     F_    0.720031 0.339902 0.878604 -0.626320
F13   F     F_    0.220036 0.160073 0.878581 -0.626356
F14   F     F_    0.779918 0.839871 0.121372 -0.626291
F15   F     F_    0.779961 0.839923 0.378584 -0.626350
F16   F     F_    0.220085 0.160133 0.621370 -0.626286
F17   F     F_    0.702152 0.416210 0.545286 -0.548767
F18   F     F_    0.297835 0.583804 0.454728 -0.548774
F19   F     F_    0.297850 0.583786 0.045288 -0.548766
F20   F     F_    0.702162 0.416199 0.954726 -0.548773
F21   F     F_    0.202171 0.083788 0.954713 -0.548788
F22   F     F_    0.797795 0.916169 0.045250 -0.548807
F23   F     F_    0.797827 0.916209 0.454715 -0.548789
F24   F     F_    0.202207 0.083835 0.545247 -0.548808

loop_
_geom_bond_atom_site_label_1
_geom_bond_atom_site_label_2
_ccdc_geom_bond_type
O17   V3    S    
C33   F9    S    
C63   C64   T    
O18   V4    S    
O12   V1    S    
O19   V1    S    
C45   C53   A    
C10   C18   A    
C37   F13   S    
C52   C60   S    
C55   C63   S    
C57   C58   T    
C25   C33   A    
O15   V4    S    
C61   C62   T    
O16   V3    S    
C22   H6    S    
C11   C51   A    
O8    V1    S    
C23   C31   A    
C19   H3    S    
C18   H2    S    
C40   F16   S    
C46   C54   A    
C37   C45   A    
C24   H8    S    
O1    V3    S    
C41   C49   A    
C38   C46   A    
O3    C2    A    
O2    V4    S    
C17   C25   A    
C10   C50   A    
C43   F19   S    
C12   C52   A    
C35   C43   A    
C19   C27   A    
C29   C37   A    
C34   C42   A    
O11   V2    S    
C31   C39   A    
C16   C56   A    
C11   C19   A    
C1    C31   S    
C36   F12   S    
O9    V1    S    
C3    C29   S    
O15   C7    A    
C21   C29   A    
O16   C8    A    
O7    V2    S    
C56   C64   S    
O12   C4    A    
C16   F8    S    
C49   C57   S    
O5    V1    S    
C44   F20   S    
C8    C26   S    
C23   H7    S    
C13   F5    S    
C26   C34   A    
C4    C30   S    
O14   V4    S    
C14   F6    S    
C14   C54   A    
C13   C53   A    
C35   F11   S    
C47   C55   A    
C34   F10   S    
C15   C55   A    
C10   F2    S    
C9    F1    S    
O10   V2    S    
C59   C60   T    
C38   F14   S    
O11   C3    A    
C22   C30   A    
C32   C40   A    
O8    C5    A    
O13   C5    A    
C15   F7    S    
C21   H5    S    
C18   C26   A    
O4    C1    A    
C9    C49   A    
O6    V2    S    
C39   C47   A    
C48   F24   S    
C17   H1    S    
C12   C20   A    
C27   C35   A    
C13   C21   A    
C5    C27   S    
C15   C23   A    
C50   C58   S    
O9    C1    A    
C24   C32   A    
C16   C24   A    
O1    C4    A    
C42   F18   S    
O2    C3    A    
C41   F17   S    
O13   V3    S    
C33   C41   A    
C20   C28   A    
C2    C32   S    
C44   C52   A    
O7    C6    A    
C30   C38   A    
C47   F23   S    
C9    C17   A    
O14   C6    A    
O20   V2    S    
C48   C56   A    
C20   H4    S    
C51   C59   S    
O5    C8    A    
O10   C2    A    
O6    C7    A    
C45   F21   S    
C6    C28   S    
C40   C48   A    
C39   F15   S    
O3    V4    S    
C14   C22   A    
O4    V3    S    
C7    C25   S    
C12   F4    S    
C53   C61   S    
C46   F22   S    
C43   C51   A    
C36   C44   A    
C28   C36   A    
C54   C62   S    
C11   F3    S    
C42   C50   A    
