data_mof_unit_16603.cif
_audit_creation_date              2012-12-10T19:43:24-0500
_audit_creation_method            fapswitch 2.2
_symmetry_space_group_name_H-M    P1
_symmetry_Int_Tables_number       1
_space_group_crystal_system       triclinic
_cell_length_a                    10.839546
_cell_length_b                    10.804953
_cell_length_c                    9.609855
_cell_angle_alpha                 90.054513
_cell_angle_beta                  89.624643
_cell_angle_gamma                 94.2145
_cell_volume                      1122.44606041

loop_
_atom_site_label
_atom_site_type_symbol
_atom_type_description
_atom_site_fract_x
_atom_site_fract_y
_atom_site_fract_z
_atom_type_partial_charge
C1    C     C_R   0.495832 0.262537 0.499854 0.927641
C2    C     C_R   0.257253 0.729697 0.040146 -0.175116
C3    C     C_R   0.937296 0.542196 0.386268 -0.195779
C4    C     C_R   0.870652 0.491668 0.500319 -0.148474
C5    C     C_R   0.932814 0.444046 0.615154 -0.131810
C6    C     C_R   0.061339 0.451528 0.614646 0.605685
C7    C     C_R   0.128307 0.503386 0.500377 -0.157250
C8    C     C_R   0.065483 0.550618 0.385484 -0.059652
C9    C     C_R   0.875916 0.434524 0.868269 -0.092144
C10   C     C_R   0.810864 0.377816 0.980117 -0.171115
C11   C     C_R   0.736021 0.268506 0.959321 -0.068054
C12   C     C_R   0.262480 0.501569 0.500125 0.967721
C13   C     C_R   0.726958 0.215092 0.826851 -0.100497
C14   C     C_R   0.792343 0.271185 0.714848 -0.111889
C15   C     C_R   0.866538 0.381930 0.734645 0.192826
C16   C     C_R   0.284963 0.116699 0.629111 0.612116
C17   C     C_R   0.192269 0.047366 0.701196 -0.233571
C18   C     C_R   0.195463 0.919967 0.711707 -0.275850
C19   C     C_R   0.290003 0.859812 0.647975 0.543181
C20   C     C_R   0.387346 0.927722 0.574586 -0.076910
C21   C     C_R   0.386367 0.059144 0.568944 -0.155952
C22   C     C_R   0.484575 0.128168 0.499022 -0.183717
C23   C     C_R   0.492903 0.736736 0.500567 0.913167
C24   C     C_R   0.575504 0.068538 0.427124 0.562794
C25   C     C_R   0.573855 0.940979 0.427903 -0.167846
C26   C     C_R   0.483146 0.870074 0.502265 -0.132431
C27   C     C_R   0.672757 0.671270 0.135996 0.514922
C28   C     C_R   0.753552 0.749206 0.057587 -0.311193
C29   C     C_R   0.749977 0.746690 0.915471 0.500917
C30   C     C_R   0.665454 0.665584 0.849576 -0.239324
C31   C     C_R   0.581806 0.582257 0.923168 0.069909
C32   C     C_R   0.583254 0.583248 0.073072 0.081074
C33   C     C_R   0.422207 0.421807 0.074406 -0.047021
C34   C     C_R   0.737090 0.496086 0.499952 0.869566
C35   C     C_R   0.422324 0.421799 0.926725 -0.005669
C36   C     C_R   0.266139 0.783045 0.172591 0.649133
C37   C     C_R   0.202117 0.725766 0.284825 -0.188069
C38   C     C_R   0.129903 0.613792 0.265553 0.073190
C39   C     C_R   0.119907 0.561748 0.131724 -0.176789
C40   C     C_R   0.183488 0.619700 0.019532 -0.206602
Cu1   Cu    Cu3+1 0.499990 0.499990 0.640660 1.031483
Cu2   Cu    Cu3+1 0.500010 0.500010 0.359340 1.033000
H1    H     H_    0.307493 0.773516 0.953508 0.186848
H2    H     H_    0.684928 0.225334 0.045802 0.184951
H3    H     H_    0.668910 0.130479 0.810780 0.151896
H4    H     H_    0.784231 0.229302 0.612578 0.150538
H5    H     H_    0.646697 0.897377 0.373088 0.213375
H6    H     H_    0.358107 0.357821 0.129861 0.153326
H7    H     H_    0.820078 0.813487 0.108799 0.214230
H8    H     H_    0.358381 0.357642 0.872103 0.194356
H9    H     H_    0.209308 0.767852 0.386791 0.157934
H10   H     H_    0.176610 0.578804 0.916829 0.233465
H11   H     H_    0.889661 0.579662 0.298848 0.200703
H12   H     H_    0.931848 0.520371 0.885104 0.143364
H13   H     H_    0.817502 0.419287 0.082637 0.143690
N1    N     N_R   0.501190 0.501210 0.147910 -0.182519
N2    N     N_R   0.501230 0.501290 0.852040 -0.171513
O1    O     O_R   0.499990 0.319640 0.618810 -0.573964
O2    O     O_R   0.500000 0.319660 0.381240 -0.558075
O3    O     O_R   0.319640 0.500000 0.618780 -0.456569
O4    O     O_R   0.319650 0.500020 0.381210 -0.619964
O5    O     O_R   0.500000 0.680340 0.618760 -0.573565
O6    O     O_R   0.500010 0.680360 0.381190 -0.517472
O7    O     O_R   0.680350 0.499980 0.618790 -0.625684
O8    O     O_R   0.680360 0.500000 0.381220 -0.520237
F1    F     F_    0.668542 0.134609 0.358542 -0.684472
F2    F     F_    0.269626 0.238795 0.612446 -0.660915
H14   H     H_    0.115870 0.092667 0.746936 0.219434
H15   H     H_    0.122013 0.866631 0.766730 0.225150
F3    F     F_    0.281125 0.735010 0.656640 -0.702547
F4    F     F_    0.337111 0.890173 0.192335 -0.671601
F5    F     F_    0.690327 0.690169 0.271673 -0.673640
F6    F     F_    0.829159 0.823783 0.840198 -0.659128
H16   H     H_    0.671076 0.672444 0.740076 0.234749
H17   H     H_    0.064647 0.475491 0.114950 0.162200
F7    F     F_    0.120425 0.402993 0.724071 -0.653946

loop_
_geom_bond_atom_site_label_1
_geom_bond_atom_site_label_2
_ccdc_geom_bond_type
C16   C21   A    
C11   C13   A    
Cu1   Cu2   S    
C19   C20   A    
C7    C8    A    
C14   H4    S    
C37   C38   A    
C36   C37   A    
Cu1   O1    S    
C1    O2    A    
C5    C6    A    
C37   H9    S    
C29   F6    S    
C18   C19   A    
C23   C26   S    
Cu2   N1    S    
C23   O5    A    
C16   C17   A    
Cu2   O8    S    
C39   H17   S    
C9    C10   A    
C25   H5    S    
C36   F4    S    
C24   F1    S    
C33   N1    A    
C23   O6    A    
C1    C22   S    
C21   C22   A    
C8    C38   S    
Cu1   O5    S    
C34   O8    A    
C7    C12   S    
C4    C34   S    
C38   C39   A    
C24   C25   A    
C3    C8    A    
C39   C40   A    
C25   C26   A    
C40   H10   S    
C29   C30   A    
C28   H7    S    
C31   C32   A    
C2    H1    S    
C35   H8    S    
C34   O7    A    
C17   C18   A    
C11   H2    S    
C16   F2    S    
C10   H13   S    
Cu2   O4    S    
C22   C24   A    
C3    C4    A    
C2    C36   A    
C28   C29   A    
C17   H14   S    
C27   C32   A    
Cu1   O3    S    
C4    C5    A    
Cu2   O2    S    
C6    F7    S    
C6    C7    A    
C35   N2    A    
C31   N2    A    
C9    C15   A    
Cu1   N2    S    
C1    O1    A    
C13   H3    S    
C12   O4    A    
C3    H11   S    
C30   C31   A    
C20   C26   A    
C18   H15   S    
C30   H16   S    
C33   C35   A    
C5    C15   S    
C10   C11   A    
C12   O3    A    
C2    C40   A    
C20   C21   A    
C27   C28   A    
C33   H6    S    
C14   C15   A    
C19   F3    S    
C9    H12   S    
Cu1   O7    S    
C13   C14   A    
Cu2   O6    S    
C32   N1    A    
C27   F5    S    
