data_mof_unit_38281.cif
_audit_creation_date              2013-03-05T15:53:06-0500
_audit_creation_method            fapswitch 2.2
_symmetry_space_group_name_H-M    P1
_symmetry_Int_Tables_number       1
_space_group_crystal_system       triclinic
_cell_length_a                    9.964773
_cell_length_b                    10.589356
_cell_length_c                    15.686521
_cell_angle_alpha                 89.469586
_cell_angle_beta                  67.77195
_cell_angle_gamma                 85.59567
_cell_volume                      1527.36476864

loop_
_atom_site_label
_atom_site_type_symbol
_atom_site_description
_atom_site_fract_x
_atom_site_fract_y
_atom_site_fract_z
_atom_type_partial_charge
O1    O     O_R   0.385310 0.683220 0.500000 -0.641896
O2    O     O_R   0.614640 0.683250 0.500010 -0.606587
C1    C     C_R   0.493860 0.739602 0.502416 0.840611
O3    O     O_R   0.319840 0.499980 0.632240 -0.536583
O4    O     O_R   0.549160 0.500000 0.632250 -0.658590
C2    C     C_R   0.409217 0.502443 0.675221 0.920907
Zn1   Zn    Zn3+2 0.346880 0.499980 0.499990 1.036627
Zn2   Zn    Zn3+2 0.653120 0.500020 0.500010 0.984875
O5    O     O_R   0.385360 0.316750 0.499990 -0.617880
O6    O     O_R   0.614690 0.316780 0.500000 -0.579470
O7    O     O_R   0.450840 0.500000 0.367750 -0.580261
O8    O     O_R   0.680160 0.500020 0.367760 -0.580268
C3    C     C_R   0.512678 0.261046 0.486954 0.949592
C4    C     C_R   0.590438 0.503055 0.324234 0.833434
C5    C     C_R   0.354811 0.518986 0.775198 -0.174407
C6    C     C_R   0.643657 0.511967 0.222646 -0.179340
C7    C     C_R   0.189941 0.621769 0.916736 -0.325575
C8    C     C_R   0.224184 0.591064 0.824137 0.505318
C9    C     C_R   0.450991 0.481789 0.818289 -0.325503
C10   C     C_R   0.421736 0.515396 0.909811 0.117476
C11   C     C_R   0.288423 0.587737 0.958871 0.116771
C12   C     C_R   0.526648 0.490866 0.951040 0.032146
C13   C     C_R   0.491285 0.537265 0.041337 0.045839
C14   C     C_R   0.359720 0.610475 0.087531 -0.189720
C15   C     C_R   0.259062 0.634053 0.047231 -0.153696
C16   C     C_R   0.667004 0.425338 0.906253 -0.097837
C17   C     C_R   0.779648 0.444580 0.938412 -0.118984
C18   C     C_R   0.739519 0.490757 0.029636 0.052745
C19   C     C_R   0.591190 0.513360 0.083831 -0.012481
C20   C     C_R   0.839562 0.506480 0.071437 -0.155131
C21   C     C_R   0.791305 0.527901 0.166851 0.000927
C22   C     C_R   0.544858 0.497403 0.178725 -0.057147
H1    H     H_    0.159930 0.692546 0.084230 0.165577
H2    H     H_    0.089805 0.678616 0.954152 0.147465
H3    H     H_    0.554208 0.435012 0.776297 0.195682
H4    H     H_    0.336742 0.654435 0.154125 0.198469
H5    H     H_    0.954629 0.503108 0.030763 0.183606
H6    H     H_    0.422811 0.895586 0.640957 0.113297
C23   C     C_R   0.550637 0.854884 0.328401 -0.103168
H7    H     H_    0.525618 0.757279 0.332425 0.160202
C24   C     C_R   0.592876 0.909690 0.242752 -0.188784
H8    H     H_    0.600834 0.854509 0.183002 0.156644
C25   C     C_R   0.634616 0.032351 0.232878 -0.094101
H9    H     H_    0.680738 0.068081 0.163680 0.199877
C26   C     C_R   0.632835 0.102423 0.309231 -0.027106
C27   C     C_R   0.565341 0.054545 0.399944 -0.069120
C28   C     C_R   0.534368 0.926620 0.407669 0.123731
C29   C     C_R   0.488738 0.872247 0.494905 -0.105413
C30   C     C_R   0.460266 0.941471 0.574913 -0.341350
C31   C     C_R   0.479461 0.069162 0.570008 0.556972
C32   C     C_R   0.526957 0.125936 0.483658 -0.181611
H10   H     H_    0.922793 0.313374 0.448086 0.177689
C33   C     C_R   0.794657 0.689198 0.600461 -0.105938
H11   H     H_    0.680199 0.677460 0.628638 0.179148
C34   C     C_R   0.841504 0.795789 0.629122 -0.236907
H12   H     H_    0.763102 0.864209 0.676302 0.152283
C35   C     C_R   0.987323 0.820598 0.588672 -0.210135
H13   H     H_    0.017539 0.913939 0.598315 0.196894
C36   C     C_R   0.087905 0.732134 0.526046 -0.021692
C37   C     C_R   0.045946 0.608161 0.524200 0.130058
C38   C     C_R   0.896728 0.598580 0.540737 0.186194
N1    N     N_R   0.856800 0.501200 0.500850 -0.114629
C39   C     C_R   0.954887 0.397666 0.470564 -0.118158
H14   H     H_    0.168176 0.310826 0.452228 0.151563
C40   C     C_R   0.095690 0.395835 0.474071 0.013392
N2    N     N_R   0.142390 0.501280 0.500880 -0.094355
C41   C     C_2   0.734210 0.203534 0.287180 0.872024
O9    O     O_2   0.763377 0.258311 0.214256 -0.604478
O10   O     O_R   0.813244 0.223256 0.341876 -0.800226
H15   H     H_    0.887716 0.287343 0.314288 0.360079
O11   O     O_3   0.443581 0.143052 0.649330 -0.617988
C42   C     C_3   0.535235 0.106352 0.697032 0.049419
H16   H     H_    0.528862 0.005391 0.716998 0.120191
H17   H     H_    0.494291 0.162741 0.762191 0.207020
C43   C     C_3   0.693696 0.134335 0.643387 -0.787962
H18   H     H_    0.739348 0.083231 0.575792 0.248098
H19   H     H_    0.701174 0.237658 0.632377 0.296410
H20   H     H_    0.760892 0.101435 0.682940 0.236320
C44   C     C_2   0.413590 0.425391 0.221518 0.968477
O12   O     O_2   0.296387 0.479985 0.268290 -0.621092
O13   O     O_R   0.425770 0.294363 0.206866 -0.784577
H21   H     H_    0.330327 0.255088 0.239485 0.340310
C45   C     C_2   0.187424 0.785476 0.439179 0.947061
O14   O     O_2   0.248021 0.717446 0.370668 -0.595816
O15   O     O_R   0.204207 0.915716 0.433787 -0.825586
H22   H     H_    0.263316 0.942761 0.369105 0.347346
C46   C     C_2   0.900963 0.552187 0.205338 0.906769
O16   O     O_2   0.883159 0.644720 0.255641 -0.613564
O17   O     O_R   0.026058 0.469651 0.182718 -0.775678
H23   H     H_    0.091089 0.494277 0.215006 0.374818
C47   C     C_2   0.932013 0.395535 0.883113 0.958699
O18   O     O_2   0.985364 0.417199 0.800861 -0.532707
O19   O     O_R   0.012761 0.321570 0.923982 -0.783837
H24   H     H_    0.114627 0.294508 0.878924 0.353013
O20   O     O_3   0.132388 0.634844 0.780753 -0.570203
C48   C     C_3   0.139756 0.766898 0.766476 0.092967
H25   H     H_    0.175110 0.782856 0.691365 0.170258
H26   H     H_    0.218835 0.811490 0.789519 0.106585
C49   C     C_3   0.989390 0.834646 0.814868 -0.798395
H27   H     H_    0.955839 0.828501 0.890696 0.239756
H28   H     H_    0.991343 0.936038 0.795964 0.227473
H29   H     H_    0.908480 0.790518 0.794158 0.269690
C50   C     C_2   0.681664 0.306013 0.854105 0.887296
O21   O     O_2   0.778850 0.287233 0.778432 -0.627544
O22   O     O_R   0.587380 0.212337 0.894797 -0.784632
H30   H     H_    0.618413 0.128889 0.859095 0.322021

loop_
_geom_bond_atom_site_label_1
_geom_bond_atom_site_label_2
_geom_bond_distance
_ccdc_geom_bond_type
C5    C8    1.403019 A    
C46   O16   1.223087 D    
C39   C40   1.423454 A    
O19   H24   1.014059 S    
C24   H8    1.083043 S    
O20   C48   1.417223 S    
C31   O11   1.388073 S    
O13   H21   1.013869 S    
C23   C24   1.383574 A    
H6    C30   1.083813 S    
C33   H11   1.072847 S    
C6    C21   1.421371 A    
C5    C9    1.399234 A    
C16   C17   1.421763 A    
C14   H4    1.082594 S    
C13   C19   1.399908 A    
C18   C19   1.401227 A    
C36   C45   1.486163 S    
C19   C22   1.394586 A    
C42   C43   1.533362 S    
C20   C21   1.402802 A    
O7    C4    1.300052 A    
C35   C36   1.405365 A    
C48   C49   1.523302 S    
C1    C29   1.407109 S    
O5    C3    1.300139 A    
C2    C5    1.459915 S    
C3    C32   1.426334 S    
C33   C38   1.406712 A    
C45   O14   1.222747 D    
C48   H26   1.118210 S    
C26   C41   1.476959 S    
C13   C14   1.407269 A    
C17   C47   1.489350 S    
C37   N2    1.383115 A    
C36   C37   1.411827 A    
C8    O20   1.383773 S    
C24   C25   1.383706 A    
C38   N1    1.369837 A    
O3    Zn1   1.988320 S    
C31   C32   1.401351 A    
C33   C34   1.393989 A    
C21   C46   1.473026 S    
C41   O9    1.221294 D    
C28   C29   1.402049 A    
C14   C15   1.380733 A    
O3    C2    1.306401 A    
C23   H7    1.077436 S    
C44   O13   1.397012 S    
O15   H22   1.013308 S    
C27   C32   1.426959 A    
O6    C3    1.294333 A    
C7    C11   1.400642 A    
C20   H5    1.078755 S    
C37   C38   1.421055 A    
O1    C1    1.287842 A    
Zn1   O7    1.936598 S    
C43   H18   1.109942 S    
N1    C39   1.369952 A    
C16   C50   1.479018 S    
C47   O19   1.398605 S    
C43   H19   1.109850 S    
C49   H27   1.109908 S    
Zn2   O8    1.988317 S    
C48   H25   1.110081 S    
C34   H12   1.080998 S    
C7    C8    1.395974 A    
C50   O22   1.397078 S    
C25   C26   1.408457 A    
C42   H17   1.107309 S    
C29   C30   1.381542 A    
C49   H28   1.110874 S    
C10   C12   1.430173 A    
C40   N2    1.369949 A    
C34   C35   1.393190 A    
C25   H9    1.083653 S    
C4    C6    1.481584 S    
C7    H2    1.083382 S    
C47   O18   1.222407 D    
C23   C28   1.412634 A    
Zn1   O5    1.948711 S    
C11   C15   1.389610 A    
C27   C28   1.406377 A    
C45   O15   1.399915 S    
O1    Zn1   2.006479 S    
O2    Zn2   1.948712 S    
O8    C4    1.312859 A    
C42   H16   1.110988 S    
H10   C39   1.076256 S    
O4    Zn2   1.936598 S    
C22   C44   1.490804 S    
C6    C22   1.416406 A    
O22   H30   1.013058 S    
H14   C40   1.080772 S    
C9    C10   1.396284 A    
C18   C20   1.404835 A    
O2    C1    1.289101 A    
O11   C42   1.415004 S    
C9    H3    1.073480 S    
Zn1   N2    2.031443 S    
C35   H13   1.083258 S    
O4    C2    1.297403 A    
O10   H15   1.013634 S    
C43   H20   1.108683 S    
C44   O12   1.221626 D    
C26   C27   1.431494 A    
C49   H29   1.110307 S    
C10   C11   1.423013 A    
Zn2   O6    2.006478 S    
C30   C31   1.377515 A    
C12   C16   1.430992 A    
Zn2   N1    2.035642 S    
C50   O21   1.221274 D    
C46   O17   1.395501 S    
C12   C13   1.407312 A    
C41   O10   1.392779 S    
O17   H23   1.010529 S    
C15   H1    1.084081 S    
C17   C18   1.413052 A    
