data_mof_unit_28048.cif
_audit_creation_date              2012-12-10T17:32:22-0500
_audit_creation_method            fapswitch 2.2
_symmetry_space_group_name_H-M    P1
_symmetry_Int_Tables_number       1
_space_group_crystal_system       triclinic
_cell_length_a                    15.58855
_cell_length_b                    15.484972
_cell_length_c                    15.396663
_cell_angle_alpha                 91.792308
_cell_angle_beta                  71.940056
_cell_angle_gamma                 110.193684
_cell_volume                      3304.30180779

loop_
_atom_site_label
_atom_site_type_symbol
_atom_type_description
_atom_site_fract_x
_atom_site_fract_y
_atom_site_fract_z
_atom_type_partial_charge
C1    C     C_R   0.463694 0.259392 0.462284 0.498856
C2    C     C_R   0.509721 0.516676 0.112254 0.254756
C3    C     C_R   0.670103 0.619705 0.111316 0.051051
C4    C     C_R   0.533440 0.741677 0.537273 0.523674
C5    C     C_R   0.445295 0.413270 0.834159 -0.025156
C6    C     C_R   0.418869 0.036346 0.348858 0.296064
C7    C     C_R   0.451759 0.164798 0.442872 -0.009105
C8    C     C_R   0.613947 0.891298 0.597864 0.078341
C9    C     C_R   0.645912 0.988434 0.592696 0.110212
C10   C     C_R   0.612860 0.035686 0.541385 0.265489
C11   C     C_R   0.535331 0.986388 0.509068 -0.027351
C12   C     C_R   0.355887 0.305219 0.971577 0.099978
C13   C     C_R   0.502432 0.888909 0.514762 -0.079268
C14   C     C_R   0.491649 0.031713 0.467078 -0.056648
C15   C     C_R   0.443997 0.985360 0.405202 0.004201
C16   C     C_R   0.755688 0.550269 0.464159 0.510427
C17   C     C_R   0.415824 0.888650 0.407912 0.290088
C18   C     C_R   0.426464 0.843378 0.479180 0.124590
C19   C     C_R   0.488870 0.118994 0.489431 -0.135358
C20   C     C_R   0.419899 0.125740 0.369292 0.087415
C21   C     C_R   0.547262 0.840884 0.552917 0.007464
C22   C     C_R   0.002735 0.696488 0.462029 0.332165
C23   C     C_R   0.420087 0.358433 0.016505 0.110102
C24   C     C_R   0.858144 0.576453 0.450932 -0.015295
C25   C     C_R   0.083180 0.331816 0.555525 -0.143533
C26   C     C_R   0.986363 0.303396 0.561250 0.090800
C27   C     C_R   0.945999 0.368526 0.548458 0.144055
C28   C     C_R   0.243339 0.450495 0.536032 0.493767
C29   C     C_R   0.005576 0.463320 0.524016 0.040188
C30   C     C_R   0.098549 0.491955 0.534639 -0.030743
C31   C     C_R   0.975281 0.531988 0.494910 -0.037647
C32   C     C_R   0.029250 0.627613 0.494694 0.056552
C33   C     C_R   0.107037 0.652255 0.529605 0.105735
C34   C     C_R   0.492867 0.442487 0.972229 0.067845
C35   C     C_R   0.143464 0.585359 0.544918 -0.127772
C36   C     C_R   0.893603 0.508936 0.465416 -0.160229
C37   C     C_R   0.912724 0.670399 0.447913 0.078974
C38   C     C_R   0.139936 0.425570 0.544207 -0.007310
C39   C     C_R   0.548953 0.548337 0.258338 0.486842
C40   C     C_R   0.453898 0.446148 0.740569 0.514621
C41   C     C_R   0.705907 0.618868 0.016140 0.308369
C42   C     C_R   0.573115 0.567502 0.159897 -0.011918
C43   C     C_R   0.366525 0.333665 0.882020 0.281496
C44   C     C_3   0.402509 0.786102 0.298840 -0.008174
C45   C     C_R   0.515626 0.459092 0.876959 -0.080776
C46   C     C_3   0.329304 0.714820 0.262783 -0.374024
C47   C     C_3   0.469461 0.025553 0.195426 0.005868
C48   C     C_3   0.437443 0.984142 0.114862 -0.379259
C49   C     C_3   0.732333 0.142517 0.429786 -0.018607
C50   C     C_3   0.740654 0.228124 0.376901 -0.367989
C51   C     C_3   0.076295 0.834973 0.368707 -0.015218
C52   C     C_3   0.179452 0.901010 0.332553 -0.336052
C53   C     C_3   0.860865 0.623348 0.970877 0.023301
C54   C     C_3   0.963712 0.679147 0.913272 -0.355932
C55   C     C_3   0.357859 0.460300 0.230103 0.011574
C56   C     C_R   0.550002 0.505736 0.018633 0.010882
C57   C     C_3   0.252874 0.411238 0.235500 -0.383934
C58   C     C_3   0.328093 0.209767 0.799404 0.021245
C59   C     C_3   0.259616 0.158118 0.747603 -0.337682
C60   C     C_R   0.645157 0.564006 0.968279 0.002251
C61   C     C_R   0.675586 0.566054 0.871515 0.095821
C62   C     C_R   0.610471 0.515716 0.827405 -0.117028
H1    H     H_    0.513476 0.151623 0.544858 0.172620
H2    H     H_    0.297940 0.749620 0.225596 0.143400
H3    H     H_    0.365116 0.673245 0.214889 0.138622
H4    H     H_    0.270572 0.667987 0.320678 0.159253
H5    H     H_    0.526902 0.000660 0.200640 0.111768
H6    H     H_    0.499886 0.102099 0.181280 0.155931
H7    H     H_    0.381240 0.009212 0.107195 0.150763
H8    H     H_    0.499966 0.004898 0.050830 0.095657
H9    H     H_    0.407451 0.907628 0.126169 0.154933
H10   H     H_    0.634815 0.858640 0.714516 0.231366
H11   H     H_    0.727922 0.868887 0.617070 0.254679
H12   H     H_    0.853208 0.438812 0.457463 0.158750
H13   H     H_    0.716902 0.083615 0.386230 0.120705
H14   H     H_    0.802852 0.152797 0.439451 0.155726
H15   H     H_    0.749770 0.287940 0.419136 0.167372
H16   H     H_    0.803716 0.245191 0.313411 0.096565
H17   H     H_    0.674642 0.215118 0.357530 0.169341
H18   H     H_    0.684088 0.022719 0.706410 0.214206
H19   H     H_    0.735250 0.109273 0.624780 0.284980
H20   H     H_    0.353332 0.743826 0.589140 0.229608
H21   H     H_    0.338569 0.709755 0.485612 0.278396
H22   H     H_    0.819663 0.740442 0.492438 0.269750
H23   H     H_    0.113294 0.279900 0.562458 0.133802
H24   H     H_    0.850702 0.726782 0.377738 0.214095
H25   H     H_    0.204843 0.782056 0.504510 0.312818
H26   H     H_    0.160402 0.740591 0.617214 0.229724
H27   H     H_    0.029086 0.876796 0.380006 0.178569
H28   H     H_    0.063029 0.787265 0.314524 0.118335
H29   H     H_    0.227472 0.860616 0.309554 0.229450
H30   H     H_    0.188629 0.945876 0.273004 0.102495
H31   H     H_    0.198913 0.944973 0.386878 0.196766
H32   H     H_    0.803265 0.579121 0.776007 0.218377
H33   H     H_    0.765352 0.668623 0.772636 0.248059
H34   H     H_    0.202174 0.605168 0.573009 0.135179
H35   H     H_    0.813562 0.315637 0.642912 0.248806
H36   H     H_    0.819026 0.285224 0.535651 0.262385
H37   H     H_    0.929582 0.185294 0.643960 0.241235
H38   H     H_    0.958392 0.170813 0.530555 0.232813
H39   H     H_    0.838135 0.555907 0.940990 0.126324
H40   H     H_    0.860404 0.610454 0.041762 0.140839
H41   H     H_    0.989253 0.746397 0.942050 0.163915
H42   H     H_    0.011925 0.640509 0.913258 0.089262
H43   H     H_    0.966932 0.691903 0.841535 0.178990
H44   H     H_    0.355377 0.512987 0.279832 0.179621
H45   H     H_    0.638789 0.517011 0.753861 0.160007
H46   H     H_    0.386146 0.409740 0.250076 0.136885
H47   H     H_    0.246818 0.363990 0.180451 0.158640
H48   H     H_    0.211620 0.371069 0.303138 0.095042
H49   H     H_    0.220310 0.462872 0.227770 0.153167
H50   H     H_    0.325512 0.159862 0.851449 0.139100
H51   H     H_    0.402502 0.236692 0.749510 0.120281
H52   H     H_    0.259345 0.206331 0.695880 0.196107
H53   H     H_    0.283106 0.102697 0.712032 0.093677
H54   H     H_    0.185350 0.126550 0.796131 0.156561
H55   H     H_    0.450054 0.265595 0.080109 0.222110
H56   H     H_    0.700817 0.720819 0.195827 0.227323
H57   H     H_    0.355000 0.291342 0.145051 0.227925
H58   H     H_    0.308040 0.176204 0.034073 0.209757
H59   H     H_    0.234206 0.237370 0.075540 0.226405
H60   H     H_    0.392409 0.239859 0.335168 0.222581
H61   H     H_    0.313747 0.137028 0.326689 0.231623
H62   H     H_    0.743840 0.635203 0.202554 0.233066
H63   H     H_    0.434693 0.748172 0.332113 0.154877
H64   H     H_    0.460723 0.831903 0.239902 0.133369
N1    N     N_3   0.733478 0.676979 0.157667 -0.602201
N2    N     N_3   0.424145 0.319736 0.098160 -0.623795
N3    N     N_3   0.278826 0.221652 0.015969 -0.610781
N4    N     N_3   0.387094 0.173741 0.315058 -0.622132
N5    N     N_3   0.652794 0.844137 0.645823 -0.577663
N6    N     N_3   0.716560 0.038026 0.635594 -0.624058
N7    N     N_3   0.346489 0.763763 0.528118 -0.642874
N8    N     N_3   0.875973 0.740412 0.434031 -0.641218
N9    N     N_3   0.143320 0.743518 0.557091 -0.556675
N10   N     N_3   0.770977 0.622049 0.816452 -0.570182
N11   N     N_3   0.843094 0.340033 0.573619 -0.645884
N12   N     N_3   0.927714 0.207577 0.581384 -0.649680
O1    O     O_3   0.500000 0.500000 0.500000 -0.432169
O2    O     O_R   0.588830 0.499590 0.285390 -0.546493
O3    O     O_R   0.395900 0.395880 0.699370 -0.500101
O4    O     O_R   0.493280 0.582590 0.315890 -0.571030
O5    O     O_R   0.521980 0.521940 0.699340 -0.553150
O6    O     O_3   0.356140 0.838737 0.359605 -0.546943
O7    O     O_3   0.389265 0.998069 0.276166 -0.537856
O8    O     O_3   0.661318 0.129355 0.516991 -0.589332
O9    O     O_3   0.061156 0.789197 0.453469 -0.517689
O10   O     O_3   0.800453 0.673555 0.970582 -0.488371
O11   O     O_3   0.411248 0.503958 0.141030 -0.554725
O12   O     O_R   0.708210 0.582550 0.530770 -0.547999
O13   O     O_3   0.299333 0.282242 0.841538 -0.505088
O14   O     O_R   0.270260 0.395900 0.573760 -0.540194
O15   O     O_R   0.537060 0.322180 0.411040 -0.536818
O16   O     O_R   0.484470 0.699370 0.484430 -0.573178
O17   O     O_R   0.404710 0.279110 0.530840 -0.562493
O18   O     O_R   0.573760 0.699350 0.573690 -0.495735
O19   O     O_R   0.714470 0.499570 0.411000 -0.549374
O20   O     O_R   0.307050 0.521980 0.484470 -0.572072
Zn1   Zn    Zn3+2 0.574690 0.574670 0.574650 0.933509
Zn2   Zn    Zn3+2 0.583640 0.456100 0.403530 0.917186
Zn3   Zn    Zn3+2 0.447120 0.574690 0.447120 0.874444
Zn4   Zn    Zn3+2 0.394550 0.394550 0.574700 0.925009

loop_
_geom_bond_atom_site_label_1
_geom_bond_atom_site_label_2
_ccdc_geom_bond_type
C4    O16   A    
H11   N5    S    
C3    C42   A    
C34   C56   A    
H18   N6    S    
C27   C29   A    
O16   Zn3   S    
C48   H7    S    
C50   H17   S    
O4    Zn3   S    
C47   O7    S    
C53   C54   S    
C12   C23   A    
H22   N8    S    
C26   C27   A    
C27   N11   S    
C22   C32   A    
C13   C18   A    
C17   O6    S    
C58   H50   S    
C54   H42   S    
C46   H4    S    
C12   C43   A    
C31   C36   A    
C51   H28   S    
C11   C14   A    
C3    N1    S    
C45   C62   A    
C30   C38   A    
C18   N7    S    
C47   H5    S    
C1    O17   A    
C28   O20   A    
O20   Zn3   S    
C6    C15   A    
H24   N8    S    
C57   H47   S    
C47   C48   S    
C19   H1    S    
C59   H54   S    
C58   H51   S    
H32   N10   S    
C49   H13   S    
H37   N12   S    
C55   O11   S    
C28   C38   S    
C9    C10   A    
H59   N3    S    
H57   N2    S    
C2    O11   S    
C5    C43   A    
O1    Zn1   S    
O3    Zn4   S    
C16   C24   S    
C1    C7    S    
C40   O3    A    
C50   H16   S    
H35   N11   S    
C44   C46   S    
C24   C37   A    
C39   C42   S    
O18   Zn1   S    
O17   Zn4   S    
C44   H63   S    
O12   Zn1   S    
C55   H44   S    
H58   N3    S    
H25   N9    S    
C54   H41   S    
O1    Zn3   S    
C41   C60   A    
C46   H3    S    
C12   N3    S    
C53   H39   S    
C6    O7    S    
C8    C9    A    
H19   N6    S    
C62   H45   S    
H36   N11   S    
C25   C26   A    
C35   H34   S    
C22   C37   A    
C5    C45   A    
C53   O10   S    
C51   C52   S    
C46   H2    S    
C60   C61   A    
C29   C30   A    
C25   C38   A    
C33   N9    S    
C31   C32   A    
C39   O4    A    
C51   O9    S    
C53   H40   S    
C44   O6    S    
C23   C34   A    
C44   H64   S    
C8    N5    S    
C25   H23   S    
C17   C18   A    
C49   H14   S    
C13   C21   A    
C52   H31   S    
C34   C45   A    
C24   C36   A    
C1    O15   A    
C36   H12   S    
C10   O8    S    
H62   N1    S    
C30   C35   A    
C4    O18   A    
O1    Zn2   S    
C28   O14   A    
O19   Zn2   S    
C7    C19   A    
C55   C57   S    
H61   N4    S    
C49   C50   S    
C52   H30   S    
H56   N1    S    
C48   H9    S    
C50   H15   S    
C47   H6    S    
C43   O13   S    
C58   O13   S    
H10   N5    S    
C9    N6    S    
C15   C17   A    
C39   O2    A    
C3    C41   A    
C54   H43   S    
C16   O19   A    
C14   C15   A    
C14   C19   A    
O1    Zn4   S    
H26   N9    S    
C48   H8    S    
C26   N12   S    
C8    C21   A    
C57   H48   S    
O5    Zn1   S    
C6    C20   A    
H38   N12   S    
C55   H46   S    
C32   C33   A    
H20   N7    S    
C58   C59   S    
C29   C31   A    
C2    C56   A    
O2    Zn2   S    
C4    C21   S    
C11   C13   A    
C57   H49   S    
C41   O10   S    
C2    C42   A    
C59   H52   S    
H33   N10   S    
C33   C35   A    
C49   O8    S    
C61   C62   A    
H55   N2    S    
O14   Zn4   S    
H21   N7    S    
C10   C11   A    
C56   C60   A    
C22   O9    S    
C59   H53   S    
C7    C20   A    
C40   O5    A    
O15   Zn2   S    
C37   N8    S    
C52   H29   S    
C16   O12   A    
C5    C40   S    
H60   N4    S    
C51   H27   S    
C61   N10   S    
C23   N2    S    
C20   N4    S    
