data_mof_unit_20662.cif
_audit_creation_date              2012-12-10T18:54:30-0500
_audit_creation_method            fapswitch 2.2
_symmetry_space_group_name_H-M    P1
_symmetry_Int_Tables_number       1
_space_group_crystal_system       triclinic
_cell_length_a                    19.440519
_cell_length_b                    18.264751
_cell_length_c                    9.062891
_cell_angle_alpha                 90.186619
_cell_angle_beta                  93.569294
_cell_angle_gamma                 90.074614
_cell_volume                      3211.75436661

loop_
_atom_site_label
_atom_site_type_symbol
_atom_type_description
_atom_site_fract_x
_atom_site_fract_y
_atom_site_fract_z
_atom_type_partial_charge
C1    C     C_R   0.367431 0.499871 0.501643 0.902658
C2    C     C_R   0.632077 0.499853 0.502019 0.951629
C3    C     C_R   0.460798 0.722575 0.393373 0.376587
C4    C     C_R   0.532428 0.277655 0.615300 0.380212
C5    C     C_R   0.539609 0.723728 0.604783 0.392082
C6    C     C_R   0.467420 0.277417 0.384545 0.385416
C7    C     C_R   0.459432 0.800083 0.393361 0.314567
C8    C     C_R   0.531087 0.200263 0.618493 0.337835
C9    C     C_R   0.539885 0.801175 0.604677 0.331387
C10   C     C_R   0.467547 0.200026 0.382064 0.340714
C11   C     C_R   0.499188 0.839862 0.499364 -0.047498
C12   C     C_R   0.499024 0.160560 0.500409 -0.103055
C13   C     C_R   0.453916 0.961033 0.587219 0.222287
C14   C     C_R   0.540517 0.039184 0.404849 0.229356
C15   C     C_R   0.543731 0.961112 0.411528 0.225354
C16   C     C_R   0.457091 0.039160 0.594616 0.230918
C17   C     C_R   0.498855 0.078100 0.500007 0.062975
C18   C     C_R   0.498844 0.922244 0.499197 0.123159
C19   C     C_R   0.499511 0.499957 0.220556 0.869542
C20   C     C_R   0.500166 0.500083 0.779406 0.865364
C21   C     C_1   0.499380 0.500059 0.065472 -0.138678
C22   C     C_1   0.499658 0.500188 0.934383 -0.142345
C23   C     C_R   0.739095 0.483733 0.371219 0.258793
C24   C     C_R   0.250934 0.555485 0.439915 0.277008
C25   C     C_R   0.258690 0.440698 0.578374 0.280035
C26   C     C_R   0.746819 0.507287 0.637228 0.244153
C27   C     C_R   0.811770 0.485749 0.370538 0.260922
C28   C     C_R   0.178352 0.549820 0.431695 0.267395
C29   C     C_R   0.186303 0.441466 0.588073 0.252855
C30   C     C_R   0.819090 0.498486 0.639662 0.261019
C31   C     C_R   0.851230 0.491679 0.505561 -0.096550
C32   C     C_R   0.146657 0.494186 0.509440 -0.100516
C33   C     C_R   0.707242 0.498586 0.503085 -0.267385
C34   C     C_R   0.291371 0.498874 0.506643 -0.300789
C35   C     C_R   0.964274 0.551731 0.566144 -0.127022
C36   C     C_R   0.033850 0.431904 0.453327 -0.129579
C37   C     C_R   0.035926 0.552206 0.568039 -0.121070
C38   C     C_R   0.962050 0.431491 0.451146 -0.125360
C39   C     C_R   0.071019 0.492447 0.511142 0.255217
C40   C     C_R   0.926985 0.491522 0.507251 0.249143
Cu1   Cu    Cu3+1 0.500000 0.573360 0.500000 0.959803
Cu2   Cu    Cu3+1 0.500000 0.426640 0.500000 0.972251
H1    H     H_    0.937761 0.598471 0.609597 0.149964
H2    H     H_    0.060444 0.385533 0.408661 0.148494
H3    H     H_    0.064115 0.599156 0.613495 0.150555
H4    H     H_    0.933811 0.384462 0.406260 0.150844
N1    N     N_R   0.500000 0.683620 0.500000 -0.308507
N2    N     N_R   0.500000 0.316380 0.500000 -0.314215
O1    O     O_R   0.400190 0.561980 0.499980 -0.595893
O2    O     O_R   0.599810 0.438020 0.500020 -0.615718
O3    O     O_R   0.599810 0.561980 0.500020 -0.600921
O4    O     O_R   0.400190 0.438020 0.499980 -0.582902
O5    O     O_R   0.500000 0.561940 0.288400 -0.576321
O6    O     O_R   0.500000 0.438060 0.711600 -0.541552
O7    O     O_R   0.500000 0.561940 0.711600 -0.598391
O8    O     O_R   0.500000 0.438060 0.288400 -0.561557
O9    O     O_3   0.698770 0.470478 0.242449 -0.596881
C41   C     C_3   0.698510 0.394316 0.213693 0.025476
H5    H     H_    0.673732 0.364028 0.302784 0.168744
H6    H     H_    0.751679 0.372850 0.204373 0.159176
C42   C     C_3   0.657915 0.379016 0.067895 -0.676056
H7    H     H_    0.660636 0.319802 0.040680 0.215856
H8    H     H_    0.679598 0.410986 0.977614 0.266614
H9    H     H_    0.603131 0.394108 0.076582 0.262790
O10   O     O_3   0.281925 0.614908 0.376505 -0.577870
C43   C     C_3   0.278829 0.676662 0.471418 0.089825
H10   H     H_    0.329135 0.682792 0.535345 0.175670
H11   H     H_    0.237968 0.673479 0.552627 0.133005
C44   C     C_3   0.265544 0.745470 0.379515 -0.714476
H12   H     H_    0.211752 0.745586 0.330785 0.224371
H13   H     H_    0.273400 0.794745 0.450730 0.219753
H14   H     H_    0.301067 0.748188 0.288647 0.303654
O11   O     O_3   0.298209 0.387751 0.652666 -0.551659
C45   C     C_3   0.293230 0.321363 0.571824 0.049340
H15   H     H_    0.314823 0.327790 0.461841 0.141308
H16   H     H_    0.238977 0.302108 0.554667 0.151704
C46   C     C_3   0.334022 0.262545 0.657324 -0.700372
H17   H     H_    0.333099 0.210813 0.592600 0.189833
H18   H     H_    0.311086 0.252361 0.764592 0.249126
H19   H     H_    0.388272 0.280406 0.679004 0.265519
O12   O     O_3   0.714014 0.518830 0.766617 -0.607257
C47   C     C_3   0.725195 0.592105 0.812929 0.032426
H20   H     H_    0.706665 0.631032 0.725090 0.178574
H21   H     H_    0.780728 0.603410 0.840761 0.173509
C48   C     C_3   0.686548 0.606296 0.951061 -0.693344
H22   H     H_    0.709486 0.573325 0.044069 0.267674
H23   H     H_    0.690271 0.665169 0.981520 0.216068
H24   H     H_    0.631419 0.591151 0.931537 0.256764
O13   O     O_3   0.845551 0.482147 0.240802 -0.719464
H25   H     H_    0.811758 0.487311 0.155125 0.356988
O14   O     O_3   0.136983 0.598289 0.349808 -0.719431
H26   H     H_    0.165266 0.625420 0.281154 0.366229
O15   O     O_3   0.152869 0.392357 0.674976 -0.723692
H27   H     H_    0.186924 0.367929 0.744025 0.360893
O16   O     O_3   0.859552 0.495432 0.770559 -0.716280
H28   H     H_    0.829870 0.486288 0.853534 0.360434
O17   O     O_3   0.422352 0.689025 0.279978 -0.719357
H29   H     H_    0.409448 0.640087 0.311139 0.398354
O18   O     O_3   0.567337 0.312189 0.732239 -0.682662
H30   H     H_    0.591994 0.354050 0.692162 0.353446
O19   O     O_3   0.580993 0.691502 0.714227 -0.740850
H31   H     H_    0.588554 0.640628 0.687435 0.376233
O20   O     O_3   0.433332 0.311694 0.266873 -0.676912
H32   H     H_    0.409216 0.354155 0.306147 0.344328
O21   O     O_3   0.413249 0.837239 0.298597 -0.557629
C49   C     C_3   0.440069 0.844348 0.158069 0.118833
H33   H     H_    0.421208 0.798313 0.085930 0.188373
H34   H     H_    0.497516 0.844941 0.161783 0.156968
C50   C     C_3   0.414114 0.915928 0.089687 -0.818152
H35   H     H_    0.434443 0.962731 0.157770 0.255528
H36   H     H_    0.431581 0.921737 0.976231 0.226879
H37   H     H_    0.356898 0.917203 0.084221 0.257163
O22   O     O_3   0.559949 0.163899 0.740816 -0.504904
C51   C     C_3   0.630393 0.151263 0.720662 0.099532
H38   H     H_    0.657521 0.202197 0.689222 0.144997
H39   H     H_    0.636192 0.108858 0.633901 0.150219
C52   C     C_3   0.665127 0.123833 0.864978 -0.737706
H40   H     H_    0.639728 0.072899 0.900127 0.246680
H41   H     H_    0.720306 0.112212 0.849944 0.193541
H42   H     H_    0.661531 0.166040 0.952684 0.260724
O23   O     O_3   0.585893 0.839402 0.698798 -0.536270
C53   C     C_3   0.559499 0.845969 0.839966 0.120495
H43   H     H_    0.579131 0.800202 0.911213 0.188009
H44   H     H_    0.502060 0.845575 0.837074 0.147521
C54   C     C_3   0.584701 0.917958 0.909096 -0.810611
H45   H     H_    0.563821 0.964460 0.841649 0.254194
H46   H     H_    0.567216 0.923435 0.022688 0.225015
H47   H     H_    0.641894 0.920140 0.914437 0.259695
O24   O     O_3   0.438106 0.163303 0.260145 -0.501472
C55   C     C_3   0.367347 0.152510 0.279961 0.090861
H48   H     H_    0.341035 0.204825 0.305458 0.138245
H49   H     H_    0.360365 0.112776 0.370699 0.144964
C56   C     C_3   0.332741 0.121697 0.137937 -0.732384
H50   H     H_    0.357162 0.069145 0.108998 0.243950
H51   H     H_    0.277199 0.111968 0.152685 0.190235
H52   H     H_    0.337751 0.161069 0.046035 0.265755
O25   O     O_3   0.407308 0.921076 0.663232 -0.754982
H53   H     H_    0.366891 0.952210 0.680134 0.336716
O26   O     O_3   0.577879 0.078937 0.308017 -0.711738
H54   H     H_    0.584435 0.048471 0.219397 0.340409
O27   O     O_3   0.590460 0.921290 0.335344 -0.745004
H55   H     H_    0.630780 0.952633 0.318495 0.339807
O28   O     O_3   0.419721 0.078926 0.691749 -0.718148
H56   H     H_    0.412906 0.048471 0.779879 0.341901

loop_
_geom_bond_atom_site_label_1
_geom_bond_atom_site_label_2
_ccdc_geom_bond_type
C19   O8    A    
C15   C18   A    
C43   H11   S    
C11   C18   S    
O15   H27   S    
C42   H9    S    
Cu1   Cu2   S    
O21   C49   S    
O16   H28   S    
C4    C8    A    
C51   H38   S    
C4    O18   S    
C46   H17   S    
C7    C11   A    
C5    N1    A    
O19   H31   S    
C45   H16   S    
C13   C18   A    
C35   C37   A    
O24   C55   S    
C29   C32   A    
C3    C7    A    
C52   H41   S    
C30   C31   A    
C46   H19   S    
C43   C44   S    
C49   H33   S    
C41   H6    S    
O28   H56   S    
C31   C40   S    
C42   H8    S    
O11   C45   S    
C32   C39   S    
C44   H13   S    
Cu1   O7    S    
C2    O2    A    
C50   H36   S    
Cu2   O8    S    
C15   O27   S    
C16   C17   A    
C23   C33   A    
C45   C46   S    
C1    O1    A    
C12   C17   S    
C54   H47   S    
C9    O23   S    
C7    O21   S    
C27   O13   S    
C23   C27   A    
C35   H1    S    
C25   C34   A    
C19   O5    A    
C41   C42   S    
C48   H23   S    
C43   H10   S    
C21   C22   T    
C14   C17   A    
C42   H7    S    
C20   O7    A    
Cu1   O1    S    
C29   O15   S    
C1    C34   S    
O17   H29   S    
C46   H18   S    
C25   C29   A    
C5    O19   S    
C45   H15   S    
C27   C31   A    
C28   C32   A    
C16   O28   S    
C20   O6    A    
C52   H42   S    
O14   H26   S    
C41   H5    S    
C48   H22   S    
C47   H20   S    
O12   C47   S    
C13   O25   S    
C44   H14   S    
C55   H49   S    
C5    C9    A    
C30   O16   S    
C56   H52   S    
C3    O17   S    
C26   C33   A    
O18   H30   S    
C8    C12   A    
Cu1   N1    S    
Cu2   N2    S    
C6    O20   S    
C9    C11   A    
Cu1   O5    S    
O23   C53   S    
C6    N2    A    
C10   C12   A    
C24   O10   S    
Cu2   O2    S    
C8    O22   S    
C2    C33   S    
C20   C22   S    
C26   C30   A    
C26   O12   S    
C47   H21   S    
C56   H50   S    
C50   H37   S    
C55   C56   S    
C37   H3    S    
C56   H51   S    
O22   C51   S    
C4    N2    A    
C48   H24   S    
C23   O9    S    
C19   C21   S    
C36   C39   A    
C24   C28   A    
C6    C10   A    
C51   H39   S    
O26   H54   S    
C47   C48   S    
O25   H53   S    
C53   C54   S    
C36   C38   A    
C55   H48   S    
C53   H43   S    
C10   O24   S    
C37   C39   A    
C52   H40   S    
Cu2   O6    S    
C38   C40   A    
O9    C41   S    
C54   H45   S    
C49   H34   S    
C3    N1    A    
C35   C40   A    
C28   O14   S    
C25   O11   S    
C44   H12   S    
C1    O4    A    
C24   C34   A    
C38   H4    S    
C51   C52   S    
C36   H2    S    
C2    O3    A    
C14   O26   S    
O10   C43   S    
C13   C16   A    
C50   H35   S    
O20   H32   S    
C54   H46   S    
C14   C15   A    
O13   H25   S    
O27   H55   S    
C53   H44   S    
Cu1   O3    S    
Cu2   O4    S    
C49   C50   S    
