data_mof_unit_12809.cif
_audit_creation_date              2012-12-10T18:15:25-0500
_audit_creation_method            fapswitch 2.2
_symmetry_space_group_name_H-M    P1
_symmetry_Int_Tables_number       1
_space_group_crystal_system       triclinic
_cell_length_a                    18.375223
_cell_length_b                    18.375165
_cell_length_c                    39.627496
_cell_angle_alpha                 90.000034
_cell_angle_beta                  90.0
_cell_angle_gamma                 89.781285
_cell_volume                      13380.0375564

loop_
_atom_site_label
_atom_site_type_symbol
_atom_type_description
_atom_site_fract_x
_atom_site_fract_y
_atom_site_fract_z
_atom_type_partial_charge
C1    C     C_R   0.934097 0.497142 0.431246 -0.169546
C2    C     C_R   0.565748 0.994333 0.068756 -0.171546
C3    C     C_R   0.316004 0.736425 0.733359 0.327011
C4    C     C_R   0.239372 0.291629 0.279229 0.326976
C5    C     C_R   0.767139 0.712585 0.719895 0.350345
C6    C     C_R   0.319256 0.734726 0.263502 0.313357
C7    C     C_R   0.683997 0.263573 0.733358 0.326990
C8    C     C_R   0.196507 0.696503 0.249998 -0.385127
C9    C     C_R   0.803941 0.303940 0.749999 -0.366909
C10   C     C_R   0.304137 0.195866 0.249999 -0.376090
C11   C     C_R   0.696626 0.803374 0.750000 -0.390640
C12   C     C_R   0.803496 0.303493 0.250002 -0.385153
C13   C     C_R   0.005659 0.434251 0.931244 -0.171553
C14   C     C_R   0.196060 0.696059 0.750000 -0.366892
C15   C     C_R   0.695869 0.804140 0.250001 -0.375967
C16   C     C_R   0.303374 0.196626 0.750000 -0.390645
C17   C     C_R   0.195863 0.304134 0.749999 -0.376064
C18   C     C_R   0.803375 0.696627 0.250000 -0.390667
C19   C     C_R   0.303495 0.803494 0.750000 -0.385037
C20   C     C_R   0.696060 0.196058 0.250003 -0.367045
C21   C     C_R   0.804137 0.695866 0.750000 -0.376088
C22   C     C_R   0.196628 0.303375 0.249999 -0.390645
C23   C     C_R   0.696506 0.196505 0.749999 -0.385051
C24   C     C_R   0.002857 0.565903 0.068754 -0.169549
C25   C     C_R   0.303942 0.803940 0.249998 -0.367006
C26   C     C_R   0.000000 0.499999 0.378155 0.000052
C27   C     C_R   1.000000 0.499999 0.621848 -0.005582
C28   C     C_R   0.500000 0.000000 0.378152 -0.005567
C29   C     C_R   0.500000 1.000000 0.621845 0.000053
C30   C     C_R   0.500000 0.999999 0.878155 0.000055
C31   C     C_R   0.500000 0.999998 0.121848 -0.005566
C32   C     C_R   0.000000 0.500000 0.878152 -0.005584
C33   C     C_R   0.000001 0.500000 0.121845 0.000052
C34   C     C_3   0.181123 0.927267 0.249564 0.135629
C35   C     C_R   0.565903 0.002852 0.931246 -0.169548
C36   C     C_3   0.162867 0.002979 0.236023 -0.317852
C37   C     C_3   0.123033 0.048946 0.262282 -1.012371
C38   C     C_3   0.756535 0.125715 0.817741 0.167370
C39   C     C_3   0.819977 0.150297 0.840056 -0.343949
C40   C     C_3   0.801805 0.141790 0.877427 -1.006778
C41   C     C_3   0.107047 0.225665 0.190968 0.186958
C42   C     C_3   0.122697 0.155362 0.171457 -0.354374
C43   C     C_3   0.053323 0.111587 0.165865 -1.004331
C44   C     C_3   0.789045 0.652543 0.824550 0.128739
C45   C     C_3   0.724069 0.673447 0.846808 -0.328406
C46   C     C_R   0.434252 0.005658 0.068756 -0.171555
C47   C     C_3   0.695610 0.607881 0.866330 -0.990790
C48   C     C_3   0.818676 0.072661 0.249620 0.135959
C49   C     C_3   0.837268 0.997071 0.236029 -0.317651
C50   C     C_3   0.876742 0.950983 0.262358 -1.012391
C51   C     C_3   0.243473 0.874276 0.817745 0.167356
C52   C     C_3   0.180034 0.849684 0.840060 -0.343960
C53   C     C_3   0.198207 0.858188 0.877430 -1.006768
C54   C     C_3   0.893035 0.774371 0.191005 0.187111
C55   C     C_3   0.877447 0.844682 0.171489 -0.354478
C56   C     C_3   0.946848 0.888429 0.165923 -1.004227
C57   C     C_R   0.994345 0.565749 0.931244 -0.171554
C58   C     C_3   0.210936 0.347443 0.824553 0.128749
C59   C     C_3   0.275941 0.326546 0.846795 -0.328447
C60   C     C_3   0.304387 0.392105 0.866326 -0.990772
C61   C     C_3   0.225658 0.107028 0.809024 0.187007
C62   C     C_3   0.155360 0.122663 0.828541 -0.354425
C63   C     C_3   0.111593 0.053282 0.834128 -1.004270
C64   C     C_3   0.652651 0.789203 0.175429 0.128930
C65   C     C_3   0.673528 0.724155 0.153209 -0.328616
C66   C     C_3   0.607972 0.695742 0.133665 -0.990761
C67   C     C_3   0.072723 0.818854 0.750431 0.135648
C68   C     C_R   0.997147 0.434096 0.068754 -0.169548
C69   C     C_3   0.997012 0.837112 0.763973 -0.317833
C70   C     C_3   0.951030 0.876910 0.737708 -1.012428
C71   C     C_3   0.874305 0.243448 0.182267 0.167368
C72   C     C_3   0.849728 0.180004 0.159952 -0.343908
C73   C     C_3   0.858237 0.198176 0.122581 -1.006796
C74   C     C_3   0.774339 0.892962 0.809029 0.186980
C75   C     C_3   0.844639 0.877318 0.828542 -0.354410
C76   C     C_3   0.888412 0.946695 0.834130 -1.004274
C77   C     C_3   0.347469 0.210957 0.175450 0.128766
C78   C     C_3   0.326587 0.275997 0.153226 -0.328476
C79   C     C_R   0.933999 0.497158 0.396061 -0.198452
C80   C     C_3   0.392150 0.304443 0.133697 -0.990778
C81   C     C_3   0.927291 0.181184 0.750421 0.135737
C82   C     C_3   0.002964 0.162825 0.763979 -0.317785
C83   C     C_3   0.048972 0.123103 0.737699 -1.012426
C84   C     C_3   0.125753 0.756513 0.182248 0.167297
C85   C     C_3   0.150409 0.819932 0.159935 -0.343950
C86   C     C_3   0.141906 0.801769 0.122564 -1.006755
C87   C     C_3   0.681130 0.427270 0.749568 0.135626
C88   C     C_3   0.662898 0.502993 0.736033 -0.317856
C89   C     C_3   0.623070 0.548960 0.762294 -1.012460
C90   C     C_R   0.065840 0.494366 0.603941 -0.202604
C91   C     C_3   0.256545 0.625699 0.317736 0.167329
C92   C     C_3   0.319968 0.650336 0.340049 -0.343898
C93   C     C_3   0.301804 0.641822 0.377420 -1.006784
C94   C     C_3   0.607039 0.725659 0.690973 0.186980
C95   C     C_3   0.622683 0.655358 0.671459 -0.354415
C96   C     C_3   0.553306 0.611583 0.665873 -1.004261
C97   C     C_3   0.289031 0.152534 0.324548 0.128733
C98   C     C_3   0.224014 0.173429 0.346783 -0.328429
C99   C     C_3   0.195558 0.107867 0.366309 -0.990789
C100  C     C_3   0.318852 0.572722 0.749573 0.135644
C101  C     C_R   0.505636 0.934160 0.396058 -0.202647
C102  C     C_3   0.337101 0.497006 0.736035 -0.317838
C103  C     C_3   0.376894 0.451026 0.762302 -1.012461
C104  C     C_3   0.743473 0.374271 0.317746 0.167325
C105  C     C_3   0.680043 0.349650 0.340059 -0.343941
C106  C     C_3   0.698206 0.358164 0.377430 -1.006768
C107  C     C_3   0.392972 0.274346 0.690978 0.187001
C108  C     C_3   0.377336 0.344647 0.671463 -0.354423
C109  C     C_3   0.446716 0.388417 0.665880 -1.004250
C110  C     C_3   0.710814 0.847382 0.324567 0.128991
C111  C     C_3   0.776023 0.826566 0.346699 -0.328799
C112  C     C_R   0.065749 0.494345 0.568756 -0.171552
C113  C     C_R   0.502840 0.066001 0.603939 -0.198452
C114  C     C_3   0.804416 0.892120 0.366251 -0.990699
C115  C     C_3   0.725637 0.606977 0.309002 0.187017
C116  C     C_3   0.655301 0.622592 0.328493 -0.354412
C117  C     C_3   0.611552 0.553196 0.334071 -1.004269
C118  C     C_3   0.152553 0.289076 0.675446 0.128825
C119  C     C_3   0.173423 0.224003 0.653239 -0.328551
C120  C     C_3   0.107861 0.195565 0.633708 -0.990759
C121  C     C_3   0.572720 0.318843 0.250429 0.135679
C122  C     C_3   0.497023 0.337139 0.263976 -0.317835
C123  C     C_3   0.451034 0.376914 0.237707 -1.012381
C124  C     C_R   0.066001 0.502840 0.396061 -0.198454
C125  C     C_3   0.374282 0.743464 0.682258 0.167364
C126  C     C_3   0.349701 0.680020 0.659944 -0.343958
C127  C     C_3   0.358208 0.698189 0.622573 -1.006770
C128  C     C_3   0.274336 0.392964 0.309026 0.186977
C129  C     C_3   0.344640 0.377326 0.328539 -0.354421
C130  C     C_3   0.388417 0.446705 0.334118 -1.004268
C131  C     C_3   0.847459 0.710955 0.675449 0.128758
C132  C     C_3   0.826571 0.775990 0.653223 -0.328468
C133  C     C_3   0.892128 0.804435 0.633691 -0.990773
C134  C     C_3   0.427324 0.681294 0.250384 0.135904
C135  C     C_R   0.934159 0.505632 0.603941 -0.202592
C136  C     C_3   0.502948 0.662784 0.263957 -0.317720
C137  C     C_3   0.549007 0.623240 0.237639 -1.012375
C138  C     C_3   0.625725 0.256530 0.682255 0.167354
C139  C     C_3   0.650316 0.319971 0.659941 -0.343965
C140  C     C_3   0.641809 0.301802 0.622571 -1.006766
C141  C     C_R   0.494366 0.065841 0.396058 -0.202582
C142  C     C_R   0.497161 0.933998 0.603939 -0.198452
C143  C     C_R   0.433999 0.997159 0.896061 -0.198453
C144  C     C_R   0.565840 0.994355 0.103942 -0.202641
C145  C     C_R   0.005637 0.434160 0.896058 -0.202598
C146  C     C_R   0.002841 0.566001 0.103939 -0.198456
C147  C     C_R   0.566001 0.002838 0.896061 -0.198452
C148  C     C_R   0.505657 0.934251 0.431244 -0.171552
C149  C     C_R   0.434160 0.005639 0.103941 -0.202588
C150  C     C_R   0.994364 0.565840 0.896059 -0.202588
C151  C     C_R   0.997161 0.433998 0.103939 -0.198449
C152  C     C_R   0.000000 0.499999 0.448797 0.160680
C153  C     C_R   0.000000 0.499999 0.551204 0.161435
C154  C     C_R   0.500001 0.000000 0.448796 0.161439
C155  C     C_R   0.500001 1.000000 0.551203 0.160682
C156  C     C_R   0.500000 0.999996 0.948797 0.160680
C157  C     C_R   0.500000 0.999995 0.051204 0.161437
C158  C     C_R   0.000002 0.500000 0.948796 0.161434
C159  C     C_R   0.502856 0.065903 0.568754 -0.169548
C160  C     C_R   0.000002 0.500000 0.051203 0.160681
C161  C     C_1   0.000000 0.499998 0.484864 -0.067558
C162  C     C_1   0.000000 0.499998 0.515138 -0.067918
C163  C     C_1   0.500001 0.000000 0.484862 -0.067921
C164  C     C_1   0.500001 1.000000 0.515136 -0.067559
C165  C     C_1   0.500000 0.999995 0.984864 -0.067559
C166  C     C_1   0.500000 0.999995 0.015137 -0.067921
C167  C     C_1   0.000002 0.500000 0.984863 -0.067917
C168  C     C_1   0.000002 0.500000 0.015136 -0.067559
C169  C     C_R   0.500000 1.000000 0.341029 0.761218
C170  C     C_R   0.065903 0.502855 0.431246 -0.169549
C171  C     C_R   0.500000 1.000000 0.658970 0.788111
C172  C     C_R   1.000000 0.500000 0.341030 0.788108
C173  C     C_R   1.000000 0.500000 0.658971 0.761221
C174  C     C_R   1.000000 0.500000 0.841029 0.761217
C175  C     C_R   0.000000 0.500000 0.158970 0.788108
C176  C     C_R   0.500000 1.000000 0.841030 0.788109
C177  C     C_R   0.500000 1.000000 0.158971 0.761203
C178  C     C_R   0.360040 0.139960 0.250000 0.871390
C179  C     C_R   0.640257 0.859743 0.750000 0.929417
C180  C     C_R   0.859751 0.359749 0.250000 0.903010
C181  C     C_R   0.934251 0.505652 0.568756 -0.171554
C182  C     C_R   0.140086 0.640086 0.750000 0.890443
C183  C     C_R   0.639960 0.860040 0.250000 0.871344
C184  C     C_R   0.359743 0.140257 0.750000 0.929408
C185  C     C_R   0.140251 0.640249 0.249999 0.902992
C186  C     C_R   0.859914 0.359914 0.750000 0.890414
C187  C     C_R   0.359750 0.859750 0.750000 0.903012
C188  C     C_R   0.640085 0.140086 0.250000 0.890270
C189  C     C_R   0.860040 0.639960 0.750000 0.871380
C190  C     C_R   0.140257 0.359743 0.250000 0.929423
C191  C     C_R   0.640250 0.140250 0.750000 0.903012
C192  C     C_R   0.494346 0.065749 0.431244 -0.171554
C193  C     C_R   0.359914 0.859915 0.250000 0.890327
C194  C     C_R   0.139960 0.360040 0.750000 0.871371
C195  C     C_R   0.859743 0.640257 0.250000 0.929355
C196  C     C_R   0.234730 0.819253 0.236493 0.313462
C197  C     C_R   0.763575 0.183996 0.766640 0.327062
C198  C     C_R   0.208375 0.260632 0.220769 0.326979
C199  C     C_R   0.787418 0.732864 0.780104 0.350344
C200  C     C_R   0.765275 0.180743 0.236500 0.313374
C201  C     C_R   0.236427 0.816003 0.766642 0.327013
C202  C     C_R   0.791665 0.739407 0.220778 0.327012
C203  C     C_R   0.497146 0.934096 0.568754 -0.169549
C204  C     C_R   0.212576 0.267130 0.780103 0.350379
C205  C     C_R   0.260623 0.208365 0.779228 0.326994
C206  C     C_R   0.732907 0.787461 0.219901 0.350423
C207  C     C_R   0.180746 0.765272 0.763506 0.313423
C208  C     C_R   0.816006 0.236421 0.233364 0.327236
C209  C     C_R   0.739373 0.791630 0.779230 0.326979
C210  C     C_R   0.267143 0.212588 0.219894 0.350340
C211  C     C_R   0.819255 0.234727 0.763505 0.313399
C212  C     C_R   0.184001 0.763570 0.233355 0.327008
C213  C     C_R   0.734728 0.319254 0.736494 0.313447
C214  C     C_R   0.434097 0.997142 0.931246 -0.169547
C215  C     C_R   0.263577 0.683995 0.266639 0.327209
C216  C     C_R   0.708371 0.760628 0.720770 0.326968
C217  C     C_R   0.287415 0.232861 0.280104 0.350359
C218  C     C_R   0.265272 0.680745 0.736495 0.313430
C219  C     C_R   0.736427 0.316002 0.266643 0.327032
C220  C     C_R   0.291634 0.239376 0.720771 0.326962
C221  C     C_R   0.712552 0.767106 0.280102 0.350395
C222  C     C_R   0.760599 0.708341 0.279223 0.326975
C223  C     C_R   0.232867 0.287421 0.719895 0.350346
C224  C     C_R   0.680746 0.265271 0.263507 0.313484
H1    H     H_    0.882870 0.494895 0.444747 0.134577
H2    H     H_    0.616856 0.989890 0.055255 0.135643
H3    H     H_    0.564476 0.678331 0.151334 0.261226
H4    H     H_    0.624657 0.648236 0.118134 0.274703
H5    H     H_    0.586218 0.738675 0.116654 0.268798
H6    H     H_    0.066803 0.783586 0.727698 0.106024
H7    H     H_    0.100226 0.870526 0.743189 0.156605
H8    H     H_    0.968999 0.786027 0.771317 0.253332
H9    H     H_    0.002344 0.872008 0.786746 0.229876
H10   H     H_    0.976570 0.929635 0.730970 0.270139
H11   H     H_    0.895986 0.887735 0.748113 0.265613
H12   H     H_    0.945257 0.843160 0.714652 0.261084
H13   H     H_    0.010096 0.383143 0.944745 0.135646
H14   H     H_    0.929168 0.260945 0.173865 0.158312
H15   H     H_    0.837585 0.291350 0.178444 0.105267
H16   H     H_    0.882419 0.130647 0.165922 0.247583
H17   H     H_    0.791518 0.168066 0.164887 0.248859
H18   H     H_    0.824838 0.246664 0.116010 0.269224
H19   H     H_    0.839661 0.151416 0.107110 0.277605
H20   H     H_    0.916143 0.209250 0.116481 0.261392
H21   H     H_    0.744405 0.937121 0.822281 0.166550
H22   H     H_    0.787442 0.914366 0.783369 0.121945
H23   H     H_    0.831321 0.852680 0.853392 0.243007
H24   H     H_    0.005105 0.617131 0.055253 0.134576
H25   H     H_    0.878845 0.838528 0.814105 0.252474
H26   H     H_    0.900943 0.973211 0.809615 0.281136
H27   H     H_    0.940437 0.933184 0.846983 0.274313
H28   H     H_    0.857313 0.985117 0.850272 0.271705
H29   H     H_    0.374271 0.169103 0.159414 0.162867
H30   H     H_    0.388622 0.227600 0.194612 0.090649
H31   H     H_    0.283679 0.259360 0.135049 0.243660
H32   H     H_    0.304701 0.320586 0.169262 0.232324
H33   H     H_    0.435630 0.321851 0.151376 0.261178
H34   H     H_    0.375463 0.351956 0.118170 0.274694
H35   H     H_    0.617131 0.005098 0.944747 0.134576
H36   H     H_    0.413927 0.261528 0.116683 0.268805
H37   H     H_    0.933276 0.216517 0.727713 0.106087
H38   H     H_    0.899762 0.129554 0.743134 0.156447
H39   H     H_    0.030996 0.213862 0.771380 0.253317
H40   H     H_    0.997564 0.127839 0.786719 0.229834
H41   H     H_    0.023368 0.070462 0.730875 0.270094
H42   H     H_    0.103961 0.112124 0.748131 0.265633
H43   H     H_    0.054883 0.156981 0.714691 0.261089
H44   H     H_    0.070891 0.739048 0.173829 0.158299
H45   H     H_    0.162446 0.708584 0.178441 0.105318
H46   H     H_    0.383144 0.010100 0.055254 0.135645
H47   H     H_    0.117765 0.869322 0.165901 0.247651
H48   H     H_    0.208628 0.831811 0.164880 0.248778
H49   H     H_    0.175249 0.753239 0.115999 0.269218
H50   H     H_    0.160553 0.848504 0.107095 0.277601
H51   H     H_    0.083989 0.790768 0.116455 0.261409
H52   H     H_    0.716378 0.433172 0.772310 0.106016
H53   H     H_    0.629448 0.399771 0.756796 0.156647
H54   H     H_    0.713994 0.531007 0.728707 0.253327
H55   H     H_    0.628029 0.497679 0.713250 0.229888
H56   H     H_    0.570334 0.523420 0.769013 0.270118
H57   H     H_    0.989907 0.616857 0.944746 0.135646
H58   H     H_    0.612264 0.604013 0.751895 0.265618
H59   H     H_    0.656790 0.554713 0.785361 0.261084
H60   H     H_    0.239087 0.570828 0.326144 0.158298
H61   H     H_    0.208617 0.662386 0.321553 0.105301
H62   H     H_    0.369352 0.617685 0.334081 0.247629
H63   H     H_    0.331856 0.708556 0.335110 0.248800
H64   H     H_    0.253259 0.675143 0.383986 0.269210
H65   H     H_    0.348528 0.660488 0.392891 0.277607
H66   H     H_    0.290827 0.583900 0.383528 0.261404
H67   H     H_    0.562878 0.755591 0.677722 0.166553
H68   H     H_    0.994900 0.382868 0.055252 0.134576
H69   H     H_    0.585637 0.712554 0.716633 0.121940
H70   H     H_    0.647318 0.668677 0.646609 0.243016
H71   H     H_    0.661475 0.621153 0.685896 0.252475
H72   H     H_    0.526793 0.599052 0.690388 0.281139
H73   H     H_    0.566817 0.559558 0.653020 0.274314
H74   H     H_    0.514882 0.642681 0.649732 0.271705
H75   H     H_    0.330887 0.125711 0.340575 0.162863
H76   H     H_    0.272358 0.111394 0.305385 0.090668
H77   H     H_    0.240679 0.216323 0.364962 0.243642
H78   H     H_    0.179422 0.195339 0.330756 0.232344
H79   H     H_    0.882357 0.494843 0.382928 0.153777
H80   H     H_    0.178121 0.064402 0.348629 0.261169
H81   H     H_    0.148061 0.124564 0.381845 0.274693
H82   H     H_    0.238476 0.086065 0.383314 0.268806
H83   H     H_    0.283583 0.566810 0.772308 0.106023
H84   H     H_    0.370526 0.600222 0.756814 0.156609
H85   H     H_    0.286014 0.468996 0.728692 0.253344
H86   H     H_    0.371999 0.502330 0.713262 0.229872
H87   H     H_    0.429624 0.476559 0.769037 0.270113
H88   H     H_    0.387708 0.395976 0.751902 0.265609
H89   H     H_    0.343146 0.445267 0.785360 0.261086
H90   H     H_    0.117340 0.489791 0.617079 0.167205
H91   H     H_    0.760952 0.429134 0.326158 0.158319
H92   H     H_    0.791389 0.337566 0.321560 0.105305
H93   H     H_    0.630666 0.382310 0.334089 0.247630
H94   H     H_    0.668143 0.291432 0.335121 0.248805
H95   H     H_    0.746722 0.324807 0.384000 0.269220
H96   H     H_    0.651462 0.339543 0.392900 0.277600
H97   H     H_    0.709227 0.416080 0.383534 0.261403
H98   H     H_    0.437134 0.244411 0.677729 0.166561
H99   H     H_    0.414368 0.287450 0.716639 0.121928
H100  H     H_    0.352705 0.331329 0.646612 0.243018
H101  H     H_    0.510213 0.882660 0.382921 0.167181
H102  H     H_    0.338543 0.378854 0.685898 0.252476
H103  H     H_    0.473225 0.400947 0.690396 0.281139
H104  H     H_    0.433210 0.440443 0.653026 0.274312
H105  H     H_    0.485142 0.357317 0.649741 0.271705
H106  H     H_    0.668983 0.874018 0.340675 0.162909
H107  H     H_    0.727246 0.888652 0.305422 0.090495
H108  H     H_    0.759590 0.783543 0.364858 0.243831
H109  H     H_    0.820582 0.804856 0.330594 0.232142
H110  H     H_    0.821593 0.935728 0.348590 0.261212
H111  H     H_    0.852071 0.875494 0.381698 0.274705
H112  H     H_    0.116857 0.489910 0.555254 0.135645
H113  H     H_    0.505155 0.117644 0.617072 0.153772
H114  H     H_    0.761549 0.913706 0.383342 0.268805
H115  H     H_    0.755565 0.562827 0.322263 0.166560
H116  H     H_    0.712580 0.585572 0.283337 0.121947
H117  H     H_    0.668568 0.647246 0.353345 0.243074
H118  H     H_    0.621100 0.661361 0.314041 0.252409
H119  H     H_    0.599111 0.526640 0.309555 0.281125
H120  H     H_    0.559480 0.566693 0.346887 0.274313
H121  H     H_    0.642626 0.514814 0.350243 0.271713
H122  H     H_    0.125785 0.330926 0.659396 0.162872
H123  H     H_    0.111376 0.272473 0.694604 0.090609
H124  H     H_    0.117644 0.505156 0.382929 0.153778
H125  H     H_    0.216350 0.240604 0.635065 0.243688
H126  H     H_    0.195280 0.179422 0.669288 0.232293
H127  H     H_    0.064362 0.178194 0.651385 0.261191
H128  H     H_    0.124537 0.148027 0.618194 0.274698
H129  H     H_    0.086112 0.238470 0.616682 0.268803
H130  H     H_    0.566775 0.283552 0.227704 0.106053
H131  H     H_    0.600234 0.370499 0.243171 0.156535
H132  H     H_    0.469001 0.286071 0.271339 0.253319
H133  H     H_    0.502381 0.372065 0.286739 0.229870
H134  H     H_    0.476594 0.429614 0.230943 0.270166
H135  H     H_    0.882660 0.510208 0.617079 0.167211
H136  H     H_    0.396006 0.387786 0.248120 0.265627
H137  H     H_    0.445219 0.343125 0.214665 0.261068
H138  H     H_    0.429140 0.760968 0.673852 0.158330
H139  H     H_    0.337556 0.791364 0.678439 0.105283
H140  H     H_    0.382390 0.630663 0.665914 0.247593
H141  H     H_    0.291490 0.668085 0.664880 0.248854
H142  H     H_    0.324815 0.746681 0.616002 0.269224
H143  H     H_    0.339625 0.651431 0.607102 0.277601
H144  H     H_    0.416116 0.709256 0.616472 0.261396
H145  H     H_    0.244402 0.437121 0.322279 0.166539
H146  H     H_    0.489789 0.117340 0.382921 0.167210
H147  H     H_    0.287436 0.414367 0.283366 0.121963
H148  H     H_    0.331325 0.352701 0.353392 0.243001
H149  H     H_    0.378841 0.338527 0.314104 0.252473
H150  H     H_    0.400947 0.473206 0.309599 0.281147
H151  H     H_    0.440442 0.433199 0.346971 0.274309
H152  H     H_    0.357321 0.485139 0.350254 0.271689
H153  H     H_    0.874263 0.669101 0.659413 0.162868
H154  H     H_    0.888613 0.727605 0.694609 0.090667
H155  H     H_    0.783659 0.759348 0.635049 0.243662
H156  H     H_    0.804686 0.820581 0.669258 0.232323
H157  H     H_    0.494846 0.882356 0.617071 0.153770
H158  H     H_    0.935612 0.821846 0.651367 0.261173
H159  H     H_    0.875438 0.851947 0.618164 0.274695
H160  H     H_    0.913903 0.761519 0.616677 0.268805
H161  H     H_    0.433393 0.716770 0.227729 0.106146
H162  H     H_    0.399772 0.629734 0.243010 0.156165
H163  H     H_    0.530987 0.713750 0.271457 0.253320
H164  H     H_    0.497463 0.627626 0.286636 0.229790
H165  H     H_    0.523404 0.570656 0.230717 0.270090
H166  H     H_    0.603966 0.612166 0.248083 0.265626
H167  H     H_    0.554986 0.657280 0.214686 0.261032
H168  H     H_    0.382357 0.994845 0.882928 0.153771
H169  H     H_    0.570866 0.239032 0.673847 0.158327
H170  H     H_    0.662446 0.208627 0.678439 0.105290
H171  H     H_    0.617632 0.369332 0.665911 0.247601
H172  H     H_    0.708527 0.331898 0.664879 0.248842
H173  H     H_    0.675196 0.253304 0.616001 0.269223
H174  H     H_    0.660401 0.348557 0.607101 0.277601
H175  H     H_    0.583900 0.290745 0.616468 0.261398
H176  H     H_    0.617338 0.989772 0.117079 0.167181
H177  H     H_    0.010215 0.382660 0.882921 0.167208
H178  H     H_    0.005156 0.617644 0.117071 0.153778
H179  H     H_    0.617644 0.005153 0.882929 0.153770
H180  H     H_    0.510093 0.883143 0.444745 0.135644
H181  H     H_    0.382661 0.010222 0.117079 0.167208
H182  H     H_    0.989786 0.617340 0.882921 0.167212
H183  H     H_    0.994846 0.382356 0.117071 0.153771
H184  H     H_    0.216374 0.933187 0.272303 0.106027
H185  H     H_    0.129449 0.899756 0.256796 0.156621
H186  H     H_    0.213954 0.031004 0.228692 0.253299
H187  H     H_    0.127994 0.997646 0.213242 0.229897
H188  H     H_    0.070308 0.023392 0.269008 0.270195
H189  H     H_    0.112204 0.103990 0.251877 0.265626
H190  H     H_    0.156761 0.054725 0.285345 0.261068
H191  H     H_    0.505102 0.117131 0.555253 0.134577
H192  H     H_    0.739033 0.070856 0.826147 0.158325
H193  H     H_    0.708634 0.162439 0.821560 0.105279
H194  H     H_    0.869335 0.117608 0.834087 0.247588
H195  H     H_    0.831912 0.208508 0.835120 0.248855
H196  H     H_    0.753313 0.175184 0.883997 0.269225
H197  H     H_    0.848562 0.160373 0.892898 0.277602
H198  H     H_    0.790738 0.083882 0.883528 0.261395
H199  H     H_    0.062891 0.255596 0.177712 0.166534
H200  H     H_    0.085637 0.212564 0.216626 0.121968
H201  H     H_    0.147342 0.168678 0.146608 0.243023
H202  H     H_    0.117131 0.505102 0.444747 0.134577
H203  H     H_    0.161483 0.121158 0.185898 0.252470
H204  H     H_    0.026799 0.099060 0.190379 0.281147
H205  H     H_    0.066839 0.059560 0.153015 0.274316
H206  H     H_    0.014906 0.142683 0.149720 0.271709
H207  H     H_    0.830917 0.625699 0.840561 0.162854
H208  H     H_    0.772331 0.611416 0.805388 0.090675
H209  H     H_    0.740779 0.716317 0.864990 0.243586
H210  H     H_    0.679465 0.695392 0.830798 0.232407
H211  H     H_    0.678113 0.564447 0.848647 0.261181
H212  H     H_    0.648154 0.624589 0.881890 0.274694
H213  H     H_    0.883143 0.510087 0.555254 0.135646
H214  H     H_    0.738548 0.586033 0.883313 0.268800
H215  H     H_    0.783150 0.066536 0.272254 0.106212
H216  H     H_    0.870202 0.100236 0.257030 0.156031
H217  H     H_    0.786342 0.969023 0.228478 0.253337
H218  H     H_    0.872503 0.002618 0.213379 0.229737
H219  H     H_    0.929237 0.976653 0.269368 0.270062
H220  H     H_    0.887979 0.896084 0.251883 0.265637
H221  H     H_    0.842572 0.944851 0.285259 0.261082
H222  H     H_    0.260971 0.929135 0.826152 0.158326
H223  H     H_    0.291376 0.837554 0.821560 0.105290
H224  H     H_    0.489909 0.116858 0.444746 0.135645
H225  H     H_    0.130673 0.882369 0.834092 0.247599
H226  H     H_    0.168106 0.791473 0.835121 0.248845
H227  H     H_    0.246704 0.824799 0.883999 0.269224
H228  H     H_    0.151453 0.839596 0.892901 0.277601
H229  H     H_    0.209266 0.916097 0.883533 0.261396
H230  H     H_    0.937200 0.744424 0.177764 0.166593
H231  H     H_    0.914410 0.787461 0.216671 0.121868
H232  H     H_    0.852837 0.831378 0.146631 0.242992
H233  H     H_    0.838652 0.878900 0.185916 0.252463
H234  H     H_    0.973339 0.900941 0.190446 0.281099
H235  H     H_    0.494899 0.882869 0.555252 0.134576
H236  H     H_    0.933374 0.940464 0.153071 0.274312
H237  H     H_    0.985277 0.857320 0.149789 0.271710
H238  H     H_    0.169069 0.374260 0.840577 0.162866
H239  H     H_    0.227616 0.388589 0.805394 0.090665
H240  H     H_    0.259266 0.283650 0.864971 0.243623
H241  H     H_    0.320541 0.304637 0.830772 0.232368
H242  H     H_    0.321839 0.435569 0.848648 0.261179
H243  H     H_    0.351871 0.375405 0.881869 0.274694
H244  H     H_    0.261457 0.413909 0.883324 0.268802
H245  H     H_    0.255596 0.062867 0.822273 0.166563
H246  H     H_    0.382870 0.994896 0.944747 0.134576
H247  H     H_    0.212552 0.085630 0.783364 0.121913
H248  H     H_    0.168681 0.147296 0.853392 0.243007
H249  H     H_    0.121149 0.161454 0.814107 0.252469
H250  H     H_    0.099063 0.026767 0.809612 0.281116
H251  H     H_    0.059567 0.066787 0.846981 0.274317
H252  H     H_    0.142696 0.014860 0.850268 0.271707
H253  H     H_    0.625918 0.831083 0.159383 0.162880
H254  H     H_    0.611443 0.772590 0.194570 0.090531
H255  H     H_    0.716463 0.740775 0.135043 0.243650
H256  H     H_    0.695375 0.679553 0.169249 0.232349
O1    O     O_3   0.500000 0.000000 0.250000 -0.503377
O2    O     O_R   0.500000 0.939240 0.675070 -0.656353
O3    O     O_R   0.939240 0.500000 0.324930 -0.656347
O4    O     O_R   0.060760 0.500000 0.675070 -0.644027
O5    O     O_R   0.000000 0.439240 0.824930 -0.644028
O6    O     O_R   0.000000 0.560760 0.175070 -0.656349
O7    O     O_R   0.560760 1.000000 0.824930 -0.656355
O8    O     O_R   0.439240 0.000000 0.175070 -0.644016
O9    O     O_R   1.000000 0.560760 0.824930 -0.644023
O10   O     O_R   0.000000 0.439240 0.175070 -0.656354
O11   O     O_R   0.439240 1.000000 0.824930 -0.656355
O12   O     O_3   0.500000 0.000000 0.750000 -0.488165
O13   O     O_R   0.560760 0.000000 0.175070 -0.644064
O14   O     O_R   0.414510 0.146130 0.269710 -0.624577
O15   O     O_R   0.585490 0.853870 0.730290 -0.636327
O16   O     O_R   0.853870 0.414510 0.269710 -0.633400
O17   O     O_R   0.146130 0.585490 0.730290 -0.607666
O18   O     O_R   0.585490 0.853870 0.269710 -0.624530
O19   O     O_R   0.414510 0.146130 0.730290 -0.636327
O20   O     O_R   0.146130 0.585490 0.269710 -0.633429
O21   O     O_R   0.853870 0.414510 0.730290 -0.607654
O22   O     O_R   0.414510 0.853870 0.730290 -0.633409
O23   O     O_3   1.000000 0.500000 0.250000 -0.488162
O24   O     O_R   0.585490 0.146130 0.269710 -0.607639
O25   O     O_R   0.853870 0.585490 0.730290 -0.624608
O26   O     O_R   0.146130 0.414510 0.269710 -0.636332
O27   O     O_R   0.585490 0.146130 0.730290 -0.633404
O28   O     O_R   0.414510 0.853870 0.269710 -0.607703
O29   O     O_R   0.146130 0.414510 0.730290 -0.624616
O30   O     O_R   0.853870 0.585490 0.269710 -0.636324
O31   O     O_R   0.914510 0.646130 0.769710 -0.624597
O32   O     O_R   0.085490 0.353870 0.230290 -0.636326
O33   O     O_R   0.353870 0.914510 0.769710 -0.633409
O34   O     O_3   0.000000 0.500000 0.750000 -0.503378
O35   O     O_R   0.646130 0.085490 0.230290 -0.607701
O36   O     O_R   0.085490 0.353870 0.769710 -0.624549
O37   O     O_R   0.914510 0.646130 0.230290 -0.636330
O38   O     O_R   0.646130 0.085490 0.769710 -0.633416
O39   O     O_R   0.353870 0.914510 0.230290 -0.607634
O40   O     O_R   0.914510 0.353870 0.230290 -0.633435
O41   O     O_R   0.085490 0.646130 0.769710 -0.607667
O42   O     O_R   0.353870 0.085490 0.230290 -0.624596
O43   O     O_R   0.646130 0.914510 0.769710 -0.636329
O44   O     O_R   0.085490 0.646130 0.230290 -0.633390
O45   O     O_R   0.500000 0.939240 0.324930 -0.644048
O46   O     O_R   0.914510 0.353870 0.769710 -0.607676
O47   O     O_R   0.646130 0.914510 0.230290 -0.624476
O48   O     O_R   0.353870 0.085490 0.769710 -0.636329
O49   O     O_3   0.217717 0.887662 0.224140 -0.602478
O50   O     O_3   0.778210 0.119483 0.783488 -0.613603
O51   O     O_3   0.168734 0.271892 0.191453 -0.620145
O52   O     O_3   0.821337 0.715275 0.810284 -0.616905
O53   O     O_3   0.782305 0.112336 0.224152 -0.602488
O54   O     O_3   0.221795 0.880513 0.783492 -0.613645
O55   O     O_3   0.831329 0.728170 0.191466 -0.620152
O56   O     O_R   0.500000 0.060760 0.675070 -0.656352
O57   O     O_3   0.178651 0.284711 0.810282 -0.616912
O58   O     O_3   0.271879 0.168720 0.808544 -0.620157
O59   O     O_3   0.715381 0.821435 0.189727 -0.616933
O60   O     O_3   0.112338 0.782285 0.775860 -0.602493
O61   O     O_3   0.880523 0.221777 0.216522 -0.613469
O62   O     O_3   0.728114 0.831273 0.808545 -0.620155
O63   O     O_3   0.284732 0.178671 0.189714 -0.616908
O64   O     O_3   0.887662 0.217711 0.775857 -0.602493
O65   O     O_3   0.119498 0.778198 0.216498 -0.613655
O66   O     O_3   0.717716 0.387664 0.724142 -0.602492
O67   O     O_R   0.060760 0.500000 0.324930 -0.656352
O68   O     O_3   0.278219 0.619479 0.283482 -0.613494
O69   O     O_3   0.668726 0.771885 0.691455 -0.620143
O70   O     O_3   0.321327 0.215268 0.310285 -0.616894
O71   O     O_3   0.282286 0.612335 0.724143 -0.602495
O72   O     O_3   0.721795 0.380512 0.283494 -0.613647
O73   O     O_3   0.331282 0.228122 0.691457 -0.620132
O74   O     O_3   0.678591 0.784638 0.310279 -0.616924
O75   O     O_3   0.771842 0.668681 0.308536 -0.620104
O76   O     O_3   0.215292 0.321348 0.689716 -0.616905
O77   O     O_3   0.612338 0.282286 0.275860 -0.602488
O78   O     O_R   0.939240 0.500000 0.675070 -0.644020
O79   O     O_3   0.380516 0.721791 0.716511 -0.613644
O80   O     O_3   0.228115 0.331272 0.308545 -0.620145
O81   O     O_3   0.784725 0.678666 0.689715 -0.616901
O82   O     O_3   0.387665 0.717696 0.275849 -0.602476
O83   O     O_3   0.619487 0.278206 0.716508 -0.613657
O84   O     O_R   0.500000 0.060760 0.324930 -0.644019
Zn1   Zn    Zn3+2 0.413200 1.000000 0.222070 0.962982
Zn2   Zn    Zn3+2 0.086800 0.500000 0.277930 0.954551
Zn3   Zn    Zn3+2 0.500000 0.913200 0.722070 0.954554
Zn4   Zn    Zn3+2 0.500000 0.086800 0.277930 0.962984
Zn5   Zn    Zn3+2 0.086800 0.500000 0.722070 0.962973
Zn6   Zn    Zn3+2 0.913200 0.500000 0.277930 0.954547
Zn7   Zn    Zn3+2 0.500000 0.086800 0.722070 0.954554
Zn8   Zn    Zn3+2 0.500000 0.913200 0.277930 0.962960
Zn9   Zn    Zn3+2 0.586800 0.000000 0.777930 0.954551
Zn10  Zn    Zn3+2 1.000000 0.413200 0.222070 0.954553
Zn11  Zn    Zn3+2 1.000000 0.586800 0.777930 0.962980
Zn12  Zn    Zn3+2 0.586800 1.000000 0.222070 0.962960
Zn13  Zn    Zn3+2 0.413200 0.000000 0.777930 0.954548
Zn14  Zn    Zn3+2 1.000000 0.586800 0.222070 0.954545
Zn15  Zn    Zn3+2 0.000000 0.413200 0.777930 0.962988
Zn16  Zn    Zn3+2 0.913200 0.500000 0.722070 0.962982

loop_
_geom_bond_atom_site_label_1
_geom_bond_atom_site_label_2
_ccdc_geom_bond_type
C101  C148  A    
C126  C127  S    
C42   H201  S    
C218  O71   S    
C108  H100  S    
C186  O46   A    
C121  H131  S    
C171  O2    A    
C220  O73   S    
C55   C56   S    
C76   H26   S    
C208  O61   S    
C64   H254  S    
O45   Zn8   S    
C39   H194  S    
C97   H76   S    
C112  H112  S    
C40   H197  S    
C47   H212  S    
C133  H160  S    
C44   O52   S    
C140  H175  S    
C65   H255  S    
O16   Zn6   S    
C71   O61   S    
C206  O59   S    
C6    C25   A    
C1    H1    S    
C174  O9    A    
C108  C109  S    
C27   C90   A    
C110  C111  S    
C187  O33   A    
C29   C113  A    
C209  O62   S    
O12   Zn3   S    
C57   H57   S    
C119  H126  S    
C147  H179  S    
C6    C215  A    
C131  H153  S    
C66   H3    S    
C145  H177  S    
C178  O42   A    
C3    C19   A    
C22   C190  S    
C106  H96   S    
C11   C216  A    
C61   O58   S    
C207  O60   S    
O23   Zn6   S    
C26   C172  S    
C59   C60   S    
C200  C208  A    
C213  O66   S    
C64   O59   S    
C110  O74   S    
C30   C176  S    
C104  C105  S    
C14   C182  S    
C158  C167  S    
C120  H127  S    
O32   Zn10  S    
C45   C47   S    
C60   H243  S    
C56   H237  S    
C68   C160  A    
C51   C52   S    
C83   H41   S    
C49   H217  S    
C114  H111  S    
C132  H156  S    
C42   H203  S    
C69   H8    S    
C74   H21   S    
C110  H107  S    
C13   H13   S    
C32   C145  A    
C9    C213  A    
O4    Zn5   S    
O3    Zn6   S    
C30   C143  A    
C137  H165  S    
C199  C209  A    
C125  O79   S    
C118  H122  S    
C75   C76   S    
C86   H49   S    
C54   O55   S    
C197  C211  A    
C152  C170  A    
O12   Zn7   S    
O17   Zn5   S    
C177  O8    A    
C20   C224  A    
O1    Zn1   S    
C193  O39   A    
C94   O69   S    
C195  O37   A    
O34   Zn15  S    
C108  H102  S    
O44   Zn14  S    
C104  H92   S    
C43   H206  S    
C91   H61   S    
C176  O11   A    
C11   C179  S    
O10   Zn10  S    
C76   H28   S    
C41   H200  S    
C91   C92   S    
C2    H2    S    
C117  H119  S    
C4    O80   S    
C193  O28   A    
C130  H152  S    
C179  O15   A    
C120  H129  S    
C38   H193  S    
C84   O65   S    
C72   C73   S    
O20   Zn2   S    
C93   H64   S    
C139  C140  S    
C16   C184  S    
C45   H209  S    
C122  H132  S    
C86   H51   S    
C107  H99   S    
C199  O52   S    
C175  O6    A    
C173  O78   A    
C210  O63   S    
C5    C216  A    
C2    C157  A    
C103  H87   S    
C50   H219  S    
C99   H81   S    
C96   H73   S    
C160  C168  S    
C69   C70   S    
C98   H78   S    
C88   H55   S    
C15   C206  A    
C196  C212  A    
C53   H227  S    
C52   H226  S    
C88   C89   S    
C98   C99   S    
C68   C151  A    
C122  H133  S    
C14   C218  A    
C198  O51   S    
C123  H137  S    
C176  O7    A    
O40   Zn10  S    
C63   H252  S    
C136  H164  S    
C81   H37   S    
C138  H169  S    
C2    C144  A    
C55   H232  S    
C13   C145  A    
C137  H166  S    
C109  H105  S    
C97   C98   S    
C113  H113  S    
C127  H144  S    
O35   Zn12  S    
C89   H58   S    
C84   H45   S    
C78   H31   S    
C94   H69   S    
C36   C37   S    
C38   C39   S    
C214  H246  S    
C78   C80   S    
O12   Zn9   S    
C39   H195  S    
C115  C116  S    
C102  H86   S    
C19   C201  A    
C1    C152  A    
C116  H118  S    
C69   H9    S    
C20   C200  A    
C109  H104  S    
C219  C224  A    
C126  H141  S    
C10   C210  A    
C73   H18   S    
C173  O4    A    
C70   H12   S    
C48   H215  S    
O33   Zn13  S    
C43   H204  S    
O23   Zn10  S    
C143  H168  S    
C172  O67   A    
C181  H213  S    
C104  O72   S    
C152  C161  S    
C70   H11   S    
C130  H150  S    
O14   Zn4   S    
C46   H46   S    
C17   C194  S    
C141  C192  A    
C58   H239  S    
C21   C199  A    
C92   H63   S    
C155  C203  A    
C188  O24   A    
C194  O36   A    
C174  O5    A    
C155  C159  A    
C95   H70   S    
C219  O72   S    
O30   Zn6   S    
C77   H29   S    
C9    C186  S    
C33   C151  A    
O38   Zn9   S    
C39   C40   S    
C35   C147  A    
O12   Zn13  S    
C60   H242  S    
C113  C159  A    
C146  H178  S    
C111  H108  S    
C59   H240  S    
C169  O45   A    
C221  C222  A    
C17   C223  A    
C205  O58   S    
C20   C188  S    
C4    C22   A    
C28   C169  S    
C21   C189  S    
C141  H146  S    
C44   H207  S    
O47   Zn12  S    
C32   C150  A    
C135  H135  S    
C29   C171  S    
C25   C196  A    
C63   H250  S    
C12   C180  S    
C82   H40   S    
C202  O55   S    
C182  O41   A    
C56   H234  S    
C135  C181  A    
C204  O57   S    
C190  O26   A    
C87   O66   S    
C52   C53   S    
C16   C205  A    
O1    Zn4   S    
C48   H216  S    
C129  C130  S    
C154  C192  A    
C54   C55   S    
C47   H211  S    
C94   H67   S    
C121  H130  S    
C136  C137  S    
C117  H120  S    
C124  H124  S    
C80   H33   S    
C183  O18   A    
C40   H198  S    
C41   O51   S    
C27   C135  A    
C133  H159  S    
C7    O83   S    
C71   C72   S    
C129  H149  S    
C73   H20   S    
C115  H116  S    
O56   Zn7   S    
C7    C23   A    
O6    Zn14  S    
C144  H176  S    
C16   C220  A    
C34   C36   S    
C61   C62   S    
C198  C210  A    
C33   C146  A    
C67   H7    S    
C191  O38   A    
C119  H125  S    
C46   C149  A    
C204  C205  A    
C49   C50   S    
C66   H4    S    
C180  O16   A    
C28   C141  A    
C170  H202  S    
C8    C212  A    
C88   H54   S    
C105  H94   S    
C220  C223  A    
C134  O82   S    
C99   H80   S    
O5    Zn15  S    
C10   C217  A    
C37   H190  S    
O1    Zn8   S    
C57   C158  A    
C148  H180  S    
C149  H181  S    
C41   C42   S    
O9    Zn11  S    
C169  O84   A    
C175  O10   A    
C161  C162  T    
C120  H128  S    
C77   C78   S    
C60   H244  S    
C66   H5    S    
C51   H222  S    
C148  C154  A    
C127  H142  S    
C134  H161  S    
C74   H22   S    
C84   H44   S    
O29   Zn5   S    
C34   H185  S    
C118  H123  S    
O42   Zn1   S    
C90   H90   S    
C19   C187  S    
C100  H83   S    
C62   H248  S    
C28   C101  A    
C211  O64   S    
C95   C96   S    
C67   O60   S    
C15   C183  S    
C139  H172  S    
C56   H236  S    
C58   O57   S    
C90   C112  A    
O25   Zn16  S    
C54   H230  S    
C118  O76   S    
C53   H229  S    
C14   C207  A    
C128  C129  S    
O67   Zn2   S    
C197  O50   S    
C43   H205  S    
C114  H114  S    
C71   H14   S    
C26   C124  A    
C41   H199  S    
C188  O35   A    
O15   Zn3   S    
C184  O19   A    
C64   H253  S    
C30   C147  A    
C84   C85   S    
C92   H62   S    
C167  C168  T    
C53   H228  S    
C151  H183  S    
C58   C59   S    
C85   C86   S    
C32   C174  S    
C186  O21   A    
C196  O49   S    
C36   H187  S    
C5    C21   A    
C95   H71   S    
C117  H121  S    
C62   C63   S    
C222  O75   S    
C131  H154  S    
C50   H220  S    
C201  C207  A    
C18   C202  A    
C96   H74   S    
C48   O53   S    
C6    O82   S    
C121  C122  S    
C106  H95   S    
O7    Zn9   S    
C93   H66   S    
C48   C49   S    
C153  C181  A    
C187  O22   A    
C68   H68   S    
C125  C126  S    
C8    C185  S    
C172  O3    A    
C128  O80   S    
C80   H34   S    
C42   C43   S    
O39   Zn1   S    
C131  C132  S    
C79   H79   S    
C75   H23   S    
C44   C45   S    
C85   H48   S    
C115  O75   S    
C63   H251  S    
C50   H221  S    
C138  H170  S    
C18   C195  S    
C22   C198  A    
C83   H42   S    
C159  H191  S    
C49   H218  S    
C114  H110  S    
C132  H155  S    
C103  H89   S    
C191  O27   A    
C119  C120  S    
C150  H182  S    
C127  H143  S    
C125  H139  S    
C105  C106  S    
C26   C79   A    
C93   H65   S    
C153  C162  S    
C46   C157  A    
C78   H32   S    
C64   C65   S    
C85   H47   S    
C215  O68   S    
O21   Zn16  S    
C24   C146  A    
C61   H245  S    
C156  C165  S    
C77   O63   S    
C47   H214  S    
C3    O79   S    
C92   C93   S    
C111  C114  S    
C89   H56   S    
C94   C95   S    
C18   C222  A    
C34   O49   S    
C91   O68   S    
C109  H103  S    
C183  O47   A    
C138  C139  S    
C212  O65   S    
C97   O70   S    
C184  O48   A    
C25   C193  S    
O26   Zn2   S    
C185  O44   A    
C87   C88   S    
C82   C83   S    
C107  O73   S    
O28   Zn8   S    
C104  H91   S    
C34   H184  S    
C38   O50   S    
O48   Zn13  S    
C75   H25   S    
C76   H27   S    
O31   Zn11  S    
C123  H136  S    
C51   O54   S    
C71   H15   S    
C130  H151  S    
C165  C166  T    
C201  O54   S    
O19   Zn7   S    
C111  H109  S    
C163  C164  T    
C97   H75   S    
C178  O14   A    
C110  H106  S    
C8    C215  A    
C27   C173  S    
C23   C191  S    
C81   C82   S    
O34   Zn5   S    
C51   H223  S    
C189  O31   A    
C81   O64   S    
O22   Zn3   S    
C128  H145  S    
O24   Zn4   S    
C45   H210  S    
C31   C177  S    
C31   C149  A    
C12   C208  A    
C192  H224  S    
O34   Zn16  S    
C100  O71   S    
C87   H53   S    
O13   Zn12  S    
C103  H88   S    
C182  O17   A    
O11   Zn13  S    
O18   Zn8   S    
C116  C117  S    
C99   H82   S    
C177  O13   A    
C70   H10   S    
C31   C144  A    
C98   H77   S    
C203  H235  S    
C118  C119  S    
C74   O62   S    
O1    Zn12  S    
C52   H225  S    
C44   H208  S    
C67   H6    S    
C132  C133  S    
O46   Zn15  S    
C72   H16   S    
C80   H36   S    
C223  O76   S    
C12   C219  A    
C194  O29   A    
O23   Zn14  S    
C171  O56   A    
C136  H163  S    
O8    Zn1   S    
C81   H38   S    
C5    O81   S    
C102  C103  S    
C142  H157  S    
C137  H167  S    
C4    C217  A    
O27   Zn7   S    
C101  H101  S    
C217  O70   S    
C89   H59   S    
C74   C75   S    
C10   C178  S    
C35   H35   S    
C154  C163  S    
C35   C156  A    
C200  O53   S    
C224  O77   S    
C195  O30   A    
C38   H192  S    
C134  C136  S    
C61   H247  S    
C102  H85   S    
C65   H256  S    
C59   H241  S    
C116  H117  S    
C67   C69   S    
C179  O43   A    
C133  H158  S    
C15   C221  A    
C17   C204  A    
C96   H72   S    
O78   Zn16  S    
C129  H148  S    
C126  H140  S    
C73   H19   S    
C115  H115  S    
C107  C108  S    
C57   C150  A    
C100  C102  S    
C36   H186  S    
C91   H60   S    
C138  O83   S    
C140  H173  S    
C7    C213  A    
C123  H134  S    
C125  H138  S    
C143  C214  A    
C140  H174  S    
C40   H196  S    
C112  C153  A    
C156  C214  A    
C180  O40   A    
C24   H24   S    
C87   H52   S    
C58   H238  S    
C55   H233  S    
C105  H93   S    
C13   C158  A    
O34   Zn11  S    
C216  O69   S    
C189  O25   A    
C37   H189  S    
O2    Zn3   S    
C128  H147  S    
O41   Zn11  S    
C72   H17   S    
C107  H98   S    
C77   H30   S    
O37   Zn14  S    
O43   Zn9   S    
C157  C166  S    
O36   Zn15  S    
C24   C160  A    
C155  C164  S    
C106  H97   S    
C23   C197  A    
C134  H162  S    
C142  C203  A    
C83   H43   S    
C131  O81   S    
C11   C209  A    
C190  O32   A    
C37   H188  S    
C9    C211  A    
C1    C79   A    
C29   C142  A    
C185  O20   A    
C33   C175  S    
C3    C218  A    
C221  O74   S    
C100  H84   S    
C62   H249  S    
O84   Zn4   S    
C124  C170  A    
C65   C66   S    
C202  C206  A    
C82   H39   S    
C86   H50   S    
C139  H171  S    
C122  C123  S    
C121  O77   S    
C54   H231  S    
O23   Zn2   S    
