data_mof_unit_38546.cif
_audit_creation_date              2012-12-10T19:59:21-0500
_audit_creation_method            fapswitch 2.2
_symmetry_space_group_name_H-M    P1
_symmetry_Int_Tables_number       1
_space_group_crystal_system       triclinic
_cell_length_a                    14.931636
_cell_length_b                    14.261418
_cell_length_c                    11.042928
_cell_angle_alpha                 89.999974
_cell_angle_beta                  94.378376
_cell_angle_gamma                 89.999971
_cell_volume                      2344.68800402

loop_
_atom_site_label
_atom_site_type_symbol
_atom_type_description
_atom_site_fract_x
_atom_site_fract_y
_atom_site_fract_z
_atom_type_partial_charge
C1    C     C_R   0.327812 0.499846 0.498681 0.952693
C2    C     C_R   0.672188 0.499846 0.501320 0.952693
C3    C     C_R   0.194888 0.445413 0.589349 -0.205566
C4    C     C_R   0.805112 0.445410 0.410653 -0.205563
C5    C     C_R   0.102818 0.436156 0.589768 -0.103130
C6    C     C_R   0.897182 0.436153 0.410234 -0.103130
C7    C     C_R   0.047822 0.477309 0.496939 0.049725
C8    C     C_R   0.952178 0.477309 0.503062 0.049725
C9    C     C_R   0.450967 0.101997 0.410887 -0.154826
C10   C     C_R   0.549033 0.101997 0.589113 -0.154808
C11   C     C_R   0.447278 0.200934 0.413277 0.434051
C12   C     C_R   0.552722 0.200933 0.586723 0.434058
C13   C     C_R   0.500000 0.051475 0.500000 0.096722
C14   C     C_R   0.579972 0.894543 0.486896 0.295126
C15   C     C_R   0.420028 0.894543 0.513103 0.295121
C16   C     C_R   0.578017 0.795950 0.491156 0.103531
C17   C     C_R   0.421983 0.795950 0.508844 0.103532
C18   C     C_R   0.500000 0.946019 0.500000 -0.162504
C19   C     C_R   0.500483 0.500529 0.260188 0.943858
C20   C     C_R   0.499517 0.500529 0.739812 0.943856
C21   C     C_R   0.497251 0.585439 0.061493 -0.029635
C22   C     C_R   0.502749 0.585440 0.938507 -0.029635
C23   C     C_R   0.499405 0.502002 0.128654 -0.051417
C24   C     C_R   0.500594 0.502001 0.871346 -0.051418
C25   C     C_R   0.500429 0.417212 0.063441 -0.136473
C26   C     C_R   0.499570 0.417212 0.936559 -0.136474
C27   C     C_3   0.495224 0.690509 0.928494 0.437834
C28   C     C_3   0.504776 0.690509 0.071505 0.437832
C29   C     C_R   0.083717 0.527911 0.404212 -0.219474
C30   C     C_R   0.916283 0.527913 0.595786 -0.219475
C31   C     C_R   0.175952 0.538552 0.403263 0.335136
C32   C     C_R   0.824048 0.538553 0.596735 0.335145
C33   C     C_R   0.231610 0.497323 0.497610 -0.128554
C34   C     C_R   0.768389 0.497323 0.502391 -0.128555
H1    H     H_    0.502512 0.350590 0.110071 0.225520
H2    H     H_    0.497486 0.350590 0.889929 0.225521
H3    H     H_    0.640008 0.757462 0.488763 0.221602
H4    H     H_    0.359992 0.757462 0.511236 0.221598
H5    H     H_    0.413227 0.063341 0.339516 0.231715
H6    H     H_    0.586773 0.063341 0.660483 0.231711
N1    N     N_R   0.500000 0.252470 0.500000 -0.222527
N2    N     N_R   0.500000 0.747550 0.500000 -0.118752
O1    O     O_R   0.369060 0.579480 0.500010 -0.585050
O2    O     O_R   0.630940 0.579480 0.499990 -0.585048
O3    O     O_R   0.369050 0.420520 0.500010 -0.578069
O4    O     O_R   0.630950 0.420520 0.499990 -0.578069
O5    O     O_R   0.499990 0.579490 0.316780 -0.535062
O6    O     O_R   0.500010 0.579490 0.683220 -0.535061
O7    O     O_R   0.499980 0.420540 0.316780 -0.600264
O8    O     O_R   0.500020 0.420540 0.683220 -0.600264
Zn1   Zn    Zn3+2 0.500000 0.606140 0.500000 1.167904
Zn2   Zn    Zn3+2 0.500000 0.393860 0.500000 1.089010
S1    S     S_3+6 0.683518 0.949394 0.462446 0.084568
O9    O     O_2   0.728976 0.977643 0.583046 -0.234079
O10   O     O_2   0.743318 0.882329 0.401286 -0.223305
O11   O     O_3   0.666353 0.044902 0.374310 -0.528879
H7    H     H_    0.723827 0.079822 0.382743 0.400666
S2    S     S_3+6 0.316482 0.949395 0.537552 0.084574
O12   O     O_2   0.271024 0.977642 0.416951 -0.234091
O13   O     O_2   0.256681 0.882331 0.598712 -0.223287
O14   O     O_3   0.333647 0.044903 0.625687 -0.528868
H8    H     H_    0.276183 0.079841 0.617219 0.400655
S3    S     S_3+6 0.582021 0.754327 0.857548 0.170616
O15   O     O_2   0.675324 0.723854 0.899119 -0.085439
O16   O     O_2   0.571804 0.740703 0.724038 -0.282877
O17   O     O_3   0.571288 0.869426 0.886659 -0.451583
H9    H     H_    0.523611 0.892077 0.826406 0.380366
S4    S     S_3+6 0.417978 0.754327 0.142451 0.170617
O18   O     O_2   0.324676 0.723853 0.100881 -0.085437
O19   O     O_2   0.428196 0.740703 0.275962 -0.282877
O20   O     O_3   0.428711 0.869426 0.113340 -0.451580
H10   H     H_    0.476389 0.892076 0.173592 0.380366
S5    S     S_3+6 0.384745 0.716785 0.854836 0.084440
O21   O     O_2   0.355824 0.814628 0.883927 -0.168061
O22   O     O_2   0.386195 0.709029 0.720512 -0.323111
O23   O     O_3   0.308628 0.638328 0.896581 -0.521198
H11   H     H_    0.251819 0.655674 0.849744 0.402828
S6    S     S_3+6 0.615255 0.716785 0.145163 0.084439
O24   O     O_2   0.644176 0.814628 0.116072 -0.168066
O25   O     O_2   0.613805 0.709029 0.279488 -0.323109
O26   O     O_3   0.691372 0.638328 0.103418 -0.521197
H12   H     H_    0.748181 0.655675 0.150255 0.402828
H13   H     H_    0.039235 0.561079 0.334782 0.193010
H14   H     H_    0.960765 0.561083 0.665215 0.193009
S7    S     S_3+6 0.217619 0.604055 0.284055 0.096486
O27   O     O_2   0.300886 0.558965 0.242928 -0.262024
O28   O     O_2   0.148673 0.610107 0.177761 -0.235740
O29   O     O_3   0.242105 0.712852 0.334647 -0.461193
H15   H     H_    0.185355 0.737071 0.363603 0.371170
S8    S     S_3+6 0.782381 0.604056 0.715944 0.096485
O30   O     O_2   0.699114 0.558967 0.757071 -0.262023
O31   O     O_2   0.851327 0.610110 0.822237 -0.235745
O32   O     O_3   0.757894 0.712854 0.665351 -0.461198
H16   H     H_    0.814647 0.737076 0.636406 0.371175
H17   H     H_    0.237689 0.412897 0.661203 0.171666
H18   H     H_    0.762311 0.412893 0.338801 0.171667
H19   H     H_    0.074329 0.398024 0.662514 0.176685
H20   H     H_    0.925671 0.398019 0.337491 0.176684
S9    S     S_3+6 0.368919 0.244630 0.296355 0.072750
O33   O     O_2   0.404096 0.218194 0.177091 -0.296071
O34   O     O_2   0.282560 0.192063 0.306979 -0.237750
O35   O     O_3   0.342875 0.358573 0.291183 -0.515382
H21   H     H_    0.300314 0.365665 0.218445 0.393230
S10   S     S_3+6 0.631080 0.244630 0.703646 0.072753
O36   O     O_2   0.595901 0.218196 0.822910 -0.296077
O37   O     O_2   0.717439 0.192062 0.693025 -0.237741
O38   O     O_3   0.657125 0.358573 0.708816 -0.515385
H22   H     H_    0.699685 0.365665 0.781555 0.393229

loop_
_geom_bond_atom_site_label_1
_geom_bond_atom_site_label_2
_ccdc_geom_bond_type
C15   C18   A    
S3    O16   D    
O32   H16   S    
C7    C29   A    
S5    O21   D    
C14   C18   A    
C1    O3    A    
S10   O37   D    
O26   H12   S    
C1    C33   S    
C7    C8    S    
S1    O9    D    
C2    O4    A    
C13   C18   S    
C31   S7    S    
C6    H20   S    
C22   C24   A    
C10   H6    S    
C28   S4    S    
C24   C26   A    
C29   H13   S    
C19   O5    A    
S7    O29   S    
C3    C33   A    
S2    O13   D    
O4    Zn2   S    
C9    H5    S    
O11   H7    S    
C11   S9    S    
C9    C13   A    
C17   N2    A    
C20   O8    A    
C4    H18   S    
C1    O1    A    
O6    Zn1   S    
C32   S8    S    
C20   C24   S    
C2    O2    A    
S4    O18   D    
O8    Zn2   S    
O38   H22   S    
C31   C33   A    
C28   S6    S    
N1    Zn2   S    
N2    Zn1   S    
C2    C34   S    
S2    O14   S    
S1    O10   D    
O17   H9    S    
S3    O17   S    
C21   C22   A    
S5    O22   D    
O35   H21   S    
S10   O36   D    
S7    O28   D    
C4    C34   A    
O23   H11   S    
C4    C6    A    
C5    C7    A    
S6    O24   D    
C6    C8    A    
O3    Zn2   S    
S2    O12   D    
S7    O27   D    
C32   C34   A    
C19   C23   S    
C12   N1    A    
C19   O7    A    
S8    O31   D    
S9    O33   D    
O7    Zn2   S    
S9    O35   S    
C9    C11   A    
C20   O6    A    
C10   C12   A    
C25   H1    S    
O2    Zn1   S    
C26   H2    S    
S9    O34   D    
C21   C28   S    
C5    H19   S    
C22   C27   S    
C21   C23   A    
C15   S2    S    
C14   C16   A    
C16   N2    A    
S8    O32   S    
S1    O11   S    
C15   C17   A    
C3    C5    A    
C10   C13   A    
O5    Zn1   S    
C12   S10   S    
C16   H3    S    
C8    C30   A    
C25   C26   A    
O20   H10   S    
C29   C31   A    
C30   C32   A    
S6    O26   S    
O1    Zn1   S    
S8    O30   D    
S4    O20   S    
S5    O23   S    
C11   N1    A    
S6    O25   D    
C17   H4    S    
C23   C25   A    
C30   H14   S    
O14   H8    S    
S3    O15   D    
C14   S1    S    
O29   H15   S    
S4    O19   D    
C27   C28   S    
C27   S3    S    
C3    H17   S    
C27   S5    S    
S10   O38   S    
