data_mof_unit_43749.cif
_audit_creation_date              2012-12-10T18:06:43-0500
_audit_creation_method            fapswitch 2.2
_symmetry_space_group_name_H-M    P1
_symmetry_Int_Tables_number       1
_space_group_crystal_system       triclinic
_cell_length_a                    12.706025
_cell_length_b                    13.096443
_cell_length_c                    15.443199
_cell_angle_alpha                 85.566712
_cell_angle_beta                  98.644264
_cell_angle_gamma                 96.893056
_cell_volume                      2517.64905741

loop_
_atom_site_label
_atom_site_type_symbol
_atom_type_description
_atom_site_fract_x
_atom_site_fract_y
_atom_site_fract_z
_atom_type_partial_charge
C1    C     C_R   0.447484 0.308666 0.517531 0.854643
C2    C     C_R   0.420155 0.449153 0.102114 0.097168
C3    C     C_R   0.313571 0.467184 0.068171 0.178817
C4    C     C_R   0.487964 0.418182 0.046859 0.070995
C5    C     C_R   0.455929 0.426852 0.955448 0.070320
C6    C     C_R   0.347955 0.440746 0.922891 -0.234741
C7    C     C_R   0.277153 0.458177 0.979127 -0.240115
C8    C     C_R   0.587279 0.380809 0.079678 -0.231032
C9    C     C_R   0.658341 0.364194 0.023358 -0.237928
C10   C     C_R   0.634514 0.389367 0.933820 0.180931
C11   C     C_R   0.533794 0.423153 0.899825 0.092754
C12   C     C_R   0.435125 0.510125 0.336355 0.869996
C13   C     C_R   0.710667 0.383593 0.877880 -0.205009
C14   C     C_R   0.689019 0.415184 0.789324 -0.216081
C15   C     C_R   0.516616 0.460052 0.812478 -0.256592
C16   C     C_R   0.730516 0.948200 0.514772 -0.199941
C17   C     C_R   0.593297 0.802781 0.496498 -0.082721
C18   C     C_R   0.314491 0.161030 0.547257 -0.185313
C19   C     C_R   0.286676 0.056125 0.561982 -0.146288
C20   C     C_R   0.363887 0.988491 0.566241 -0.189518
C21   C     C_R   0.471988 0.026148 0.559604 0.100332
C22   C     C_R   0.502695 0.132708 0.562853 0.087147
C23   C     C_R   0.556321 0.692431 0.490163 0.862986
C24   C     C_R   0.549472 0.963269 0.544008 0.074418
C25   C     C_R   0.657553 0.004992 0.544156 0.134071
C26   C     C_R   0.689681 0.105010 0.569535 -0.258316
C27   C     C_R   0.612924 0.167982 0.580602 -0.205151
C28   C     C_R   0.519961 0.862840 0.520273 -0.303339
C29   C     C_R   0.698126 0.848541 0.486584 0.183790
C30   C     C_R   0.422045 0.200011 0.544799 -0.118773
C31   C     C_R   0.145959 0.548443 0.665723 -0.301886
C32   C     C_R   0.759545 0.396699 0.382046 0.296741
C33   C     C_R   0.847205 0.413899 0.337043 -0.350537
C34   C     C_R   0.562796 0.483748 0.663767 0.845701
C35   C     C_R   0.941161 0.469542 0.374731 0.431948
C36   C     C_R   0.951027 0.491022 0.464710 -0.073835
C37   C     C_R   0.854812 0.489452 0.502461 0.086329
C38   C     C_R   0.050585 0.512936 0.519201 0.011393
C39   C     C_R   0.051818 0.517765 0.610912 0.134102
C40   C     C_R   0.958152 0.498596 0.647022 -0.291570
C41   C     C_R   0.863274 0.512601 0.592917 0.223543
C42   C     C_R   0.150522 0.522145 0.489690 -0.001644
C43   C     C_R   0.239190 0.569987 0.629768 0.008681
C44   C     C_R   0.392321 0.500465 0.243787 -0.065556
C45   C     C_R   0.592380 0.455595 0.756874 -0.050841
C46   C     C_R   0.246032 0.496697 0.123489 -0.206347
C47   C     C_R   0.284993 0.512355 0.211301 -0.181466
C48   C     C_R   0.458849 0.470544 0.188774 -0.274834
H1    H     H_    0.195239 0.469446 0.952221 0.141438
H2    H     H_    0.786952 0.355462 0.902707 0.134585
H3    H     H_    0.773211 0.136373 0.576100 0.149697
H4    H     H_    0.811439 0.983347 0.510360 0.136887
H5    H     H_    0.437738 0.830757 0.517214 0.177266
H6    H     H_    0.251470 0.211362 0.536759 0.163293
H7    H     H_    0.336831 0.907662 0.575439 0.132000
H8    H     H_    0.204056 0.026649 0.565795 0.142461
H9    H     H_    0.640937 0.244889 0.600865 0.183865
H10   H     H_    0.313263 0.591850 0.671558 0.139062
H11   H     H_    0.445148 0.495787 0.787378 0.153109
H12   H     H_    0.962193 0.504339 0.717381 0.155750
H13   H     H_    0.147278 0.556391 0.735269 0.139737
H14   H     H_    0.162877 0.499592 0.427145 0.202960
H15   H     H_    0.842962 0.383098 0.273295 0.144179
H16   H     H_    0.747594 0.407916 0.746644 0.163965
H17   H     H_    0.734052 0.336174 0.050433 0.142783
H18   H     H_    0.163787 0.508836 0.098627 0.137258
H19   H     H_    0.231581 0.534294 0.253337 0.187687
H20   H     H_    0.542465 0.467805 0.213526 0.165309
H21   H     H_    0.315893 0.436210 0.854259 0.148114
H22   H     H_    0.610612 0.361674 0.148609 0.149169
N1    N     N_R   0.239390 0.551900 0.544730 -0.127237
N2    N     N_R   0.759950 0.448600 0.455730 -0.125327
O1    O     O_R   0.374950 0.371210 0.521360 -0.608847
O2    O     O_R   0.542050 0.338030 0.492790 -0.617971
O3    O     O_R   0.368720 0.526070 0.390200 -0.614209
O4    O     O_R   0.535820 0.492890 0.361630 -0.615645
O5    O     O_R   0.457950 0.661970 0.507210 -0.609961
O6    O     O_R   0.625050 0.628790 0.478640 -0.616458
O7    O     O_R   0.464180 0.507110 0.638370 -0.628015
O8    O     O_R   0.631280 0.473930 0.609800 -0.619547
Zn1   Zn    Zn3+2 0.388420 0.522150 0.519080 0.939593
Zn2   Zn    Zn3+2 0.611580 0.477850 0.480920 0.929178
C49   C     C_3   0.772516 0.798459 0.439668 -0.866694
H23   H     H_    0.729186 0.771691 0.376136 0.248923
H24   H     H_    0.842088 0.853469 0.424983 0.226625
H25   H     H_    0.804721 0.732731 0.479552 0.256310
C50   C     C_3   0.671741 0.313260 0.353377 -0.817931
H26   H     H_    0.663616 0.254856 0.408535 0.249915
H27   H     H_    0.594133 0.342219 0.330680 0.259928
H28   H     H_    0.691229 0.272387 0.298386 0.193595
O9    O     O_3   0.021690 0.501489 0.324682 -0.817166
H29   H     H_    0.999168 0.480544 0.263693 0.330693
C51   C     C_3   0.819507 0.602379 0.625916 -0.847584
H30   H     H_    0.746486 0.624403 0.590457 0.283842
H31   H     H_    0.804882 0.585935 0.695048 0.218411
H32   H     H_    0.878625 0.672180 0.624038 0.217568

loop_
_geom_bond_atom_site_label_1
_geom_bond_atom_site_label_2
_ccdc_geom_bond_type
C19   H8    S    
C6    H21   S    
C50   H26   S    
C51   H30   S    
C40   H12   S    
C17   C29   A    
C31   H13   S    
C19   C20   A    
C4    C8    A    
C32   N2    A    
C12   O3    A    
C26   C27   A    
C17   C23   S    
C31   C43   A    
C1    O2    A    
C36   C37   A    
C46   H18   S    
C3    C7    A    
C5    C6    A    
C18   C19   A    
C47   H19   S    
C42   N1    A    
C43   H10   S    
C34   O8    A    
C11   C15   A    
C41   C51   S    
C35   C36   A    
C8    C9    A    
C18   C30   A    
C9    C10   A    
C42   H14   S    
C44   C47   A    
C51   H31   S    
C21   C22   A    
C37   N2    A    
O2    Zn2   S    
C20   H7    S    
O1    Zn1   S    
C14   C45   A    
C16   H4    S    
C24   C25   A    
C7    H1    S    
O8    Zn2   S    
C27   H9    S    
O4    Zn2   S    
O9    H29   S    
O7    Zn1   S    
O3    Zn1   S    
C2    C48   A    
C16   C29   A    
C32   C50   S    
C23   O5    A    
C2    C4    A    
C34   O7    A    
O6    Zn2   S    
C49   H23   S    
O5    Zn1   S    
C33   H15   S    
C14   H16   S    
C34   C45   S    
C48   H20   S    
C40   C41   A    
C49   H24   S    
C51   H32   S    
C22   C27   A    
C12   O4    A    
C5    C11   A    
C50   H28   S    
C15   C45   A    
C39   C40   A    
C16   C25   A    
C46   C47   A    
C43   N1    A    
C22   C30   A    
C17   C28   A    
C15   H11   S    
C24   C28   A    
C4    C5    A    
C10   C13   A    
C28   H5    S    
C29   C49   S    
C6    C7    A    
C3    C46   A    
C8    H22   S    
C1    O1    A    
C32   C33   A    
C50   H27   S    
C2    C3    A    
C25   C26   A    
C12   C44   S    
C26   H3    S    
C38   C39   A    
C36   C38   A    
C1    C30   S    
C33   C35   A    
C31   C39   A    
C23   O6    A    
C37   C41   A    
C9    H17   S    
C10   C11   A    
C18   H6    S    
C13   H2    S    
C38   C42   A    
C49   H25   S    
C20   C21   A    
C21   C24   A    
C13   C14   A    
N2    Zn2   S    
C44   C48   A    
N1    Zn1   S    
C35   O9    S    
