data_mof_unit_10722.cif
_audit_creation_date              2012-12-10T16:32:37-0500
_audit_creation_method            fapswitch 2.2
_symmetry_space_group_name_H-M    P1
_symmetry_Int_Tables_number       1
_space_group_crystal_system       triclinic
_cell_length_a                    17.001246
_cell_length_b                    17.002753
_cell_length_c                    17.001126
_cell_angle_alpha                 65.077174
_cell_angle_beta                  65.073914
_cell_angle_gamma                 65.076495
_cell_volume                      3859.98828855

loop_
_atom_site_label
_atom_site_type_symbol
_atom_type_description
_atom_site_fract_x
_atom_site_fract_y
_atom_site_fract_z
_atom_type_partial_charge
C1    C     C_R   0.583966 0.042403 0.594173 0.100367
C2    C     C_R   0.405818 0.957582 0.416042 0.100430
C3    C     C_R   0.042369 0.594170 0.584014 0.100414
C4    C     C_R   0.957875 0.415906 0.405786 0.100364
C5    C     C_R   0.594210 0.584104 0.042118 0.100359
C6    C     C_R   0.415976 0.405823 0.957658 0.100396
C7    C     C_R   0.972583 0.177724 0.432783 0.919062
C8    C     C_R   0.040601 0.821608 0.561225 0.883542
C9    C     C_R   0.177730 0.432794 0.972550 0.919114
C10   C     C_R   0.821602 0.561232 0.040585 0.883564
C11   C     C_R   0.432793 0.972547 0.177737 0.919162
C12   C     C_R   0.561208 0.040638 0.821606 0.883506
C13   C     C_R   0.567216 0.822277 0.027419 0.919081
C14   C     C_R   0.438775 0.178392 0.959398 0.883552
C15   C     C_R   0.027458 0.567201 0.822268 0.919147
C16   C     C_R   0.959411 0.438769 0.178398 0.883544
C17   C     C_R   0.822262 0.027455 0.567205 0.919157
C18   C     C_R   0.178392 0.959355 0.438794 0.883507
C19   C     C_R   0.534221 0.023206 0.550033 -0.029844
C20   C     C_R   0.449960 0.976768 0.465790 -0.029813
C21   C     C_R   0.023269 0.549961 0.534282 -0.029883
C22   C     C_R   0.977064 0.465603 0.449969 -0.029841
C23   C     C_R   0.550017 0.534414 0.022934 -0.029852
C24   C     C_R   0.465701 0.450045 0.976749 -0.029894
C25   C     C_R   0.573297 0.021678 0.458087 -0.048815
C26   C     C_R   0.402219 0.996382 0.550506 -0.039289
C27   C     C_R   0.021962 0.457962 0.573287 -0.048821
C28   C     C_R   0.996578 0.550355 0.402271 -0.039380
C29   C     C_R   0.458073 0.573517 0.021386 -0.048726
C30   C     C_R   0.550370 0.402323 0.996430 -0.039397
C31   C     C_R   0.541913 0.978261 0.426721 -0.048822
C32   C     C_R   0.449504 0.003594 0.597781 -0.039272
C33   C     C_R   0.426681 0.542043 0.978069 -0.048779
C34   C     C_R   0.597723 0.449675 0.003396 -0.039391
C35   C     C_R   0.978634 0.426492 0.541905 -0.048729
C36   C     C_R   0.003565 0.597693 0.449626 -0.039401
C37   C     C_R   0.541134 0.068888 0.674312 -0.186271
C38   C     C_R   0.439674 0.973030 0.321200 -0.184344
C39   C     C_R   0.068776 0.674340 0.541169 -0.186165
C40   C     C_R   0.973294 0.321089 0.439608 -0.184266
C41   C     C_R   0.674334 0.541227 0.068623 -0.186183
C42   C     C_R   0.321151 0.439664 0.973085 -0.184288
C43   C     C_R   0.325685 0.931090 0.458871 -0.186291
C44   C     C_R   0.678805 0.026971 0.560313 -0.184383
C45   C     C_R   0.458828 0.325657 0.931239 -0.186176
C46   C     C_R   0.560390 0.678918 0.026708 -0.184298
C47   C     C_R   0.931359 0.458779 0.325668 -0.186225
C48   C     C_R   0.026960 0.560312 0.678837 -0.184321
C49   C     C_R   0.593068 0.063202 0.723851 -0.077911
C50   C     C_R   0.397603 0.958855 0.274196 -0.068296
C51   C     C_R   0.063120 0.723869 0.593094 -0.077831
C52   C     C_R   0.958981 0.274151 0.397576 -0.068230
C53   C     C_R   0.723853 0.593109 0.063072 -0.077864
C54   C     C_R   0.274173 0.397591 0.958893 -0.068208
C55   C     C_R   0.276147 0.936783 0.406934 -0.077929
C56   C     C_R   0.725805 0.041143 0.602392 -0.068299
C57   C     C_R   0.406907 0.276131 0.936880 -0.077835
C58   C     C_R   0.602424 0.725852 0.041020 -0.068212
C59   C     C_R   0.936921 0.406893 0.276147 -0.077870
C60   C     C_R   0.041123 0.602401 0.725823 -0.068214
C61   C     C_R   0.682093 0.060659 0.683183 -0.256124
C62   C     C_R   0.316816 0.939332 0.317906 -0.256103
C63   C     C_R   0.060606 0.683201 0.682113 -0.256208
C64   C     C_R   0.939402 0.317893 0.316820 -0.256187
C65   C     C_R   0.683180 0.682108 0.060599 -0.256197
C66   C     C_R   0.317891 0.316801 0.939387 -0.256205
H1    H     H_    0.468804 0.089795 0.702229 0.156034
H2    H     H_    0.497115 0.998109 0.282926 0.147919
H3    H     H_    0.089612 0.702260 0.468838 0.155929
H4    H     H_    0.998462 0.282793 0.496989 0.147824
H5    H     H_    0.702236 0.468904 0.089457 0.155958
H6    H     H_    0.282873 0.497105 0.998156 0.147928
H7    H     H_    0.297770 0.910176 0.531201 0.156041
H8    H     H_    0.717085 0.001910 0.502860 0.147972
H9    H     H_    0.531159 0.297738 0.910410 0.155933
H10   H     H_    0.503004 0.717215 0.001550 0.147841
H11   H     H_    0.910512 0.531101 0.297766 0.155991
H12   H     H_    0.001929 0.502845 0.717109 0.147956
H13   H     H_    0.719648 0.064443 0.718980 0.179312
H14   H     H_    0.281020 0.935551 0.280349 0.179311
H15   H     H_    0.064397 0.718996 0.719663 0.179314
H16   H     H_    0.935519 0.280378 0.281050 0.179294
H17   H     H_    0.718949 0.719620 0.064487 0.179290
H18   H     H_    0.280346 0.281013 0.935578 0.179314
O1    O     O_R   0.982940 0.138950 0.510160 -0.635614
O2    O     O_R   0.017060 0.861050 0.489840 -0.617030
O3    O     O_R   0.138950 0.510160 0.982940 -0.635457
O4    O     O_R   0.861050 0.489840 0.017060 -0.617016
O5    O     O_R   0.510160 0.982940 0.138950 -0.635462
O6    O     O_R   0.489840 0.017060 0.861050 -0.617077
O7    O     O_R   0.489840 0.861050 0.017060 -0.635626
O8    O     O_R   0.510160 0.138950 0.982940 -0.617032
O9    O     O_R   0.017060 0.489840 0.861050 -0.635425
O10   O     O_R   0.982940 0.510160 0.138950 -0.617039
O11   O     O_R   0.861050 0.017060 0.489840 -0.635465
O12   O     O_R   0.138950 0.982940 0.510160 -0.617068
O13   O     O_R   0.867700 0.025880 0.612340 -0.629949
O14   O     O_R   0.132300 0.974120 0.387660 -0.638447
O15   O     O_R   0.025880 0.612340 0.867700 -0.630007
O16   O     O_R   0.974120 0.387660 0.132300 -0.638411
O17   O     O_R   0.612340 0.867700 0.025880 -0.629958
O18   O     O_R   0.387660 0.132300 0.974120 -0.638436
O19   O     O_R   0.387660 0.974120 0.132300 -0.629953
O20   O     O_R   0.612340 0.025880 0.867700 -0.638441
O21   O     O_R   0.132300 0.387660 0.974120 -0.630005
O22   O     O_R   0.867700 0.612340 0.025880 -0.638404
O23   O     O_R   0.974120 0.132300 0.387660 -0.629947
O24   O     O_R   0.025880 0.867700 0.612340 -0.638444
Zn1   Zn    Zn3+2 0.004880 0.004880 0.583590 0.926243
Zn2   Zn    Zn3+2 0.995120 0.995120 0.416410 0.926268
Zn3   Zn    Zn3+2 0.004880 0.583590 0.004880 0.926302
Zn4   Zn    Zn3+2 0.995120 0.416410 0.995120 0.926331
Zn5   Zn    Zn3+2 0.583590 0.004880 0.004880 0.926257
Zn6   Zn    Zn3+2 0.416410 0.995120 0.995120 0.926224
C67   C     C_R   0.412261 0.982426 0.697773 0.105202
C68   C     C_R   0.332587 0.041438 0.739162 -0.177667
C69   C     C_R   0.298216 0.019328 0.833696 -0.161846
C70   C     C_R   0.343062 0.938411 0.887265 -0.045885
C71   C     C_R   0.421978 0.879638 0.846189 -0.085207
C72   C     C_R   0.456441 0.901225 0.752000 -0.155946
H19   H     H_    0.297703 0.104158 0.697898 0.152790
H20   H     H_    0.237165 0.064980 0.865322 0.112375
H21   H     H_    0.317228 0.921787 0.960433 0.099147
H22   H     H_    0.457261 0.817475 0.886706 0.114314
H23   H     H_    0.517589 0.854876 0.721251 0.126980
C73   C     C_R   0.609482 0.910915 0.377403 0.122916
C74   C     C_R   0.662485 0.937240 0.286760 -0.199976
C75   C     C_R   0.719680 0.872562 0.240524 -0.113438
C76   C     C_R   0.724058 0.781148 0.284029 -0.118691
C77   C     C_R   0.673299 0.753811 0.374631 -0.148811
C78   C     C_R   0.616296 0.818227 0.421136 -0.130831
H24   H     H_    0.657545 0.007882 0.251014 0.132777
H25   H     H_    0.759799 0.893359 0.170547 0.106064
H26   H     H_    0.767072 0.731402 0.247629 0.121063
H27   H     H_    0.677423 0.682792 0.408587 0.124593
H28   H     H_    0.576257 0.796046 0.491003 0.119479
C79   C     C_R   0.981886 0.697717 0.412638 0.105446
C80   C     C_R   0.040651 0.739527 0.333057 -0.178162
C81   C     C_R   0.018084 0.834085 0.298995 -0.160926
C82   C     C_R   0.936914 0.887253 0.344015 -0.045699
C83   C     C_R   0.878325 0.845757 0.422781 -0.086174
C84   C     C_R   0.900417 0.751542 0.456976 -0.155193
H29   H     H_    0.103560 0.698569 0.298045 0.152485
H30   H     H_    0.063575 0.866039 0.238045 0.112004
H31   H     H_    0.919938 0.960439 0.318403 0.099559
H32   H     H_    0.815876 0.885950 0.458121 0.113939
H33   H     H_    0.854221 0.720457 0.518018 0.126835
C85   C     C_R   0.911441 0.376994 0.609499 0.122752
C86   C     C_R   0.937949 0.286392 0.662501 -0.200017
C87   C     C_R   0.873399 0.240017 0.719791 -0.113226
C88   C     C_R   0.781942 0.283323 0.724242 -0.118603
C89   C     C_R   0.754428 0.373870 0.673462 -0.148788
C90   C     C_R   0.818708 0.420524 0.616382 -0.130778
H34   H     H_    0.008630 0.250784 0.657523 0.132885
H35   H     H_    0.894322 0.170091 0.759942 0.105975
H36   H     H_    0.732300 0.246810 0.767324 0.120949
H37   H     H_    0.683374 0.407672 0.677639 0.124579
H38   H     H_    0.796388 0.490352 0.576346 0.119455
C91   C     C_R   0.697750 0.412612 0.981799 0.105410
C92   C     C_R   0.739482 0.333054 0.040632 -0.178257
C93   C     C_R   0.834044 0.298909 0.018127 -0.160839
C94   C     C_R   0.887296 0.343820 0.936945 -0.045775
C95   C     C_R   0.845876 0.422562 0.878288 -0.086083
C96   C     C_R   0.751658 0.456845 0.900323 -0.155129
H39   H     H_    0.698461 0.298116 0.103541 0.152550
H40   H     H_    0.865936 0.237974 0.063670 0.112035
H41   H     H_    0.960487 0.318130 0.920002 0.099354
H42   H     H_    0.886131 0.457809 0.815823 0.113880
H43   H     H_    0.720637 0.517864 0.854070 0.126816
C97   C     C_R   0.377262 0.609495 0.910769 0.122855
C98   C     C_R   0.286632 0.662504 0.937147 -0.199931
C99   C     C_R   0.240286 0.719547 0.872534 -0.113471
C100  C     C_R   0.283660 0.723758 0.781133 -0.118872
C101  C     C_R   0.374240 0.672978 0.753739 -0.148977
C102  C     C_R   0.420859 0.616135 0.818087 -0.130767
H44   H     H_    0.250969 0.657677 0.007790 0.132848
H45   H     H_    0.170326 0.759677 0.893373 0.105987
H46   H     H_    0.247180 0.766668 0.731440 0.121322
H47   H     H_    0.408090 0.676964 0.682729 0.124693
H48   H     H_    0.490705 0.576074 0.795866 0.119451
C103  C     C_R   0.302228 0.017519 0.587776 0.105157
C104  C     C_R   0.260871 0.958477 0.667443 -0.177636
C105  C     C_R   0.166338 0.980570 0.701852 -0.161850
C106  C     C_R   0.112739 0.061495 0.657050 -0.045965
C107  C     C_R   0.153783 0.120290 0.578134 -0.085131
C108  C     C_R   0.247970 0.098725 0.543635 -0.155912
H49   H     H_    0.302157 0.895746 0.702292 0.152787
H50   H     H_    0.134737 0.934900 0.762903 0.112400
H51   H     H_    0.039572 0.078109 0.682918 0.099067
H52   H     H_    0.113240 0.182454 0.542879 0.114314
H53   H     H_    0.278693 0.145094 0.482491 0.126992
C109  C     C_R   0.622691 0.088953 0.390494 0.122868
C110  C     C_R   0.713299 0.062544 0.337447 -0.200047
C111  C     C_R   0.759606 0.127151 0.280193 -0.113499
C112  C     C_R   0.716217 0.218575 0.275815 -0.118595
C113  C     C_R   0.625655 0.245997 0.326633 -0.148772
C114  C     C_R   0.579073 0.181654 0.383683 -0.130788
H54   H     H_    0.748970 0.991888 0.342395 0.132873
H55   H     H_    0.829550 0.106292 0.240027 0.106040
H56   H     H_    0.752680 0.268263 0.232764 0.120989
H57   H     H_    0.591789 0.317025 0.322513 0.124585
H58   H     H_    0.509237 0.203901 0.423758 0.119484
C115  C     C_R   0.587363 0.302296 0.018130 0.105450
C116  C     C_R   0.666942 0.260473 0.959373 -0.178221
C117  C     C_R   0.701002 0.165914 0.981957 -0.160875
C118  C     C_R   0.655983 0.112756 0.063137 -0.045701
C119  C     C_R   0.577217 0.154267 0.121717 -0.086149
C120  C     C_R   0.543022 0.248483 0.099607 -0.155118
H59   H     H_    0.701955 0.301421 0.896456 0.152502
H60   H     H_    0.761952 0.133951 0.936472 0.111999
H61   H     H_    0.681600 0.039569 0.080129 0.099493
H62   H     H_    0.541877 0.114083 0.184175 0.113891
H63   H     H_    0.481980 0.279578 0.145796 0.126823
C121  C     C_R   0.390493 0.623050 0.088557 0.122721
C122  C     C_R   0.337497 0.713652 0.062025 -0.200039
C123  C     C_R   0.280204 0.760052 0.126555 -0.113261
C124  C     C_R   0.275752 0.716777 0.218014 -0.118602
C125  C     C_R   0.326537 0.626236 0.245551 -0.148798
C126  C     C_R   0.383614 0.579553 0.181292 -0.130761
H64   H     H_    0.342480 0.749237 0.991341 0.132930
H65   H     H_    0.240047 0.829973 0.105616 0.105962
H66   H     H_    0.232666 0.753311 0.267641 0.120960
H67   H     H_    0.322363 0.592460 0.316607 0.124590
H68   H     H_    0.423650 0.509729 0.203631 0.119466
C127  C     C_R   0.018083 0.587470 0.302253 0.105369
C128  C     C_R   0.959203 0.667048 0.260602 -0.178192
C129  C     C_R   0.981613 0.701239 0.166047 -0.161076
C130  C     C_R   0.062737 0.656345 0.112720 -0.045777
C131  C     C_R   0.121429 0.577572 0.154057 -0.085884
C132  C     C_R   0.099501 0.543253 0.248268 -0.155273
H69   H     H_    0.896333 0.701969 0.301681 0.152628
H70   H     H_    0.936037 0.762194 0.134220 0.112123
H71   H     H_    0.079599 0.682061 0.039535 0.099302
H72   H     H_    0.183828 0.542317 0.113741 0.113961
H73   H     H_    0.145780 0.482209 0.279225 0.126845
C133  C     C_R   0.089324 0.390505 0.622624 0.122912
C134  C     C_R   0.063018 0.337463 0.713251 -0.199931
C135  C     C_R   0.127690 0.280415 0.759524 -0.113538
C136  C     C_R   0.219080 0.276220 0.716074 -0.118882
C137  C     C_R   0.246402 0.327025 0.625493 -0.148948
C138  C     C_R   0.181993 0.383882 0.578950 -0.130788
H74   H     H_    0.992386 0.342272 0.748965 0.132787
H75   H     H_    0.106903 0.240267 0.829487 0.106041
H76   H     H_    0.268822 0.233304 0.752497 0.121313
H77   H     H_    0.317404 0.323049 0.591580 0.124679
H78   H     H_    0.204158 0.423965 0.509102 0.119459

loop_
_geom_bond_atom_site_label_1
_geom_bond_atom_site_label_2
_ccdc_geom_bond_type
C99   H45   S    
C25   C31   A    
C39   C51   A    
C98   C99   A    
C26   C32   A    
C120  H63   S    
O14   Zn2   S    
C6    C45   A    
C89   C90   A    
C129  H70   S    
C69   C70   A    
O17   Zn5   S    
C15   C60   S    
C3    C48   A    
C95   C96   A    
C57   C66   A    
C69   H20   S    
C75   C76   A    
C101  H47   S    
C46   H10   S    
C12   C49   S    
C29   C121  S    
C137  H77   S    
C107  H52   S    
C21   C36   A    
C132  H73   S    
C117  C118  A    
O24   Zn1   S    
C30   C115  S    
C10   O4    A    
C59   C64   A    
C73   C74   A    
C40   H4    S    
C134  H74   S    
C63   H15   S    
C60   C63   A    
C23   C29   A    
C62   H14   S    
O2    Zn2   S    
C136  C137  A    
C7    C52   S    
C76   C77   A    
O1    Zn1   S    
C80   H29   S    
C66   H18   S    
C101  C102  A    
C14   O18   A    
O3    Zn3   S    
C97   C98   A    
C19   C32   A    
C9    O21   A    
C67   C68   A    
C55   C62   A    
C29   C33   A    
O10   Zn3   S    
C108  H53   S    
O13   Zn1   S    
C106  C107  A    
C48   H12   S    
C90   H38   S    
C10   C53   S    
C2    C38   A    
C70   C71   A    
C5    C41   A    
C1    C44   A    
C126  H68   S    
C123  H65   S    
C83   C84   A    
C118  H61   S    
C107  C108  A    
C91   C92   A    
C100  H46   S    
C104  H49   S    
C116  H59   S    
C88   C89   A    
C136  H76   S    
C17   O11   A    
C45   H9    S    
C53   C65   A    
O8    Zn5   S    
C93   H40   S    
C17   C56   S    
C1    C37   A    
C97   C102  A    
C34   C91   S    
C111  C112  A    
C21   C27   A    
C79   C80   A    
O15   Zn3   S    
C71   H22   S    
C134  C135  A    
C13   O7    A    
C96   H43   S    
C75   H25   S    
C33   C97   S    
C8    O24   A    
C130  C131  A    
C48   C60   A    
O20   Zn5   S    
O22   Zn3   S    
C45   C57   A    
O5    Zn5   S    
C1    C19   S    
C79   C84   A    
C49   C61   A    
C68   H19   S    
C30   C34   A    
C2    C20   S    
C138  H78   S    
C20   C31   A    
C4    C40   A    
C125  H67   S    
O19   Zn6   S    
C51   C63   A    
C123  C124  A    
C78   H28   S    
C52   C64   A    
C15   O15   A    
C3    C39   A    
C121  C122  A    
C16   O16   A    
C13   C58   S    
C27   C35   A    
C124  C125  A    
C103  C104  A    
C47   C59   A    
C135  H75   S    
C25   C109  S    
C94   C95   A    
C119  C120  A    
C16   C59   S    
C133  C138  A    
C82   H31   S    
C44   H8    S    
C86   H34   S    
C41   H5    S    
C105  C106  A    
C131  C132  A    
O18   Zn6   S    
C104  C105  A    
C37   C49   A    
C81   H30   S    
C44   C56   A    
C58   C65   A    
C111  H55   S    
C5    C23   S    
C2    C43   A    
C71   C72   A    
C23   C34   A    
C41   C53   A    
C11   O5    A    
C103  C108  A    
C42   H6    S    
C127  C128  A    
C39   H3    S    
C114  H58   S    
C56   C61   A    
C12   O20   A    
C109  C114  A    
C82   C83   A    
C133  C134  A    
C70   H21   S    
C74   H24   S    
C8    C51   S    
C64   H16   S    
C130  H71   S    
C102  H48   S    
O12   Zn1   S    
C83   H32   S    
C38   C50   A    
C27   C133  S    
C36   C79   S    
C43   C55   A    
C77   H27   S    
C14   O8    A    
C128  C129  A    
C115  C116  A    
C122  H64   S    
C87   H35   S    
C6    C42   A    
C119  H62   S    
C50   C62   A    
O23   Zn2   S    
C7    O23   A    
C3    C21   S    
C128  H69   S    
C47   H11   S    
C13   O17   A    
C74   C75   A    
C99   C100  A    
C129  C130  A    
C112  H56   S    
C5    C46   A    
C12   O6    A    
C124  H66   S    
C14   C57   S    
C4    C22   S    
C89   H37   S    
C118  C119  A    
C84   H33   S    
O21   Zn4   S    
C18   O12   A    
C24   C33   A    
C38   H2    S    
C113  C114  A    
C20   C26   A    
O11   Zn2   S    
C28   C127  S    
C15   O9    A    
C11   O19   A    
C81   C82   A    
C67   C72   A    
O16   Zn4   S    
C6    C24   S    
C54   C66   A    
C112  C113  A    
C98   H44   S    
C16   O10   A    
C127  C132  A    
C87   C88   A    
O7    Zn6   S    
C43   H7    S    
C121  C126  A    
C109  C110  A    
C92   H39   S    
C77   C78   A    
C73   C78   A    
C11   C50   S    
C40   C52   A    
C105  H50   S    
C42   C54   A    
C125  C126  A    
C7    O1    A    
C131  H72   S    
C93   C94   A    
C117  H60   S    
C61   H13   S    
C18   C55   S    
C37   H1    S    
C135  C136  A    
C137  C138  A    
C72   H23   S    
C68   C69   A    
C95   H42   S    
C115  C120  A    
C8    O2    A    
C35   C85   S    
O6    Zn6   S    
C32   C67   S    
C19   C25   A    
C92   C93   A    
C24   C30   A    
C76   H26   S    
C10   O22   A    
C80   C81   A    
O9    Zn4   S    
C100  C101  A    
C94   H41   S    
O4    Zn4   S    
C26   C103  S    
C88   H36   S    
C122  C123  A    
C116  C117  A    
C28   C36   A    
C110  C111  A    
C85   C90   A    
C91   C96   A    
C22   C28   A    
C9    C54   S    
C18   O14   A    
C31   C73   S    
C113  H57   S    
C86   C87   A    
C22   C35   A    
C17   O13   A    
C85   C86   A    
C106  H51   S    
C65   H17   S    
C46   C58   A    
C110  H54   S    
C4    C47   A    
C9    O3    A    
