data_mof_unit_45558.cif
_audit_creation_date              2012-10-26T17:12:31-0400
_audit_creation_method            fapswitch 2.2
_symmetry_space_group_name_H-M    P1
_symmetry_Int_Tables_number       1
_space_group_crystal_system       triclinic
_cell_length_a                    16.735084
_cell_length_b                    16.735083
_cell_length_c                    16.735104
_cell_angle_alpha                 67.789153
_cell_angle_beta                  67.789165
_cell_angle_gamma                 67.789051
_cell_volume                      3863.04139712

loop_
_atom_site_label
_atom_site_type_symbol
_atom_type_description
_atom_site_fract_x
_atom_site_fract_y
_atom_site_fract_z
_atom_type_partial_charge
C1    C     C_R   0.029114 0.827970 0.564285 0.813151
C2    C     C_R   0.029114 0.564285 0.827970 0.813152
C3    C     C_1   0.392492 0.757626 0.131363 0.272861
C4    C     C_1   0.868640 0.607508 0.242374 0.272862
C5    C     C_1   0.131360 0.392492 0.757626 0.272863
C6    C     C_R   0.172030 0.970886 0.435715 0.813151
C7    C     C_R   0.827970 0.029114 0.564285 0.813150
C8    C     C_R   0.449398 0.069970 0.703646 -0.011647
C9    C     C_R   0.550602 0.930029 0.296354 -0.011648
C10   C     C_R   0.069974 0.703644 0.449398 -0.011648
C11   C     C_R   0.930026 0.296355 0.550602 -0.011648
C12   C     C_R   0.703645 0.449396 0.069974 -0.011648
C13   C     C_R   0.296355 0.550604 0.930026 -0.011648
C14   C     C_R   0.296356 0.930025 0.550602 -0.011648
C15   C     C_R   0.970886 0.172030 0.435715 0.813151
C16   C     C_R   0.703644 0.069975 0.449398 -0.011648
C17   C     C_R   0.550603 0.296355 0.930026 -0.011648
C18   C     C_R   0.449397 0.703645 0.069975 -0.011648
C19   C     C_R   0.930028 0.550602 0.296355 -0.011648
C20   C     C_R   0.069972 0.449398 0.703645 -0.011648
C21   C     C_R   0.542627 0.023939 0.542627 0.024313
C22   C     C_R   0.457373 0.976060 0.457373 0.024313
C23   C     C_R   0.023939 0.542627 0.542627 0.024313
C24   C     C_R   0.976061 0.457373 0.457373 0.024313
C25   C     C_R   0.542626 0.542626 0.023941 0.024310
C26   C     C_R   0.827970 0.564285 0.029114 0.813152
C27   C     C_R   0.457374 0.457373 0.976060 0.024310
C28   C     C_R   0.585852 0.014469 0.454824 0.039841
C29   C     C_R   0.414148 0.985530 0.545176 0.039841
C30   C     C_R   0.014467 0.454825 0.585853 0.039841
C31   C     C_R   0.985533 0.545175 0.414147 0.039841
C32   C     C_R   0.454824 0.585853 0.014469 0.039842
C33   C     C_R   0.545176 0.414147 0.985532 0.039841
C34   C     C_R   0.545175 0.985534 0.414147 0.039840
C35   C     C_R   0.454825 0.014465 0.585853 0.039840
C36   C     C_R   0.414146 0.545176 0.985533 0.039842
C37   C     C_R   0.172030 0.435715 0.970886 0.813151
C38   C     C_R   0.585853 0.454824 0.014468 0.039842
C39   C     C_R   0.985531 0.414147 0.545175 0.039841
C40   C     C_R   0.014468 0.585852 0.454825 0.039841
C41   C     C_R   0.407081 0.044003 0.663531 -0.249313
C42   C     C_R   0.592919 0.955996 0.336470 -0.249314
C43   C     C_R   0.044009 0.663528 0.407080 -0.249313
C44   C     C_R   0.955991 0.336472 0.592920 -0.249313
C45   C     C_R   0.663530 0.407078 0.044009 -0.249310
C46   C     C_R   0.336470 0.592922 0.955992 -0.249311
C47   C     C_R   0.336473 0.955989 0.592920 -0.249313
C48   C     C_R   0.564285 0.029114 0.827970 0.813152
C49   C     C_R   0.663527 0.044010 0.407080 -0.249314
C50   C     C_R   0.592921 0.336471 0.955991 -0.249311
C51   C     C_R   0.407078 0.663529 0.044009 -0.249311
C52   C     C_R   0.955994 0.592920 0.336470 -0.249313
C53   C     C_R   0.044006 0.407080 0.663530 -0.249313
C54   C     C_R   0.544212 0.053053 0.675243 0.014743
C55   C     C_R   0.455788 0.946946 0.324757 0.014743
C56   C     C_R   0.053054 0.675242 0.544212 0.014743
C57   C     C_R   0.946946 0.324758 0.455788 0.014743
C58   C     C_R   0.675242 0.544211 0.053056 0.014743
C59   C     C_R   0.435715 0.970886 0.172029 0.813151
C60   C     C_R   0.324758 0.455789 0.946945 0.014743
C61   C     C_R   0.324758 0.946945 0.455788 0.014743
C62   C     C_R   0.675242 0.053055 0.544212 0.014743
C63   C     C_R   0.455789 0.324758 0.946945 0.014743
C64   C     C_R   0.544211 0.675242 0.053056 0.014743
C65   C     C_R   0.946946 0.455788 0.324757 0.014743
C66   C     C_R   0.053054 0.544212 0.675242 0.014743
C67   C     C_R   0.597133 0.047405 0.728365 -0.125554
C68   C     C_R   0.402866 0.952594 0.271635 -0.125554
C69   C     C_R   0.047406 0.728365 0.597134 -0.125554
C70   C     C_R   0.435715 0.172030 0.970886 0.813151
C71   C     C_R   0.952594 0.271635 0.402866 -0.125554
C72   C     C_R   0.728364 0.597133 0.047407 -0.125554
C73   C     C_R   0.271635 0.402867 0.952593 -0.125554
C74   C     C_R   0.271635 0.952594 0.402866 -0.125554
C75   C     C_R   0.728364 0.047406 0.597133 -0.125554
C76   C     C_R   0.402867 0.271635 0.952593 -0.125554
C77   C     C_R   0.597133 0.728364 0.047407 -0.125554
C78   C     C_R   0.952594 0.402866 0.271635 -0.125554
C79   C     C_R   0.047405 0.597133 0.728365 -0.125554
C80   C     C_R   0.687926 0.044792 0.687926 -0.226957
C81   C     C_R   0.564285 0.827970 0.029114 0.813151
C82   C     C_R   0.312074 0.955208 0.312074 -0.226956
C83   C     C_R   0.044791 0.687926 0.687926 -0.226956
C84   C     C_R   0.955209 0.312074 0.312074 -0.226956
C85   C     C_R   0.687926 0.687926 0.044792 -0.226959
C86   C     C_R   0.312074 0.312074 0.955208 -0.226959
C87   C     C_R   0.587747 0.042578 0.587748 0.049681
C88   C     C_R   0.412253 0.957422 0.412252 0.049681
C89   C     C_R   0.042578 0.587747 0.587748 0.049681
C90   C     C_R   0.957422 0.412253 0.412252 0.049681
C91   C     C_R   0.587747 0.587747 0.042580 0.049681
C92   C     C_R   0.970886 0.435715 0.172029 0.813152
C93   C     C_R   0.412253 0.412253 0.957421 0.049681
C94   C     C_1   0.392492 0.131359 0.757625 0.272862
C95   C     C_1   0.607508 0.868641 0.242374 0.272862
C96   C     C_1   0.131362 0.757625 0.392493 0.272861
C97   C     C_1   0.868638 0.242375 0.607507 0.272861
C98   C     C_1   0.757627 0.392492 0.131362 0.272861
C99   C     C_1   0.242373 0.607508 0.868639 0.272861
C100  C     C_1   0.242376 0.868637 0.607506 0.272861
C101  C     C_1   0.757624 0.131363 0.392494 0.272861
C102  C     C_1   0.607508 0.242374 0.868638 0.272861
Cu1   Cu    Cu3+1 0.995180 0.995180 0.424630 0.985967
Cu2   Cu    Cu3+1 0.004820 0.004820 0.575370 0.985967
Cu3   Cu    Cu3+1 0.995180 0.424630 0.995180 0.985967
Cu4   Cu    Cu3+1 0.004820 0.575370 0.004820 0.985966
Cu5   Cu    Cu3+1 0.424630 0.995180 0.995180 0.985966
Cu6   Cu    Cu3+1 0.575370 0.004820 0.004820 0.985966
H1    H     H_    0.335009 0.054800 0.688744 0.145931
H2    H     H_    0.335005 0.688742 0.054808 0.145930
H3    H     H_    0.945196 0.664992 0.311257 0.145931
H4    H     H_    0.054804 0.335008 0.688743 0.145931
H5    H     H_    0.728840 0.036949 0.728841 0.203225
H6    H     H_    0.271159 0.963052 0.271159 0.203225
H7    H     H_    0.036948 0.728841 0.728841 0.203226
H8    H     H_    0.963052 0.271159 0.271159 0.203226
H9    H     H_    0.728840 0.728840 0.036948 0.203225
H10   H     H_    0.271159 0.271160 0.963052 0.203225
H11   H     H_    0.664991 0.945199 0.311256 0.145931
H12   H     H_    0.054808 0.688741 0.335008 0.145931
H13   H     H_    0.945192 0.311259 0.664992 0.145931
H14   H     H_    0.688743 0.335005 0.054807 0.145929
H15   H     H_    0.311256 0.664994 0.945195 0.145929
H16   H     H_    0.311261 0.945189 0.664992 0.145931
H17   H     H_    0.688739 0.054810 0.335008 0.145931
H18   H     H_    0.664994 0.311258 0.945193 0.145930
N1    N     N_1   0.346740 0.180908 0.800312 -0.261524
N2    N     N_1   0.346742 0.800314 0.180911 -0.261524
N3    N     N_1   0.819092 0.653259 0.199687 -0.261524
N4    N     N_1   0.180908 0.346741 0.800313 -0.261524
N5    N     N_1   0.653260 0.819092 0.199688 -0.261524
N6    N     N_1   0.180911 0.800312 0.346743 -0.261525
N7    N     N_1   0.819089 0.199688 0.653257 -0.261525
N8    N     N_1   0.800316 0.346741 0.180909 -0.261524
N9    N     N_1   0.199684 0.653259 0.819091 -0.261524
N10   N     N_1   0.199688 0.819088 0.653256 -0.261524
N11   N     N_1   0.800312 0.180911 0.346744 -0.261525
N12   N     N_1   0.653258 0.199686 0.819089 -0.261525
O1    O     O_R   0.124540 0.978640 0.385460 -0.571233
O2    O     O_R   0.124540 0.385460 0.978640 -0.571232
O3    O     O_R   0.021360 0.875460 0.614540 -0.571233
O4    O     O_R   0.978640 0.124540 0.385460 -0.571232
O5    O     O_R   0.013780 0.867370 0.487190 -0.585369
O6    O     O_R   0.986220 0.132630 0.512810 -0.585369
O7    O     O_R   0.867370 0.487190 0.013780 -0.585370
O8    O     O_R   0.132630 0.512810 0.986220 -0.585370
O9    O     O_R   0.487190 0.013780 0.867370 -0.585370
O10   O     O_R   0.512810 0.986220 0.132630 -0.585369
O11   O     O_R   0.512810 0.132630 0.986220 -0.585369
O12   O     O_R   0.875460 0.021360 0.614540 -0.571232
O13   O     O_R   0.487190 0.867370 0.013780 -0.585369
O14   O     O_R   0.986220 0.512810 0.132630 -0.585370
O15   O     O_R   0.013780 0.487190 0.867370 -0.585370
O16   O     O_R   0.132630 0.986220 0.512810 -0.585369
O17   O     O_R   0.867370 0.013780 0.487190 -0.585369
O18   O     O_R   0.978640 0.385460 0.124540 -0.571232
O19   O     O_R   0.021360 0.614540 0.875460 -0.571233
O20   O     O_R   0.385460 0.124540 0.978640 -0.571233
O21   O     O_R   0.614540 0.875460 0.021360 -0.571233
O22   O     O_R   0.614540 0.021360 0.875460 -0.571233
O23   O     O_R   0.385460 0.978640 0.124540 -0.571233
O24   O     O_R   0.875460 0.614540 0.021360 -0.571233

loop_
_geom_bond_atom_site_label_1
_geom_bond_atom_site_label_2
_ccdc_geom_bond_type
Cu3   O15   S    
C21   C87   A    
C1    O5    A    
C81   O21   A    
C22   C29   A    
C26   C72   S    
C64   C77   A    
C44   H13   S    
C34   C42   A    
C97   N7    T    
C31   C52   A    
C18   C64   A    
C72   C85   A    
Cu6   O21   S    
C94   N1    T    
C27   C33   A    
C66   C79   A    
C48   O22   A    
C9    C42   A    
C29   C47   A    
C69   C83   A    
C32   C36   A    
C20   C66   A    
C54   C87   A    
C25   C38   A    
C14   C47   A    
C42   H11   S    
C63   C76   A    
C23   C40   A    
C7    O12   A    
C48   O9    A    
C60   C73   A    
C6    O1    A    
C24   C39   A    
C31   C40   A    
C3    C18   S    
C102  N12   T    
Cu2   O12   S    
C55   C88   A    
C38   C45   A    
C2    C79   S    
C4    C19   S    
C19   C52   A    
C40   C43   A    
Cu5   O23   S    
C13   C60   A    
C37   O2    A    
C92   O14   A    
Cu5   Cu6   S    
C23   C89   A    
C36   C46   A    
C50   H18   S    
C22   C88   A    
C37   O8    A    
C10   C56   A    
C58   C91   A    
C9    C95   S    
C12   C98   S    
C43   H12   S    
C96   N6    T    
Cu5   O13   S    
C60   C93   A    
C25   C32   A    
C28   C34   A    
C84   H8    S    
C41   H1    S    
C95   N5    T    
C70   O11   A    
C16   C62   A    
C74   C82   A    
C18   C51   A    
C6    C74   S    
C66   C89   A    
C65   C90   A    
C22   C34   A    
C30   C53   A    
C25   C91   A    
Cu4   O14   S    
C57   C90   A    
C62   C87   A    
C23   C30   A    
C83   H7    S    
C8    C94   S    
C8    C41   A    
C82   H6    S    
C86   H10   S    
C8    C54   A    
C5    C20   S    
C55   C68   A    
C3    N2    T    
C20   C53   A    
C7    C75   S    
C54   C67   A    
C52   H3    S    
C78   C92   S    
C33   C50   A    
C81   O13   A    
C14   C61   A    
C26   O24   A    
C1    C69   S    
Cu6   O11   S    
C24   C90   A    
C70   O20   A    
C13   C99   S    
C26   O7    A    
C17   C102  S    
C32   C51   A    
C59   O23   A    
C61   C88   A    
Cu1   O1    S    
C59   C68   S    
C15   O4    A    
Cu5   O9    S    
C28   C49   A    
C10   C96   S    
Cu3   O7    S    
Cu2   O6    S    
C99   N9    T    
C11   C44   A    
C92   O18   A    
C57   C71   A    
C85   H9    S    
C6    O16   A    
Cu6   O22   S    
C53   H4    S    
Cu1   O17   S    
C5    N4    T    
C21   C28   A    
C56   C69   A    
C2    O15   A    
C70   C76   S    
C61   C74   A    
C46   H15   S    
C27   C93   A    
C39   C44   A    
Cu1   O4    S    
C76   C86   A    
C16   C49   A    
Cu5   O20   S    
C15   C71   S    
C71   C84   A    
C75   C80   A    
C37   C73   S    
C56   C89   A    
C101  N11   T    
C65   C78   A    
C10   C43   A    
C67   C80   A    
C12   C45   A    
Cu1   O5    S    
C17   C50   A    
C14   C100  S    
C4    N3    T    
C21   C35   A    
C45   H14   S    
C51   H2    S    
Cu4   O19   S    
C49   H17   S    
Cu3   Cu4   S    
C29   C35   A    
C33   C38   A    
Cu4   O8    S    
C11   C97   S    
C27   C36   A    
C68   C82   A    
C24   C31   A    
C12   C58   A    
C17   C63   A    
Cu3   O2    S    
C79   C83   A    
C58   C72   A    
C47   H16   S    
C13   C46   A    
C2    O19   A    
C30   C39   A    
C19   C65   A    
C59   O10   A    
C98   N8    T    
Cu4   O24   S    
C48   C67   S    
C9    C55   A    
C35   C41   A    
C73   C86   A    
C1    O3    A    
C77   C85   A    
C15   O6    A    
C78   C84   A    
C16   C101  S    
Cu3   O18   S    
C7    O17   A    
C80   H5    S    
C77   C81   S    
Cu1   Cu2   S    
Cu2   O3    S    
C64   C91   A    
Cu2   O16   S    
C63   C93   A    
C11   C57   A    
C62   C75   A    
C100  N10   T    
Cu6   O10   S    
