data_mof_unit_37993.cif
_audit_creation_date              2013-03-05T16:12:50-0500
_audit_creation_method            fapswitch 2.2
_symmetry_space_group_name_H-M    P1
_symmetry_Int_Tables_number       1
_space_group_crystal_system       triclinic
_cell_length_a                    25.837972
_cell_length_b                    6.903909
_cell_length_c                    21.707871
_cell_angle_alpha                 89.961875
_cell_angle_beta                  96.084206
_cell_angle_gamma                 89.961733
_cell_volume                      3850.50141756

loop_
_atom_site_label
_atom_site_type_symbol
_atom_site_description
_atom_site_fract_x
_atom_site_fract_y
_atom_site_fract_z
_atom_type_partial_charge
O1    O     O_R   0.208650 0.594520 0.175450 -0.586233
O2    O     O_R   0.791350 0.405480 0.824550 -0.585822
O3    O     O_R   0.291350 0.094520 0.324550 -0.585878
O4    O     O_R   0.708650 0.905480 0.675450 -0.585804
O5    O     O_R   0.192980 0.260780 0.300160 -0.595911
O6    O     O_R   0.807020 0.739220 0.699840 -0.595777
O7    O     O_R   0.307020 0.760780 0.199840 -0.596074
O8    O     O_R   0.692980 0.239220 0.800160 -0.595698
C1    C     C_R   0.178818 0.432870 0.318456 0.921695
C2    C     C_R   0.821182 0.567130 0.681543 0.921828
C3    C     C_R   0.321184 0.932858 0.181543 0.921667
C4    C     C_R   0.678815 0.067141 0.818456 0.921065
O9    O     O_R   0.202550 0.264660 0.174420 -0.588602
O10   O     O_R   0.797450 0.735340 0.825580 -0.589834
O11   O     O_R   0.297450 0.764660 0.325580 -0.589178
O12   O     O_R   0.702550 0.235340 0.674420 -0.589155
O13   O     O_R   0.300990 0.096480 0.197920 -0.595761
O14   O     O_R   0.699010 0.903520 0.802080 -0.596024
O15   O     O_R   0.199010 0.596480 0.302080 -0.595622
O16   O     O_R   0.800990 0.403520 0.697920 -0.595682
C5    C     C_R   0.191062 0.433449 0.151143 0.960847
C6    C     C_R   0.808908 0.566600 0.848889 0.960743
C7    C     C_R   0.308998 0.933184 0.348863 0.960253
C8    C     C_R   0.691002 0.066816 0.651137 0.960451
O17   O     O_3   0.282290 0.427760 0.257860 -0.270206
O18   O     O_3   0.717710 0.572240 0.742140 -0.269994
O19   O     O_3   0.217710 0.927760 0.242140 -0.269616
O20   O     O_3   0.782290 0.072240 0.757860 -0.269821
V1    V     V_3+5 0.244010 0.152080 0.248540 1.165633
V2    V     V_3+5 0.755990 0.847920 0.751460 1.164679
V3    V     V_3+5 0.255990 0.652080 0.251460 1.165241
V4    V     V_3+5 0.744010 0.347920 0.748540 1.165353
C9    C     C_R   0.657537 0.062335 0.591678 -0.157016
C10   C     C_R   0.342463 0.937665 0.408322 -0.156957
C11   C     C_R   0.842343 0.561059 0.908299 -0.155629
C12   C     C_R   0.157593 0.439735 0.091782 -0.156019
C13   C     C_R   0.646824 0.137080 0.481760 0.356284
C14   C     C_R   0.353176 0.862923 0.518240 0.355800
C15   C     C_R   0.852674 0.630061 0.018518 0.361843
C16   C     C_R   0.148335 0.392162 0.980430 0.357426
C17   C     C_R   0.678064 0.124053 0.538256 -0.249625
C18   C     C_R   0.321936 0.875948 0.461744 -0.249276
C19   C     C_R   0.821402 0.616365 0.962096 -0.252148
C20   C     C_R   0.179098 0.395257 0.037400 -0.252363
C21   C     C_R   0.604732 0.012087 0.588955 -0.231857
C22   C     C_R   0.395268 0.987912 0.411046 -0.231898
C23   C     C_R   0.895596 0.518536 0.910498 -0.230393
C24   C     C_R   0.104252 0.480349 0.089732 -0.230183
C25   C     C_R   0.571019 0.027817 0.532748 0.094739
C26   C     C_R   0.428980 0.972184 0.467252 0.094805
C27   C     C_R   0.929089 0.530266 0.966948 0.095736
C28   C     C_R   0.070941 0.472259 0.033083 0.095937
C29   C     C_R   0.592812 0.095464 0.479125 -0.014191
C30   C     C_R   0.407187 0.904538 0.520875 -0.014238
C31   C     C_R   0.906497 0.584508 0.021482 -0.015452
C32   C     C_R   0.093910 0.425703 0.978121 -0.015908
C33   C     C_R   0.516249 0.984127 0.528451 0.091699
C34   C     C_R   0.483751 0.015874 0.471550 0.091751
C35   C     C_R   0.984177 0.492108 0.970950 0.092284
C36   C     C_R   0.015676 0.506441 0.029304 0.091421
C37   C     C_R   0.507016 0.091876 0.420917 -0.218208
C38   C     C_R   0.492984 0.908126 0.579083 -0.218118
C39   C     C_R   0.990764 0.552644 0.082098 -0.215414
C40   C     C_R   0.008799 0.439407 0.918528 -0.216258
C41   C     C_R   0.559991 0.129260 0.424584 -0.128396
C42   C     C_R   0.440008 0.870743 0.575417 -0.128206
C43   C     C_R   0.937739 0.589136 0.078241 -0.119571
C44   C     C_R   0.061992 0.406563 0.922174 -0.128539
H1    H     H_    0.574661 0.191186 0.384096 0.184561
H2    H     H_    0.425338 0.808818 0.615904 0.184653
H3    H     H_    0.921418 0.619878 0.121038 0.186204
H4    H     H_    0.077677 0.362134 0.880150 0.185528
H5    H     H_    0.409040 0.030236 0.367900 0.109731
H6    H     H_    0.590960 0.969762 0.632100 0.109805
H7    H     H_    0.090127 0.513213 0.133442 0.107975
H8    H     H_    0.909513 0.480915 0.867043 0.108178
H9    H     H_    0.281003 0.838959 0.459487 0.157121
H10   H     H_    0.718996 0.161043 0.540514 0.157037
H11   H     H_    0.220463 0.365955 0.039211 0.156166
H12   H     H_    0.780532 0.654582 0.959793 0.155154
H13   H     H_    0.485160 0.127402 0.377391 0.136793
H14   H     H_    0.514839 0.872601 0.622610 0.136862
H15   H     H_    0.011111 0.562066 0.127862 0.136035
H16   H     H_    0.988034 0.420902 0.873291 0.136263
C45   C     C_R   0.427324 0.793631 0.079340 -0.118356
C46   C     C_R   0.572661 0.206361 0.920639 -0.118198
C47   C     C_R   0.072636 0.293702 0.420591 -0.119556
C48   C     C_R   0.927359 0.706301 0.579402 -0.119448
H17   H     H_    0.445572 0.663098 0.064313 0.109671
H18   H     H_    0.554405 0.336892 0.935656 0.109753
H19   H     H_    0.054357 0.163193 0.435567 0.109552
H20   H     H_    0.945635 0.836810 0.564423 0.109522
C49   C     C_R   0.388071 0.778674 0.119300 -0.148757
C50   C     C_R   0.611916 0.221320 0.880683 -0.147542
C51   C     C_R   0.111891 0.278746 0.380634 -0.148628
C52   C     C_R   0.888104 0.721256 0.619359 -0.148724
H21   H     H_    0.376940 0.636300 0.134116 0.126436
H22   H     H_    0.623041 0.363693 0.865858 0.126598
H23   H     H_    0.122991 0.136398 0.365768 0.126620
H24   H     H_    0.877002 0.863604 0.634223 0.126539
C53   C     C_R   0.363500 0.945786 0.139620 -0.134301
C54   C     C_R   0.636497 0.054212 0.860376 -0.135157
C55   C     C_R   0.136502 0.445821 0.360378 -0.134259
C56   C     C_R   0.863497 0.554180 0.639620 -0.134138
C57   C     C_R   0.379476 0.127762 0.118794 -0.145379
C58   C     C_R   0.620528 0.872237 0.881211 -0.146931
C59   C     C_R   0.120562 0.627764 0.381265 -0.145202
C60   C     C_R   0.879439 0.372235 0.618737 -0.145490
H25   H     H_    0.361635 0.259974 0.133085 0.131736
H26   H     H_    0.638377 0.740028 0.866930 0.132253
H27   H     H_    0.138435 0.759948 0.367026 0.131869
H28   H     H_    0.861570 0.240051 0.632980 0.131824
C61   C     C_R   0.418605 0.142216 0.078966 -0.122184
C62   C     C_R   0.581396 0.857781 0.921035 -0.121985
C63   C     C_R   0.081430 0.642218 0.421091 -0.123037
C64   C     C_R   0.918571 0.357783 0.578911 -0.123283
H29   H     H_    0.429937 0.283966 0.063706 0.109865
H30   H     H_    0.570070 0.716033 0.936303 0.110168
H31   H     H_    0.070126 0.783939 0.436400 0.109785
H32   H     H_    0.929878 0.216061 0.563604 0.109704
C65   C     C_R   0.442769 0.975562 0.058902 0.170468
C66   C     C_R   0.557223 0.024432 0.941087 0.169982
C67   C     C_R   0.057228 0.475595 0.441091 0.170616
C68   C     C_R   0.942770 0.524407 0.558906 0.170814
C69   C     C_1   0.483155 0.992320 0.017355 -0.042851
C70   C     C_1   0.516836 0.007673 0.982632 -0.042758
C71   C     C_1   0.016839 0.492336 0.482637 -0.044036
C72   C     C_1   0.983158 0.507666 0.517360 -0.044087
N1    N     N_R   0.670765 0.192475 0.427585 0.233806
O21   O     O_R   0.664504 0.085557 0.378010 -0.356186
O22   O     O_R   0.706186 0.327109 0.431392 -0.358525
N2    N     N_R   0.329234 0.807530 0.572415 0.234026
O23   O     O_R   0.335495 0.914449 0.621990 -0.354747
O24   O     O_R   0.293813 0.672898 0.568609 -0.357125
N3    N     N_R   0.829323 0.697628 0.071740 0.234467
O25   O     O_R   0.848695 0.847324 0.102439 -0.377209
O26   O     O_R   0.783453 0.635525 0.081915 -0.346862
N4    N     N_R   0.173260 0.356563 0.925407 0.233972
O27   O     O_R   0.167087 0.478140 0.879371 -0.356545
O28   O     O_R   0.209561 0.225646 0.925910 -0.353255

loop_
_geom_bond_atom_site_label_1
_geom_bond_atom_site_label_2
_geom_bond_distance
_ccdc_geom_bond_type
O17   V3    1.690501 S    
C48   C52   1.406481 A    
O1    C5    1.293111 A    
C47   H19   1.083191 S    
O19   V1    1.691501 S    
C9    C21   1.403180 A    
O3    C7    1.294088 A    
C10   C18   1.392012 A    
C48   C68   1.403976 A    
C11   C23   1.402578 A    
C25   C33   1.440474 A    
N3    O25   1.301397 A    
C5    C12   1.474401 S    
C15   N3    1.436844 S    
O7    C3    1.316752 A    
C6    C11   1.474697 S    
O5    C1    1.316836 A    
C26   C30   1.424337 A    
C58   C62   1.401765 A    
C36   C39   1.409276 A    
C40   C44   1.386793 A    
C57   C61   1.401765 A    
C23   H8    1.076423 S    
C14   C18   1.397725 A    
C58   H26   1.082600 S    
O4    C8    1.294087 A    
C51   H23   1.082535 S    
C44   H4    1.081239 S    
C50   H22   1.082541 S    
O1    V3    1.987539 S    
O13   V1    1.965984 S    
C31   C43   1.399991 A    
O2    V4    1.987535 S    
O3    V1    1.986770 S    
C40   H16   1.075672 S    
C46   C50   1.406500 A    
C65   C69   1.454374 S    
C45   C49   1.406500 A    
C1    O15   1.309208 A    
C15   C31   1.420366 A    
C48   H20   1.083193 S    
C2    O16   1.309206 A    
N2    O23   1.301345 A    
C16   C32   1.420647 A    
C16   N4    1.437035 S    
O2    C6    1.293435 A    
C45   C65   1.403991 A    
C10   C22   1.403182 A    
C11   C19   1.391623 A    
C16   C20   1.397639 A    
C43   H3    1.081284 S    
C1    C55   1.497505 S    
C68   C72   1.454368 S    
C13   C29   1.420215 A    
C34   C37   1.408706 A    
O11   C7    1.291291 A    
C38   H14   1.076209 S    
O15   V3    1.966078 S    
C35   C36   1.434762 A    
O12   C8    1.291292 A    
C53   C57   1.411619 A    
C24   H7    1.076383 S    
O10   V2    1.993076 S    
C51   C55   1.409885 A    
O5    V1    1.967307 S    
O17   V1    2.145287 S    
C39   C43   1.386647 A    
C63   C67   1.400255 A    
C38   C42   1.387054 A    
O19   V3    2.143876 S    
C26   C34   1.440475 A    
O20   V4    2.143873 S    
O7    V3    1.967412 S    
C46   H18   1.083186 S    
C49   C53   1.409886 A    
C17   H10   1.084232 S    
C45   H17   1.083185 S    
O18   V4    1.690502 S    
C15   C19   1.397277 A    
C33   C38   1.408706 A    
C19   H12   1.084299 S    
C32   C44   1.400208 A    
C60   H28   1.082608 S    
C39   H15   1.075625 S    
C21   H6    1.076873 S    
O8    V4    1.967412 S    
C66   C70   1.454375 S    
C4    C54   1.497511 S    
C37   C41   1.387052 A    
C67   C71   1.454367 S    
C14   C30   1.420217 A    
C21   C25   1.426067 A    
O8    C4    1.316755 A    
C7    C10   1.475843 S    
C35   C40   1.409182 A    
O9    C5    1.291634 A    
C3    C53   1.497509 S    
C59   C63   1.401778 A    
C62   H30   1.083377 S    
N4    O28   1.301344 A    
C61   H29   1.083376 S    
N2    O24   1.301377 A    
O6    V2    1.967309 S    
O18   V2    2.145287 S    
C63   H31   1.083377 S    
C52   C56   1.409885 A    
C69   C70   1.214801 T    
C12   C20   1.391393 A    
C27   C35   1.440898 A    
C71   C72   1.214799 T    
C49   H21   1.082539 S    
C56   C60   1.411621 A    
C29   C41   1.400686 A    
N1    O21   1.301344 A    
O16   V4    1.966081 S    
O9    V1    1.993079 S    
N3    O26   1.301286 A    
C57   H25   1.082599 S    
C47   C51   1.406483 A    
C3    O13   1.309109 A    
C64   C68   1.400256 A    
C59   H27   1.082609 S    
C20   H11   1.084218 S    
O6    C2    1.316835 A    
C23   C27   1.425667 A    
O11   V3    1.994470 S    
C30   C42   1.400683 A    
O12   V4    1.994471 S    
C22   C26   1.426064 A    
C8    C9    1.475840 S    
C9    C17   1.392013 A    
O10   C6    1.291441 A    
C2    C56   1.497505 S    
C37   H13   1.076207 S    
C47   C67   1.403977 A    
C60   C64   1.401777 A    
C33   C34   1.434695 A    
C42   H2    1.081318 S    
C41   H1    1.081319 S    
C52   H24   1.082535 S    
O20   V2    1.691500 S    
C13   N1    1.437312 S    
C12   C24   1.402337 A    
C27   C31   1.424494 A    
C13   C17   1.397725 A    
C46   C66   1.403991 A    
C25   C29   1.424336 A    
N4    O27   1.301355 A    
O14   V2    1.965979 S    
C62   C66   1.400242 A    
C64   H32   1.083378 S    
C24   C28   1.425463 A    
C61   C65   1.400240 A    
C50   C54   1.409887 A    
C18   H9    1.084231 S    
C28   C36   1.440858 A    
C54   C58   1.411619 A    
C4    O14   1.309109 A    
C55   C59   1.411621 A    
C22   H5    1.076873 S    
O4    V2    1.986775 S    
C28   C32   1.424559 A    
C14   N2    1.437316 S    
N1    O22   1.301378 A    
