data_mof_unit_63122.cif
_audit_creation_date              2012-12-10T20:17:12-0500
_audit_creation_method            fapswitch 2.2
_symmetry_space_group_name_H-M    P1
_symmetry_Int_Tables_number       1
_space_group_crystal_system       monoclinic
_cell_length_a                    35.538109
_cell_length_b                    35.538106
_cell_length_c                    23.547775
_cell_angle_alpha                 90.000014
_cell_angle_beta                  90.0
_cell_angle_gamma                 90.0
_cell_volume                      29739.8292647

loop_
_atom_site_label
_atom_site_type_symbol
_atom_type_description
_atom_site_fract_x
_atom_site_fract_y
_atom_site_fract_z
_atom_type_partial_charge
C1    C     C_R   0.000000 0.426571 0.500000 0.890333
C2    C     C_R   0.426571 1.000000 0.500000 0.890334
C3    C     C_R   0.000000 0.573429 0.500000 0.890333
C4    C     C_R   0.573429 0.000000 0.500000 0.890334
C5    C     C_R   0.500000 0.926571 0.000000 0.890334
C6    C     C_R   0.926571 0.500000 0.000000 0.890334
C7    C     C_R   0.500000 0.073429 0.000000 0.890333
C8    C     C_R   0.073428 0.500000 0.000000 0.890333
C9    C     C_1   0.000000 0.266675 0.500000 -0.017337
C10   C     C_1   0.266675 1.000000 0.500000 -0.017337
C11   C     C_1   1.000000 0.733325 0.500000 -0.017337
C12   C     C_1   0.733325 1.000000 0.500000 -0.017337
C13   C     C_1   0.500000 0.766675 0.000000 -0.017337
C14   C     C_1   0.766675 0.500000 1.000000 -0.017337
C15   C     C_1   0.500000 0.233325 1.000000 -0.017337
C16   C     C_1   0.233325 0.500000 0.000000 -0.017337
C17   C     C_R   0.965678 0.326248 0.496043 0.102077
C18   C     C_R   0.326248 0.034322 0.496044 0.102077
C19   C     C_R   0.034322 0.673752 0.496047 0.102077
C20   C     C_R   0.673752 0.965678 0.496047 0.102078
C21   C     C_R   0.034322 0.326248 0.503957 0.102077
C22   C     C_R   0.673752 0.034322 0.503953 0.102077
C23   C     C_R   0.965678 0.673752 0.503953 0.102077
C24   C     C_R   0.326248 0.965678 0.503956 0.102077
C25   C     C_R   0.465678 0.826248 0.996046 0.102077
C26   C     C_R   0.826248 0.534322 0.996048 0.102077
C27   C     C_R   0.534322 0.173752 0.996047 0.102077
C28   C     C_R   0.173752 0.465677 0.996050 0.102076
C29   C     C_R   0.534322 0.826248 0.003954 0.102077
C30   C     C_R   0.173752 0.534322 0.003950 0.102076
C31   C     C_R   0.465678 0.173752 0.003952 0.102077
C32   C     C_R   0.826248 0.465678 0.003952 0.102077
C33   C     C_R   0.965938 0.365588 0.496330 -0.235430
C34   C     C_R   0.365588 0.034062 0.496331 -0.235431
C35   C     C_R   0.034062 0.634412 0.496334 -0.235431
C36   C     C_R   0.634412 0.965938 0.496334 -0.235431
C37   C     C_R   0.034062 0.365588 0.503670 -0.235430
C38   C     C_R   0.634412 0.034062 0.503666 -0.235431
C39   C     C_R   0.965938 0.634412 0.503666 -0.235430
C40   C     C_R   0.365588 0.965938 0.503669 -0.235430
C41   C     C_R   0.465938 0.865588 0.996333 -0.235432
C42   C     C_R   0.865588 0.534062 0.996335 -0.235431
C43   C     C_R   0.534062 0.134412 0.996335 -0.235432
C44   C     C_R   0.134412 0.465938 0.996337 -0.235431
C45   C     C_R   0.534062 0.865588 0.003667 -0.235432
C46   C     C_R   0.134412 0.534062 0.003663 -0.235431
C47   C     C_R   0.465938 0.134412 0.003665 -0.235430
C48   C     C_R   0.865588 0.465938 0.003665 -0.235431
C49   C     C_R   0.000000 0.385351 0.500000 -0.090117
C50   C     C_R   0.385351 1.000000 0.500000 -0.090117
C51   C     C_R   1.000000 0.614649 0.500000 -0.090118
C52   C     C_R   0.614649 1.000000 0.500000 -0.090117
C53   C     C_R   0.500000 0.885351 0.000000 -0.090117
C54   C     C_R   0.885351 0.500000 0.000000 -0.090118
C55   C     C_R   0.500000 0.114649 1.000000 -0.090118
C56   C     C_R   0.114649 0.500000 0.000000 -0.090118
C57   C     C_R   0.000000 0.306789 0.500000 0.113224
C58   C     C_R   0.306789 1.000000 0.500000 0.113223
C59   C     C_R   0.000000 0.693211 0.500000 0.113224
C60   C     C_R   0.693211 1.000000 0.500000 0.113223
C61   C     C_R   0.500000 0.806789 0.000000 0.113223
C62   C     C_R   0.806789 0.500000 1.000000 0.113224
C63   C     C_R   0.500000 0.193211 1.000000 0.113224
C64   C     C_R   0.193211 0.500000 0.000000 0.113225
C65   C     C_R   0.926715 1.000000 0.500000 0.952568
C66   C     C_R   0.000000 0.073285 0.500000 0.952566
C67   C     C_R   0.073285 1.000000 0.500000 0.952567
C68   C     C_R   1.000000 0.926715 0.500000 0.952569
C69   C     C_R   0.426715 0.500000 0.000000 0.952568
C70   C     C_R   0.500000 0.573285 0.000000 0.952568
C71   C     C_R   0.573285 0.500000 0.000000 0.952569
C72   C     C_R   0.500000 0.426715 0.000000 0.952568
C73   C     C_R   0.000000 0.500000 0.609444 0.911103
C74   C     C_R   0.500000 0.000000 0.609444 0.911103
C75   C     C_R   0.000000 0.500000 0.390556 0.911103
C76   C     C_R   0.500000 0.000000 0.390556 0.911103
C77   C     C_R   0.500000 0.000000 0.109444 0.911103
C78   C     C_R   0.000000 0.500000 0.109444 0.911103
C79   C     C_R   0.500000 1.000000 0.890556 0.911103
C80   C     C_R   0.000000 0.500000 0.890556 0.911104
C81   C     C_1   0.000000 0.500000 0.669627 -0.191138
C82   C     C_1   0.500000 0.000000 0.669627 -0.191138
C83   C     C_1   0.000000 0.500000 0.330373 -0.191138
C84   C     C_1   0.500000 1.000000 0.330373 -0.191138
C85   C     C_1   0.500000 0.000000 0.169627 -0.191138
C86   C     C_1   0.000000 0.500000 0.169627 -0.191138
C87   C     C_1   0.500000 0.000000 0.830372 -0.191138
C88   C     C_1   0.000000 0.500000 0.830372 -0.191138
C89   C     C_1   0.000000 0.500000 0.720379 0.006253
C90   C     C_1   0.500000 0.000000 0.720379 0.006253
C91   C     C_1   1.000000 0.500000 0.279620 0.006253
C92   C     C_1   0.500000 1.000000 0.279620 0.006253
C93   C     C_1   0.500000 0.000000 0.220379 0.006253
C94   C     C_1   0.000000 0.500000 0.220380 0.006254
C95   C     C_1   0.500000 0.000000 0.779620 0.006253
C96   C     C_1   0.000000 0.500000 0.779620 0.006254
C97   C     C_R   0.975567 0.173428 0.463392 0.065779
C98   C     C_R   0.173428 0.024433 0.463392 0.065779
C99   C     C_R   0.024434 0.826572 0.463394 0.065780
C100  C     C_R   0.826572 0.975567 0.463392 0.065779
C101  C     C_R   0.024433 0.173428 0.536608 0.065779
C102  C     C_R   0.826572 0.024432 0.536608 0.065779
C103  C     C_R   0.975566 0.826572 0.536606 0.065780
C104  C     C_R   0.173428 0.975567 0.536608 0.065779
C105  C     C_R   0.475567 0.673428 0.963393 0.065779
C106  C     C_R   0.673428 0.524434 0.963394 0.065780
C107  C     C_R   0.524433 0.326572 0.963393 0.065779
C108  C     C_R   0.326572 0.475567 0.963393 0.065779
C109  C     C_R   0.524433 0.673428 0.036607 0.065779
C110  C     C_R   0.326572 0.524433 0.036607 0.065780
C111  C     C_R   0.475567 0.326572 0.036607 0.065780
C112  C     C_R   0.673428 0.475566 0.036606 0.065780
C113  C     C_R   0.975605 0.134018 0.463378 0.048021
C114  C     C_R   0.134018 0.024395 0.463377 0.048021
C115  C     C_R   0.024396 0.865982 0.463379 0.048019
C116  C     C_R   0.865982 0.975605 0.463377 0.048022
C117  C     C_R   0.024395 0.134018 0.536622 0.048021
C118  C     C_R   0.865982 0.024395 0.536623 0.048021
C119  C     C_R   0.975604 0.865982 0.536620 0.048020
C120  C     C_R   0.134018 0.975605 0.536622 0.048022
C121  C     C_R   0.475605 0.634018 0.963378 0.048021
C122  C     C_R   0.634018 0.524396 0.963379 0.048020
C123  C     C_R   0.524395 0.365982 0.963378 0.048021
C124  C     C_R   0.365982 0.475605 0.963378 0.048021
C125  C     C_R   0.524395 0.634018 0.036622 0.048021
C126  C     C_R   0.365982 0.524395 0.036622 0.048021
C127  C     C_R   0.475605 0.365982 0.036622 0.048021
C128  C     C_R   0.634018 0.475604 0.036621 0.048020
C129  C     C_R   0.000000 0.114382 0.500000 -0.125426
C130  C     C_R   0.114382 1.000000 0.500000 -0.125427
C131  C     C_R   1.000000 0.885618 0.500000 -0.125424
C132  C     C_R   0.885618 1.000000 0.500000 -0.125427
C133  C     C_R   0.500000 0.614382 0.000000 -0.125426
C134  C     C_R   0.614382 0.500000 1.000000 -0.125425
C135  C     C_R   0.500000 0.385618 1.000000 -0.125426
C136  C     C_R   0.385618 0.500000 0.000000 -0.125426
C137  C     C_R   0.000000 0.192949 0.500000 0.017898
C138  C     C_R   0.192949 1.000000 0.500000 0.017898
C139  C     C_R   0.000000 0.807051 0.500000 0.017898
C140  C     C_R   0.807051 1.000000 0.500000 0.017899
C141  C     C_R   0.500000 0.692949 0.000000 0.017898
C142  C     C_R   0.692949 0.500000 1.000000 0.017898
C143  C     C_R   0.500000 0.307051 1.000000 0.017898
C144  C     C_R   0.307051 0.500000 0.000000 0.017898
C145  C     C_1   0.000000 0.233085 0.500000 -0.051411
C146  C     C_1   0.233084 1.000000 0.500000 -0.051411
C147  C     C_1   1.000000 0.766915 0.500000 -0.051411
C148  C     C_1   0.766915 1.000000 0.500000 -0.051411
C149  C     C_1   0.500000 0.733085 0.000000 -0.051411
C150  C     C_1   0.733085 0.500000 1.000000 -0.051411
C151  C     C_1   0.500000 0.266915 1.000000 -0.051411
C152  C     C_1   0.266915 0.500000 0.000000 -0.051411
H1    H     H_    0.939550 0.380717 0.493359 0.161336
H2    H     H_    0.380717 0.060450 0.493361 0.161336
H3    H     H_    0.060450 0.619282 0.493366 0.161336
H4    H     H_    0.619282 0.939549 0.493365 0.161336
H5    H     H_    0.060450 0.380717 0.506641 0.161336
H6    H     H_    0.619282 0.060450 0.506635 0.161336
H7    H     H_    0.939550 0.619282 0.506633 0.161336
H8    H     H_    0.380717 0.939550 0.506639 0.161336
H9    H     H_    0.439550 0.880717 0.993364 0.161336
H10   H     H_    0.880717 0.560450 0.993368 0.161336
H11   H     H_    0.560450 0.119282 0.993367 0.161336
H12   H     H_    0.119283 0.439549 0.993371 0.161336
H13   H     H_    0.560450 0.880717 0.006636 0.161336
H14   H     H_    0.119282 0.560451 0.006629 0.161336
H15   H     H_    0.439549 0.119283 0.006633 0.161336
H16   H     H_    0.880717 0.439549 0.006632 0.161336
O1    O     O_R   0.031300 0.444560 0.499980 -0.624992
O2    O     O_R   0.444560 0.968700 0.499980 -0.624992
O3    O     O_R   0.968700 0.555440 0.499980 -0.624991
O4    O     O_R   0.555440 0.031300 0.499980 -0.624992
O5    O     O_R   0.968700 0.444560 0.500020 -0.624991
O6    O     O_R   0.555440 0.968700 0.500020 -0.624991
O7    O     O_R   0.031300 0.555440 0.500020 -0.624992
O8    O     O_R   0.444560 0.031300 0.500020 -0.624992
O9    O     O_R   0.531300 0.944560 0.999980 -0.624992
O10   O     O_R   0.944560 0.468700 0.999980 -0.624992
O11   O     O_R   0.468700 0.055440 0.999980 -0.624992
O12   O     O_R   0.055440 0.531300 0.999980 -0.624992
O13   O     O_R   0.468700 0.944560 0.000020 -0.624992
O14   O     O_R   0.055440 0.468700 0.000020 -0.624992
O15   O     O_R   0.531300 0.055440 0.000020 -0.624992
O16   O     O_R   0.944560 0.531300 0.000020 -0.624992
O17   O     O_R   0.031300 0.500000 0.582760 -0.613944
O18   O     O_R   0.500000 0.968700 0.582760 -0.613943
O19   O     O_R   0.968700 0.500000 0.582760 -0.613943
O20   O     O_R   0.500000 0.031300 0.582760 -0.613944
O21   O     O_R   0.968700 0.500000 0.417240 -0.613943
O22   O     O_R   0.500000 0.968700 0.417240 -0.613943
O23   O     O_R   0.031300 0.500000 0.417240 -0.613943
O24   O     O_R   0.500000 0.031300 0.417240 -0.613944
O25   O     O_R   0.531300 0.000000 0.082760 -0.613944
O26   O     O_R   1.000000 0.468700 0.082760 -0.613943
O27   O     O_R   0.468700 0.000000 0.082760 -0.613943
O28   O     O_R   1.000000 0.531300 0.082760 -0.613944
O29   O     O_R   0.468700 0.000000 0.917240 -0.613943
O30   O     O_R   0.000000 0.468700 0.917240 -0.613943
O31   O     O_R   0.531300 0.000000 0.917240 -0.613944
O32   O     O_R   0.000000 0.531300 0.917240 -0.613944
O33   O     O_R   0.944690 0.999980 0.546690 -0.610151
O34   O     O_R   0.999980 0.055310 0.546690 -0.610152
O35   O     O_R   0.055310 0.000020 0.546690 -0.610152
O36   O     O_R   0.000020 0.944690 0.546690 -0.610152
O37   O     O_R   0.055310 0.999980 0.453310 -0.610151
O38   O     O_R   0.000020 0.055310 0.453310 -0.610151
O39   O     O_R   0.944690 0.000020 0.453310 -0.610151
O40   O     O_R   0.999980 0.944690 0.453310 -0.610152
O41   O     O_R   0.444690 0.499980 0.046690 -0.610151
O42   O     O_R   0.499980 0.555310 0.046690 -0.610152
O43   O     O_R   0.555310 0.500020 0.046690 -0.610152
O44   O     O_R   0.500020 0.444690 0.046690 -0.610151
O45   O     O_R   0.555310 0.499980 0.953310 -0.610152
O46   O     O_R   0.500020 0.555310 0.953310 -0.610151
O47   O     O_R   0.444690 0.500020 0.953310 -0.610151
O48   O     O_R   0.499980 0.444690 0.953310 -0.610151
Zn1   Zn    Zn3+2 0.041800 0.500000 0.500000 0.956596
Zn2   Zn    Zn3+2 0.500000 0.958200 0.500000 0.956596
Zn3   Zn    Zn3+2 0.958200 0.500000 0.500000 0.956596
Zn4   Zn    Zn3+2 0.500000 0.041800 0.500000 0.956596
Zn5   Zn    Zn3+2 0.541800 0.000000 0.000000 0.956596
Zn6   Zn    Zn3+2 1.000000 0.458200 0.000000 0.956596
Zn7   Zn    Zn3+2 0.458200 0.000000 0.000000 0.956596
Zn8   Zn    Zn3+2 0.000000 0.541800 0.000000 0.956596
Zn9   Zn    Zn3+2 1.000000 0.000000 0.562390 0.981514
Zn10  Zn    Zn3+2 1.000000 0.000000 0.437610 0.981515
Zn11  Zn    Zn3+2 0.500000 0.500000 0.062390 0.981514
Zn12  Zn    Zn3+2 0.500000 0.500000 0.937610 0.981515
N1    N     N_3   0.950402 0.193171 0.426158 -0.473735
H17   H     H_    0.966346 0.210447 0.399461 0.191712
H18   H     H_    0.932874 0.210270 0.450776 0.193989
N2    N     N_3   0.193171 0.049598 0.426157 -0.473735
H19   H     H_    0.210447 0.033653 0.399461 0.191713
H20   H     H_    0.210270 0.067126 0.450776 0.193989
N3    N     N_3   0.049601 0.806829 0.426162 -0.473735
H21   H     H_    0.033657 0.789553 0.399464 0.191713
H22   H     H_    0.067128 0.789730 0.450782 0.193988
N4    N     N_3   0.806829 0.950402 0.426157 -0.473736
H23   H     H_    0.789553 0.966347 0.399460 0.191714
H24   H     H_    0.789730 0.932874 0.450775 0.193988
N5    N     N_3   0.049598 0.193171 0.573842 -0.473735
H25   H     H_    0.033654 0.210447 0.600539 0.191713
H26   H     H_    0.067126 0.210270 0.549224 0.193989
N6    N     N_3   0.806829 0.049598 0.573843 -0.473736
H27   H     H_    0.789553 0.033653 0.600540 0.191713
H28   H     H_    0.789730 0.067126 0.549225 0.193988
N7    N     N_3   0.950399 0.806829 0.573838 -0.473735
H29   H     H_    0.966342 0.789553 0.600536 0.191712
H30   H     H_    0.932872 0.789730 0.549218 0.193988
N8    N     N_3   0.193171 0.950402 0.573842 -0.473735
H31   H     H_    0.210447 0.966346 0.600539 0.191713
H32   H     H_    0.210270 0.932874 0.549224 0.193988
N9    N     N_3   0.450401 0.693171 0.926159 -0.473735
H33   H     H_    0.466345 0.710447 0.899462 0.191713
H34   H     H_    0.432874 0.710270 0.950777 0.193988
N10   N     N_3   0.693171 0.549601 0.926161 -0.473735
H35   H     H_    0.710447 0.533657 0.899463 0.191713
H36   H     H_    0.710270 0.567127 0.950781 0.193988
N11   N     N_3   0.549599 0.306829 0.926158 -0.473735
H37   H     H_    0.533655 0.289553 0.899462 0.191713
H38   H     H_    0.567126 0.289730 0.950777 0.193987
N12   N     N_3   0.306829 0.450401 0.926158 -0.473735
H39   H     H_    0.289553 0.466346 0.899462 0.191714
H40   H     H_    0.289730 0.432874 0.950777 0.193987
N13   N     N_3   0.549599 0.693171 0.073841 -0.473735
H41   H     H_    0.533655 0.710447 0.100538 0.191713
H42   H     H_    0.567126 0.710270 0.049223 0.193988
N14   N     N_3   0.306829 0.549599 0.073842 -0.473735
H43   H     H_    0.289553 0.533654 0.100539 0.191713
H44   H     H_    0.289730 0.567126 0.049223 0.193987
N15   N     N_3   0.450401 0.306829 0.073841 -0.473735
H45   H     H_    0.466346 0.289553 0.100538 0.191713
H46   H     H_    0.432874 0.289730 0.049223 0.193988
N16   N     N_3   0.693171 0.450399 0.073839 -0.473735
H47   H     H_    0.710447 0.466343 0.100536 0.191712
H48   H     H_    0.710270 0.432872 0.049219 0.193988
N17   N     N_3   0.950173 0.113708 0.427293 -0.438593
H49   H     H_    0.955478 0.121459 0.385215 0.207095
H50   H     H_    0.922681 0.121739 0.437463 0.195224
N18   N     N_3   0.113708 0.049827 0.427292 -0.438593
H51   H     H_    0.121459 0.044521 0.385215 0.207095
H52   H     H_    0.121739 0.077318 0.437462 0.195224
N19   N     N_3   0.049829 0.886292 0.427296 -0.438595
H53   H     H_    0.044526 0.878541 0.385218 0.207095
H54   H     H_    0.077321 0.878261 0.437469 0.195224
N20   N     N_3   0.886292 0.950174 0.427291 -0.438593
H55   H     H_    0.878541 0.955479 0.385214 0.207095
H56   H     H_    0.878261 0.922682 0.437461 0.195224
N21   N     N_3   0.049827 0.113708 0.572707 -0.438593
H57   H     H_    0.044522 0.121459 0.614785 0.207095
H58   H     H_    0.077319 0.121739 0.562537 0.195224
N22   N     N_3   0.886292 0.049826 0.572708 -0.438592
H59   H     H_    0.878541 0.044521 0.614786 0.207095
H60   H     H_    0.878261 0.077318 0.562539 0.195224
N23   N     N_3   0.950171 0.886292 0.572703 -0.438595
H61   H     H_    0.955474 0.878541 0.614781 0.207095
H62   H     H_    0.922679 0.878262 0.562531 0.195224
N24   N     N_3   0.113708 0.950173 0.572708 -0.438593
H63   H     H_    0.121459 0.955478 0.614785 0.207095
H64   H     H_    0.121738 0.922681 0.562537 0.195224
N25   N     N_3   0.450172 0.613708 0.927293 -0.438594
H65   H     H_    0.455477 0.621459 0.885216 0.207095
H66   H     H_    0.422681 0.621738 0.937464 0.195224
N26   N     N_3   0.613708 0.549829 0.927296 -0.438595
H67   H     H_    0.621459 0.544525 0.885218 0.207095
H68   H     H_    0.621738 0.577320 0.937468 0.195224
N27   N     N_3   0.549827 0.386292 0.927293 -0.438593
H69   H     H_    0.544523 0.378541 0.885216 0.207095
H70   H     H_    0.577319 0.378261 0.937464 0.195224
N28   N     N_3   0.386292 0.450173 0.927293 -0.438594
H71   H     H_    0.378541 0.455478 0.885215 0.207095
H72   H     H_    0.378261 0.422681 0.937464 0.195225
N29   N     N_3   0.549828 0.613708 0.072706 -0.438594
H73   H     H_    0.544523 0.621459 0.114784 0.207095
H74   H     H_    0.577319 0.621738 0.062536 0.195224
N30   N     N_3   0.386292 0.549827 0.072707 -0.438594
H75   H     H_    0.378541 0.544522 0.114785 0.207095
H76   H     H_    0.378261 0.577319 0.062536 0.195225
N31   N     N_3   0.450172 0.386292 0.072707 -0.438594
H77   H     H_    0.455477 0.378541 0.114784 0.207095
H78   H     H_    0.422681 0.378261 0.062536 0.195224
N32   N     N_3   0.613708 0.450171 0.072704 -0.438595
H79   H     H_    0.621459 0.455475 0.114782 0.207095
H80   H     H_    0.621738 0.422679 0.062532 0.195224
N33   N     N_3   0.930797 0.305875 0.492147 -0.458682
H81   H     H_    0.907955 0.324420 0.492590 0.181208
H82   H     H_    0.930323 0.292412 0.452670 0.177436
N34   N     N_3   0.305875 0.069203 0.492148 -0.458681
H83   H     H_    0.324420 0.092045 0.492592 0.181207
H84   H     H_    0.292412 0.069678 0.452671 0.177436
N35   N     N_3   0.069203 0.694125 0.492155 -0.458682
H85   H     H_    0.092045 0.675580 0.492601 0.181207
H86   H     H_    0.069680 0.707588 0.452678 0.177436
N36   N     N_3   0.694125 0.930797 0.492154 -0.458681
H87   H     H_    0.675580 0.907955 0.492599 0.181208
H88   H     H_    0.707588 0.930320 0.452677 0.177436
N37   N     N_3   0.069202 0.305875 0.507853 -0.458682
H89   H     H_    0.092045 0.324420 0.507410 0.181208
H90   H     H_    0.069677 0.292412 0.547330 0.177436
N38   N     N_3   0.694125 0.069203 0.507846 -0.458681
H91   H     H_    0.675580 0.092045 0.507401 0.181207
H92   H     H_    0.707588 0.069679 0.547323 0.177436
N39   N     N_3   0.930797 0.694125 0.507845 -0.458682
H93   H     H_    0.907955 0.675580 0.507399 0.181208
H94   H     H_    0.930320 0.707588 0.547322 0.177436
N40   N     N_3   0.305875 0.930797 0.507851 -0.458682
H95   H     H_    0.324420 0.907955 0.507408 0.181208
H96   H     H_    0.292412 0.930322 0.547328 0.177436
N41   N     N_3   0.430797 0.805875 0.992152 -0.458681
H97   H     H_    0.407955 0.824420 0.992597 0.181207
H98   H     H_    0.430321 0.792412 0.952675 0.177436
N42   N     N_3   0.805875 0.569203 0.992157 -0.458682
H99   H     H_    0.824419 0.592045 0.992604 0.181208
H100  H     H_    0.792412 0.569680 0.952680 0.177436
N43   N     N_3   0.569203 0.194125 0.992156 -0.458681
H101  H     H_    0.592045 0.175580 0.992602 0.181207
H102  H     H_    0.569680 0.207588 0.952679 0.177436
N44   N     N_3   0.194125 0.430797 0.992160 -0.458681
H103  H     H_    0.175580 0.407955 0.992608 0.181208
H104  H     H_    0.207588 0.430319 0.952683 0.177436
N45   N     N_3   0.569203 0.805875 0.007848 -0.458682
H105  H     H_    0.592045 0.824420 0.007403 0.181207
H106  H     H_    0.569679 0.792412 0.047325 0.177436
N46   N     N_3   0.194125 0.569203 0.007840 -0.458681
H107  H     H_    0.175580 0.592045 0.007392 0.181208
H108  H     H_    0.207588 0.569681 0.047316 0.177436
N47   N     N_3   0.430797 0.194125 0.007844 -0.458681
H109  H     H_    0.407955 0.175580 0.007398 0.181207
H110  H     H_    0.430320 0.207588 0.047321 0.177436
N48   N     N_3   0.805875 0.430797 0.007843 -0.458682
H111  H     H_    0.824419 0.407955 0.007396 0.181208
H112  H     H_    0.792412 0.430320 0.047320 0.177436

loop_
_geom_bond_atom_site_label_1
_geom_bond_atom_site_label_2
_ccdc_geom_bond_type
N32   H80   S    
C105  N9    S    
C8    C56   S    
C126  N30   S    
N37   H89   S    
C90   C95   S    
N25   H65   S    
O33   Zn9   S    
C98   C138  A    
C122  N26   S    
C30   C64   A    
C22   C60   A    
C98   C114  A    
N8    H32   S    
N15   H45   S    
C22   C38   A    
N6    H27   S    
N16   H47   S    
C77   O25   A    
N4    H23   S    
C18   C58   A    
O38   Zn10  S    
C108  N12   S    
C111  N15   S    
C67   O37   A    
O26   Zn6   S    
C143  C151  S    
C126  C136  A    
C79   C87   S    
C114  C130  A    
O23   Zn1   S    
C108  C124  A    
C73   C81   S    
C106  C142  A    
O34   Zn9   S    
N4    H24   S    
C104  N8    S    
C70   O46   A    
N38   H91   S    
C25   C41   A    
C101  C137  A    
C92   C93   S    
C28   C44   A    
C103  N7    S    
C29   C45   A    
N30   H75   S    
C25   C61   A    
C68   C131  S    
N1    H17   S    
C106  N10   S    
C8    O12   A    
N43   H101  S    
N42   H99   S    
N2    H20   S    
O37   Zn10  S    
O28   Zn8   S    
C98   N2    S    
N34   H84   S    
N14   H44   S    
C71   O43   A    
C35   C51   A    
C102  N6    S    
N24   H63   S    
C107  C143  A    
C108  C144  A    
C21   N37   S    
N11   H38   S    
C83   C91   T    
C7    O15   A    
C19   C59   A    
C89   C96   S    
N22   H60   S    
C77   O27   A    
C32   C62   A    
C80   C88   S    
O45   Zn12  S    
C19   C35   A    
C91   C94   S    
N20   H56   S    
O12   Zn8   S    
C67   O35   A    
N5    H26   S    
O36   Zn9   S    
O21   Zn3   S    
C100  C140  A    
N7    H30   S    
C39   C51   A    
N31   H78   S    
N41   H97   S    
O13   Zn7   S    
C11   C147  T    
N48   H111  S    
C5    O9    A    
N23   H62   S    
C23   C59   A    
O18   Zn2   S    
C1    O5    A    
O48   Zn12  S    
C10   C58   S    
C35   H3    S    
O47   Zn12  S    
N9    H33   S    
C33   H1    S    
N29   H74   S    
C119  N23   S    
C14   C62   S    
C47   H15   S    
N46   H107  S    
C107  N11   S    
N5    H25   S    
C37   H5    S    
N33   H82   S    
C122  C134  A    
C2    C50   S    
O40   Zn10  S    
O44   Zn11  S    
C85   C93   T    
N10   H36   S    
C119  C131  A    
C100  N4    S    
O6    Zn2   S    
C117  C129  A    
O4    Zn4   S    
C111  C143  A    
C19   N35   S    
C77   C85   S    
N17   H49   S    
C99   C139  A    
C97   C137  A    
C29   C61   A    
C7    O11   A    
C28   N44   S    
C76   O22   A    
N18   H51   S    
C109  N13   S    
N36   H87   S    
C72   C135  S    
C115  N19   S    
C123  C135  A    
C75   O23   A    
C25   N41   S    
C76   O24   A    
C128  C134  A    
C18   C34   A    
O39   Zn10  S    
N40   H96   S    
C116  C132  A    
O20   Zn4   S    
C27   N43   S    
C106  C122  A    
N21   H57   S    
C78   O28   A    
C15   C151  T    
N44   H104  S    
N13   H42   S    
C41   C53   A    
C110  C126  A    
C43   C55   A    
N43   H102  S    
C10   C146  T    
C6    C54   S    
C34   H2    S    
N39   H94   S    
C70   O42   A    
N15   H46   S    
C65   C132  S    
C26   C42   A    
C4    O4    A    
C117  N21   S    
C30   C46   A    
N34   H83   S    
O29   Zn7   S    
O35   Zn9   S    
C73   O17   A    
C42   H10   S    
N12   H39   S    
N38   H92   S    
C44   H12   S    
C144  C152  S    
C23   N39   S    
C138  C146  S    
N6    H28   S    
N16   H48   S    
C118  C132  A    
C66   O34   A    
C46   C56   A    
N19   H53   S    
C4    O6    A    
C84   C92   T    
C104  C120  A    
O3    Zn3   S    
C22   N38   S    
O1    Zn1   S    
C88   C96   T    
C41   H9    S    
O7    Zn1   S    
C100  C116  A    
C107  C123  A    
C76   C84   S    
C71   C134  S    
C110  N14   S    
N45   H106  S    
C17   C33   A    
C137  C145  S    
C75   O21   A    
C127  C135  A    
C99   C115  A    
C68   O36   A    
C33   C49   A    
N30   H76   S    
C78   O26   A    
C73   O19   A    
C127  N31   S    
N42   H100  S    
C68   O40   A    
N3    H21   S    
C124  N28   S    
C20   C60   A    
C20   N36   S    
C66   C129  S    
C81   C89   T    
O25   Zn5   S    
N32   H79   S    
C112  N16   S    
C31   C47   A    
C6    O10   A    
C32   C48   A    
C118  N22   S    
N24   H64   S    
C74   C82   S    
C11   C59   S    
O22   Zn2   S    
C5    O13   A    
N37   H90   S    
C74   O20   A    
N25   H66   S    
O14   Zn6   S    
C79   O31   A    
C124  C136  A    
N27   H69   S    
C38   H6    S    
N23   H61   S    
C3    C51   S    
C115  C131  A    
C32   N48   S    
N8    H31   S    
C71   O45   A    
N35   H85   S    
C17   N33   S    
C37   C49   A    
C44   C56   A    
O15   Zn5   S    
C80   O30   A    
C14   C150  T    
C16   C152  T    
C102  C140  A    
C110  C144  A    
C113  C129  A    
C2    O2    A    
C65   O39   A    
C28   C64   A    
C3    O7    A    
C72   O48   A    
C69   C136  S    
C24   N40   S    
C67   C130  S    
C113  N17   S    
C36   H4    S    
C8    O14   A    
N28   H71   S    
C24   C40   A    
C31   N47   S    
C46   H14   S    
C65   O33   A    
C39   H7    S    
C40   H8    S    
N48   H112  S    
C82   C90   T    
C101  C117  A    
C142  C150  S    
N1    H18   S    
C42   C54   A    
C75   C83   S    
N29   H73   S    
C40   C50   A    
C9    C145  T    
N2    H19   S    
N46   H108  S    
C26   N42   S    
N33   H81   S    
C112  C128  A    
N31   H77   S    
C20   C36   A    
C27   C43   A    
C21   C37   A    
N14   H43   S    
C24   C58   A    
O8    Zn4   S    
C6    O16   A    
O41   Zn11  S    
C45   H13   S    
C17   C57   A    
C74   O18   A    
C43   H11   S    
N39   H93   S    
C79   O29   A    
N19   H54   S    
O42   Zn11  S    
N47   H109  S    
C69   O47   A    
C3    O3    A    
C140  C148  S    
C141  C149  S    
O19   Zn3   S    
C48   C54   A    
C139  C147  S    
O17   Zn1   S    
C4    C52   S    
C120  C130  A    
C5    C53   S    
N22   H59   S    
O30   Zn6   S    
N18   H52   S    
C105  C141  A    
N20   H55   S    
C66   O38   A    
N36   H88   S    
C38   C52   A    
C80   O32   A    
C123  N27   S    
C112  C142  A    
C86   C94   T    
C2    O8    A    
C97   N1    S    
C104  C138  A    
C70   C133  S    
C116  N20   S    
O31   Zn5   S    
O46   Zn12  S    
N13   H41   S    
C102  C118  A    
C114  N18   S    
C30   N46   S    
C78   C86   S    
N41   H98   S    
O43   Zn11  S    
N3    H22   S    
C34   C50   A    
O32   Zn8   S    
C125  N29   S    
N9    H34   S    
N12   H40   S    
C1    O1    A    
C121  N25   S    
O11   Zn7   S    
N27   H70   S    
C21   C57   A    
C103  C139  A    
C99   N3    S    
C48   H16   S    
N10   H35   S    
C105  C121  A    
N35   H86   S    
C120  N24   S    
C27   C63   A    
C7    C55   S    
C109  C125  A    
N26   H67   S    
N17   H50   S    
C111  C127  A    
C69   O41   A    
O24   Zn4   S    
C97   C113  A    
N11   H37   S    
N28   H72   S    
C101  N5    S    
C47   C55   A    
C125  C133  A    
O16   Zn8   S    
C87   C95   T    
C103  C119  A    
C36   C52   A    
C109  C141  A    
N7    H29   S    
C31   C63   A    
N45   H105  S    
O9    Zn5   S    
C12   C148  T    
C26   C62   A    
C13   C149  T    
O27   Zn7   S    
C29   N45   S    
N40   H95   S    
C72   O44   A    
C23   C39   A    
N26   H68   S    
N21   H58   S    
C128  N32   S    
C9    C57   S    
N47   H110  S    
C18   N34   S    
N44   H103  S    
O5    Zn3   S    
C45   C53   A    
C12   C60   S    
C13   C61   S    
C15   C63   S    
O10   Zn6   S    
C16   C64   S    
C121  C133  A    
C1    C49   S    
O2    Zn2   S    
