data_mof_unit_67566.cif
_audit_creation_date              2012-10-26T18:48:19-0400
_audit_creation_method            fapswitch 2.2
_symmetry_space_group_name_H-M    P1
_symmetry_Int_Tables_number       1
_space_group_crystal_system       triclinic
_cell_length_a                    10.619279
_cell_length_b                    8.69257
_cell_length_c                    7.550924
_cell_angle_alpha                 102.242596
_cell_angle_beta                  97.919231
_cell_angle_gamma                 92.94193
_cell_volume                      672.330059419

loop_
_atom_site_label
_atom_site_type_symbol
_atom_type_description
_atom_site_fract_x
_atom_site_fract_y
_atom_site_fract_z
_atom_type_partial_charge
C1    C     C_R   0.496161 0.200195 0.453844 0.559925
C2    C     C_3   0.121401 0.489066 0.484361 -0.010942
C3    C     C_3   0.990825 0.577526 0.671993 -0.047764
C4    C     C_3   0.009175 0.422474 0.328007 -0.047764
C5    C     C_2   0.494576 0.032549 0.427874 -0.122045
C6    C     C_2   0.505424 0.967451 0.572125 -0.122045
C7    C     C_1   0.874493 0.198205 0.439218 0.195837
C8    C     C_1   0.125507 0.801795 0.560782 0.195837
C9    C     C_1   0.117920 0.321286 0.732969 0.197343
C10   C     C_1   0.882080 0.678714 0.267031 0.197343
C11   C     C_3   0.985809 0.673975 0.863433 -0.240796
C12   C     C_R   0.503839 0.799805 0.546156 0.559925
C13   C     C_3   0.119853 0.720743 0.978364 -0.284186
C14   C     C_3   0.136623 0.893908 0.078865 -0.428488
C15   C     C_3   0.014191 0.326026 0.136567 -0.240795
C16   C     C_3   0.880147 0.279257 0.021636 -0.284187
C17   C     C_3   0.863377 0.106091 0.921136 -0.428488
C18   C     C_R   0.259255 0.491912 0.494677 0.552092
C19   C     C_R   0.740745 0.508088 0.505323 0.552092
C20   C     C_3   0.053295 0.421010 0.620757 -0.025046
C21   C     C_3   0.946705 0.578990 0.379243 -0.025046
C22   C     C_3   0.941657 0.355461 0.466280 -0.027612
C23   C     C_3   0.058343 0.644539 0.533719 -0.027612
C24   C     C_3   0.878599 0.510934 0.515639 -0.010942
Cu1   Cu    Cu3+1 0.514140 0.517380 0.684380 0.974244
Cu2   Cu    Cu3+1 0.485860 0.482620 0.315620 0.974244
H1    H     H_    0.403462 0.371201 0.947238 0.262811
H2    H     H_    0.934097 0.779428 0.849101 0.166506
H3    H     H_    0.928960 0.600557 0.930174 0.160567
H4    H     H_    0.936359 0.079863 0.829418 0.183045
H5    H     H_    0.871202 0.029376 0.021623 0.179982
H6    H     H_    0.767501 0.079657 0.836432 0.161656
H7    H     H_    0.803560 0.300659 0.108088 0.199881
H8    H     H_    0.864068 0.351669 0.917583 0.166012
H9    H     H_    0.071040 0.399443 0.069826 0.160567
H10   H     H_    0.065903 0.220572 0.150899 0.166506
H11   H     H_    0.596538 0.628799 0.052762 0.262811
H12   H     H_    0.484700 0.962233 0.288432 0.134611
H13   H     H_    0.515300 0.037767 0.711568 0.134611
H14   H     H_    0.128798 0.970625 0.978379 0.179981
H15   H     H_    0.063640 0.920136 0.170583 0.183045
H16   H     H_    0.232498 0.920342 0.163569 0.161656
H17   H     H_    0.135933 0.648331 0.082416 0.166012
H18   H     H_    0.196440 0.699343 0.891911 0.199881
N1    N     N_2   0.464560 0.456420 0.038510 -0.265756
N2    N     N_2   0.535440 0.543580 0.961490 -0.265756
N3    N     N_1   0.821096 0.075038 0.419345 -0.296198
N4    N     N_1   0.178904 0.924962 0.580655 -0.296198
N5    N     N_1   0.170733 0.240953 0.817223 -0.332099
N6    N     N_1   0.829267 0.759047 0.182777 -0.332100
O1    O     O_R   0.509190 0.286130 0.619780 -0.501748
O2    O     O_R   0.490810 0.713870 0.380220 -0.501748
O3    O     O_R   0.485310 0.256770 0.308360 -0.498659
O4    O     O_R   0.514690 0.743230 0.691640 -0.498659
O5    O     O_R   0.328790 0.514640 0.655680 -0.504393
O6    O     O_R   0.671210 0.485360 0.344320 -0.504393
O7    O     O_R   0.304910 0.485280 0.344260 -0.508779
O8    O     O_R   0.695090 0.514720 0.655740 -0.508779

loop_
_geom_bond_atom_site_label_1
_geom_bond_atom_site_label_2
_ccdc_geom_bond_type
C19   O6    A    
C2    C4    S    
C8    N4    T    
C17   H4    S    
Cu2   O2    S    
C16   H7    S    
C2    C18   S    
C7    C22   S    
C11   C13   S    
C9    C20   S    
C3    C23   S    
C14   H16   S    
H1    N1    S    
C4    C15   S    
Cu1   O1    S    
C19   C24   S    
Cu1   Cu2   S    
C3    C20   S    
C19   O8    A    
C13   C14   S    
C4    C21   S    
C1    O1    A    
C3    C24   S    
C18   O5    A    
C14   H15   S    
C1    C5    S    
C11   H2    S    
C15   H9    S    
C12   O2    A    
C20   C22   S    
C5    H12   S    
C21   C23   S    
C10   C21   S    
C6    C12   S    
C5    C6    D    
C17   H5    S    
Cu2   O7    S    
C22   C24   S    
C3    C11   S    
Cu1   O8    S    
C2    C20   S    
C15   C16   S    
C10   N6    T    
Cu2   O3    S    
C15   H10   S    
C13   H17   S    
C8    C23   S    
C9    N5    T    
Cu1   O4    S    
C11   H3    S    
C21   C24   S    
C2    C23   S    
C17   H6    S    
C4    C22   S    
C6    H13   S    
C1    O3    A    
C18   O7    A    
Cu2   N1    S    
C16   H8    S    
H11   N2    S    
N1    N2    D    
C14   H14   S    
Cu1   N2    S    
C13   H18   S    
C12   O4    A    
Cu1   O5    S    
Cu2   O6    S    
C16   C17   S    
C7    N3    T    
