data_mof_unit_36138.cif
_audit_creation_date              2012-12-10T21:08:22-0500
_audit_creation_method            fapswitch 2.2
_symmetry_space_group_name_H-M    P1
_symmetry_Int_Tables_number       1
_space_group_crystal_system       triclinic
_cell_length_a                    17.55731
_cell_length_b                    16.764355
_cell_length_c                    10.661717
_cell_angle_alpha                 89.889177
_cell_angle_beta                  90.896679
_cell_angle_gamma                 89.710502
_cell_volume                      3137.70685252

loop_
_atom_site_label
_atom_site_type_symbol
_atom_type_description
_atom_site_fract_x
_atom_site_fract_y
_atom_site_fract_z
_atom_type_partial_charge
C1    C     C_R   0.353054 0.500338 0.503054 0.864519
C2    C     C_R   0.646378 0.499788 0.499794 0.933599
C3    C     C_R   0.885107 0.494786 0.517189 0.098831
C4    C     C_R   0.112879 0.495450 0.528783 0.086250
C5    C     C_1   0.965222 0.492800 0.524230 -0.040735
C6    C     C_1   0.032785 0.492884 0.527964 -0.043091
C7    C     C_R   0.450706 0.833394 0.419619 0.306939
C8    C     C_R   0.545769 0.832746 0.585889 0.306332
C9    C     C_R   0.454105 0.748781 0.417386 -0.071830
C10   C     C_R   0.545256 0.748076 0.583640 -0.050043
C11   C     C_R   0.497584 0.876146 0.503690 -0.105280
C12   C     C_1   0.496642 0.964077 0.504910 0.086751
C13   C     C_1   0.496462 0.037091 0.505369 0.105737
C14   C     C_R   0.439326 0.168716 0.441848 0.358523
C15   C     C_R   0.554319 0.167036 0.571294 0.349195
C16   C     C_R   0.443795 0.253029 0.437318 -0.132610
C17   C     C_R   0.555012 0.251771 0.564730 -0.131250
C18   C     C_R   0.496981 0.124992 0.505418 -0.079333
C19   C     C_R   0.498860 0.499860 0.261729 1.022371
C20   C     C_R   0.496206 0.499748 0.738378 1.003768
C21   C     C_2   0.470991 0.432024 0.934783 0.409598
C22   C     C_2   0.456057 0.443508 0.068001 0.389830
C23   C     C_2   0.474036 0.499317 0.866823 -0.512211
C24   C     C_2   0.498477 0.497682 0.128913 -0.457286
C25   C     C_R   0.849281 0.541298 0.424624 -0.283617
C26   C     C_R   0.148502 0.568549 0.511765 -0.264058
C27   C     C_R   0.769363 0.545328 0.418043 0.483078
C28   C     C_R   0.227491 0.572254 0.507388 0.491374
C29   C     C_R   0.728318 0.498960 0.503549 -0.107392
C30   C     C_R   0.270319 0.500555 0.514129 -0.155553
C31   C     C_R   0.765001 0.451347 0.594143 -0.284705
C32   C     C_R   0.233189 0.427467 0.532995 -0.294830
C33   C     C_R   0.843621 0.449854 0.601709 -0.156252
C34   C     C_R   0.154594 0.425037 0.540499 -0.164555
H1    H     H_    0.402309 0.287133 0.383377 0.169409
H2    H     H_    0.599633 0.285289 0.611109 0.160690
H3    H     H_    0.455917 0.556178 0.905958 0.124949
H4    H     H_    0.537444 0.537203 0.080992 0.130700
H5    H     H_    0.884375 0.571984 0.357834 0.135838
H6    H     H_    0.114911 0.622537 0.499881 0.147808
H7    H     H_    0.732592 0.416132 0.659733 0.166852
H8    H     H_    0.264721 0.371895 0.540432 0.173322
H9    H     H_    0.872014 0.413532 0.672665 0.146814
H10   H     H_    0.126352 0.368300 0.553090 0.144165
N1    N     N_R   0.500000 0.707230 0.500000 -0.172832
N2    N     N_R   0.500000 0.292770 0.500000 -0.125045
O1    O     O_R   0.389110 0.566570 0.499990 -0.597421
O2    O     O_R   0.610890 0.566570 0.500010 -0.598923
O3    O     O_R   0.389090 0.433480 0.499980 -0.636065
O4    O     O_R   0.610910 0.433480 0.500020 -0.634238
O5    O     O_R   0.500000 0.566530 0.319070 -0.623787
O6    O     O_R   0.500000 0.566530 0.680930 -0.638141
O7    O     O_R   0.499970 0.433440 0.319070 -0.572396
O8    O     O_R   0.500030 0.433440 0.680930 -0.563018
Zn1   Zn    Zn3+2 0.500000 0.588860 0.500000 0.957650
Zn2   Zn    Zn3+2 0.500000 0.411140 0.500000 0.964544
O9    O     O_3   0.502883 0.361389 0.889346 -0.626386
C35   C     C_3   0.464317 0.292335 0.929644 0.128397
H11   H     H_    0.463305 0.249752 0.849963 0.128789
H12   H     H_    0.403406 0.303145 0.950751 0.138362
C36   C     C_3   0.507455 0.252556 0.039553 -0.356333
H13   H     H_    0.564671 0.233233 0.008272 0.207160
H14   H     H_    0.515906 0.295310 0.117753 0.263958
C37   C     C_3   0.464593 0.180189 0.088231 -0.883188
H15   H     H_    0.408067 0.198642 0.123914 0.283287
H16   H     H_    0.497719 0.152062 0.166254 0.277588
H17   H     H_    0.456633 0.135582 0.012298 0.249394
O10   O     O_3   0.404189 0.396359 0.130996 -0.644563
C38   C     C_3   0.328856 0.415423 0.091306 0.024259
H18   H     H_    0.299637 0.358990 0.065697 0.152062
H19   H     H_    0.324729 0.455430 0.007431 0.119333
C39   C     C_3   0.286642 0.453620 0.200071 -0.302599
H20   H     H_    0.287173 0.411441 0.280519 0.227234
H21   H     H_    0.316306 0.509159 0.229005 0.226785
C40   C     C_3   0.204276 0.473615 0.164245 -0.935926
H22   H     H_    0.202342 0.516737 0.085016 0.263147
H23   H     H_    0.175440 0.500870 0.245698 0.277547
H24   H     H_    0.173178 0.418639 0.136891 0.257581
O11   O     O_3   0.728748 0.584582 0.322487 -0.656045
C41   C     C_3   0.759286 0.659457 0.288459 0.111347
H25   H     H_    0.723906 0.682151 0.208646 0.175781
H26   H     H_    0.817633 0.654561 0.250929 0.121131
C42   C     C_3   0.754470 0.720839 0.394877 -0.381735
H27   H     H_    0.694675 0.725110 0.426994 0.229515
H28   H     H_    0.791142 0.701959 0.475538 0.215916
C43   C     C_3   0.780447 0.802805 0.350457 -0.976083
H29   H     H_    0.839803 0.799483 0.316199 0.269654
H30   H     H_    0.778772 0.845847 0.429168 0.263233
H31   H     H_    0.742329 0.825042 0.273807 0.269504
O12   O     O_3   0.261414 0.645065 0.484889 -0.645944
C44   C     C_3   0.276560 0.684635 0.599883 0.109067
H32   H     H_    0.331967 0.715565 0.590463 0.166485
H33   H     H_    0.283402 0.643585 0.682118 0.114505
C45   C     C_3   0.214755 0.747128 0.625482 -0.399534
H34   H     H_    0.202231 0.781895 0.538710 0.232786
H35   H     H_    0.161695 0.716853 0.654296 0.215377
C46   C     C_3   0.239600 0.804436 0.729198 -0.945193
H36   H     H_    0.251934 0.771119 0.817456 0.270337
H37   H     H_    0.193289 0.848232 0.746514 0.267916
H38   H     H_    0.291298 0.837517 0.700984 0.255650
O13   O     O_3   0.404396 0.874399 0.335104 -0.621948
C47   C     C_3   0.330878 0.880978 0.386055 0.089061
H39   H     H_    0.333122 0.911268 0.479006 0.128986
H40   H     H_    0.304946 0.821000 0.397271 0.152126
C48   C     C_3   0.280385 0.929963 0.296749 -0.291137
H41   H     H_    0.305375 0.990167 0.284824 0.252929
H42   H     H_    0.278029 0.900492 0.203463 0.228533
C49   C     C_3   0.199648 0.938233 0.346259 -1.002903
H43   H     H_    0.172258 0.878780 0.351870 0.270015
H44   H     H_    0.165284 0.976673 0.281815 0.267386
H45   H     H_    0.200556 0.965855 0.440811 0.272456
O14   O     O_3   0.589190 0.872682 0.674930 -0.628390
C50   C     C_3   0.662047 0.886764 0.625613 0.095035
H46   H     H_    0.657716 0.925775 0.540975 0.159044
H47   H     H_    0.690475 0.829588 0.600601 0.128601
C51   C     C_3   0.711091 0.928285 0.725098 -0.289179
H48   H     H_    0.682524 0.984208 0.754402 0.243495
H49   H     H_    0.717441 0.888885 0.808634 0.220745
C52   C     C_3   0.789841 0.948196 0.675679 -0.987109
H50   H     H_    0.820517 0.892744 0.649337 0.266871
H51   H     H_    0.823458 0.979192 0.749795 0.265813
H52   H     H_    0.784804 0.988092 0.592608 0.274488
C53   C     C_1   0.408048 0.706416 0.326833 0.363132
N3    N     N_1   0.370716 0.673065 0.253681 -0.209727
C54   C     C_1   0.593989 0.704859 0.670149 0.302865
N4    N     N_1   0.633531 0.670691 0.739809 -0.227888
O15   O     O_3   0.381723 0.128046 0.378936 -0.644017
C55   C     C_3   0.309471 0.148443 0.427492 0.077760
H53   H     H_    0.265547 0.124455 0.361864 0.170496
H54   H     H_    0.299371 0.213939 0.430578 0.117062
C56   C     C_3   0.297488 0.111039 0.557303 -0.364577
H55   H     H_    0.306741 0.045597 0.552049 0.226101
H56   H     H_    0.339175 0.135943 0.626054 0.205990
C57   C     C_3   0.217304 0.127711 0.604087 -0.967389
H57   H     H_    0.207800 0.193003 0.613258 0.260708
H58   H     H_    0.210171 0.099473 0.697422 0.267157
H59   H     H_    0.174085 0.102739 0.538118 0.265524
O16   O     O_3   0.611503 0.123753 0.632859 -0.636923
C58   C     C_3   0.628198 0.154030 0.754236 0.070495
H60   H     H_    0.623155 0.104248 0.822370 0.157554
H61   H     H_    0.587949 0.200834 0.786946 0.132843
C59   C     C_3   0.710064 0.184847 0.759201 -0.341380
H62   H     H_    0.749994 0.134671 0.740999 0.233210
H63   H     H_    0.717994 0.230700 0.685286 0.220653
C60   C     C_3   0.729308 0.221364 0.886668 -0.965261
H64   H     H_    0.692018 0.273769 0.904253 0.276039
H65   H     H_    0.789485 0.241412 0.888139 0.267043
H66   H     H_    0.721777 0.176643 0.962409 0.265111

loop_
_geom_bond_atom_site_label_1
_geom_bond_atom_site_label_2
_ccdc_geom_bond_type
O2    Zn1   S    
C9    N1    A    
O13   C47   S    
C15   C18   A    
C14   C18   A    
C56   C57   S    
C55   H53   S    
C60   H66   S    
C57   H59   S    
C60   H64   S    
O9    C35   S    
C53   N3    T    
C49   H43   S    
C7    C11   A    
C48   H42   S    
C13   C18   S    
C2    C29   S    
C27   O11   S    
C8    O14   S    
C16   H1    S    
C5    C6    T    
C41   H25   S    
C58   C59   S    
C43   H30   S    
O7    Zn2   S    
C27   C29   A    
C3    C33   A    
C35   H12   S    
C51   H48   S    
C47   C48   S    
C38   H19   S    
C36   H14   S    
C39   C40   S    
C2    O4    A    
C46   H37   S    
C49   H44   S    
O10   C38   S    
C24   H4    S    
C31   C33   A    
C17   H2    S    
C10   C54   S    
C36   H13   S    
O6    Zn1   S    
C50   C51   S    
C19   O7    A    
C35   C36   S    
C21   C22   S    
C59   C60   S    
C47   H39   S    
C41   C42   S    
O14   C50   S    
C60   H65   S    
C46   H36   S    
C4    C34   A    
C52   H51   S    
C48   C49   S    
O8    Zn2   S    
C33   H9    S    
C37   H17   S    
C3    C25   A    
C34   H10   S    
C17   N2    A    
C20   O8    A    
C16   N2    A    
C44   H32   S    
C43   H29   S    
C1    O1    A    
C57   H58   S    
C45   C46   S    
C3    C5    S    
C35   H11   S    
C23   H3    S    
O4    Zn2   S    
C14   O15   S    
C32   C34   A    
C38   C39   S    
C45   H35   S    
C40   H22   S    
C21   O9    S    
C44   H33   S    
C42   H27   S    
C20   C23   S    
C58   H60   S    
C10   N1    A    
C45   H34   S    
C52   H50   S    
C47   H40   S    
C40   H23   S    
C22   O10   S    
C39   H21   S    
C42   H28   S    
C21   C23   D    
C54   N4    T    
C22   C24   D    
C4    C6    S    
O15   C55   S    
C55   C56   S    
C46   H38   S    
O1    Zn1   S    
C50   H46   S    
C52   H52   S    
C7    C9    A    
C31   H7    S    
C14   C16   A    
C8    C10   A    
C39   H20   S    
C56   H56   S    
C43   H31   S    
C55   H54   S    
C4    C26   A    
C11   C12   S    
C49   H45   S    
C15   C17   A    
C57   H57   S    
C25   C27   A    
O3    Zn2   S    
C48   H41   S    
C26   C28   A    
C51   C52   S    
C2    O2    A    
C37   H15   S    
C15   O16   S    
C28   C30   A    
C19   C24   S    
C20   O6    A    
C25   H5    S    
C36   C37   S    
C30   C32   A    
C58   H61   S    
C26   H6    S    
O12   C44   S    
C8    C11   A    
C1    C30   S    
C9    C53   S    
C41   H26   S    
C51   H49   S    
O5    Zn1   S    
C38   H18   S    
C40   H24   S    
O16   C58   S    
O11   C41   S    
C19   O5    A    
C42   C43   S    
C12   C13   T    
N1    Zn1   S    
C29   C31   A    
C7    O13   S    
N2    Zn2   S    
C32   H8    S    
C59   H62   S    
C28   O12   S    
C50   H47   S    
C1    O3    A    
C59   H63   S    
C56   H55   S    
C37   H16   S    
C44   C45   S    
