data_mof_unit_55852.cif
_audit_creation_date              2013-03-05T15:56:45-0500
_audit_creation_method            fapswitch 2.2
_symmetry_space_group_name_H-M    P1
_symmetry_Int_Tables_number       1
_space_group_crystal_system       triclinic
_cell_length_a                    20.990625
_cell_length_b                    21.909901
_cell_length_c                    13.908564
_cell_angle_alpha                 89.886682
_cell_angle_beta                  91.09232
_cell_angle_gamma                 89.836871
_cell_volume                      6395.38203266

loop_
_atom_site_label
_atom_site_type_symbol
_atom_site_description
_atom_site_fract_x
_atom_site_fract_y
_atom_site_fract_z
_atom_type_partial_charge
O1    O     O_R   0.064880 0.435140 0.582280 -0.607214
O2    O     O_R   0.935120 0.564860 0.417720 -0.535565
O3    O     O_R   0.935120 0.564860 0.582280 -0.574102
O4    O     O_R   0.064880 0.435140 0.417720 -0.547787
O5    O     O_R   0.935120 0.435140 0.417720 -0.545382
O6    O     O_R   0.064880 0.564860 0.582280 -0.566252
O7    O     O_R   0.064880 0.564860 0.417720 -0.570347
O8    O     O_R   0.935120 0.435140 0.582280 -0.583117
O9    O     O_R   0.564880 0.935140 0.582280 -0.557140
O10   O     O_R   0.435120 0.064860 0.417720 -0.598861
O11   O     O_R   0.435120 0.064860 0.582280 -0.550101
O12   O     O_R   0.564880 0.935140 0.417720 -0.575054
O13   O     O_R   0.435120 0.935140 0.417720 -0.583707
O14   O     O_R   0.564880 0.064860 0.582280 -0.572178
O15   O     O_R   0.564880 0.064860 0.417720 -0.583340
O16   O     O_R   0.435120 0.935140 0.582280 -0.568107
C1    C     C_R   0.084984 0.413440 0.500692 0.888185
C2    C     C_R   0.912656 0.584244 0.498982 0.928802
C3    C     C_R   0.915327 0.413078 0.499669 0.921497
C4    C     C_R   0.086691 0.584398 0.500956 0.904111
C5    C     C_R   0.585414 0.914904 0.500023 0.870406
C6    C     C_R   0.413520 0.084664 0.499668 0.873479
C7    C     C_R   0.415553 0.913216 0.499636 0.864010
C8    C     C_R   0.585720 0.085960 0.500028 0.898585
Cu1   Cu    Cu3+1 0.000000 0.500000 0.597420 1.027764
Cu2   Cu    Cu3+1 0.000000 0.500000 0.402580 1.051208
Cu3   Cu    Cu3+1 0.500000 0.000000 0.597420 1.042103
Cu4   Cu    Cu3+1 0.500000 0.000000 0.402580 1.015393
C9    C     C_R   0.123439 0.691937 0.499357 -0.140139
C10   C     C_R   0.886533 0.300730 0.524599 -0.087642
C11   C     C_R   0.880281 0.694283 0.509500 -0.036359
C12   C     C_R   0.138483 0.323567 0.584830 -0.187247
C13   C     C_R   0.643662 0.172132 0.416144 -0.024381
C14   C     C_R   0.379014 0.809503 0.557309 -0.079595
C15   C     C_R   0.380121 0.192080 0.463363 -0.188010
C16   C     C_R   0.616644 0.809720 0.456328 -0.049271
C17   C     C_R   0.138667 0.629754 0.503966 -0.192662
C18   C     C_R   0.868818 0.361624 0.499075 -0.153151
C19   C     C_R   0.863212 0.632958 0.494996 -0.180223
C20   C     C_R   0.131716 0.362337 0.502852 -0.171421
C21   C     C_R   0.635232 0.134631 0.498758 -0.167447
C22   C     C_R   0.369295 0.861969 0.498558 -0.202720
C23   C     C_R   0.365479 0.134007 0.500995 -0.164692
C24   C     C_R   0.633181 0.866374 0.497798 -0.194869
C25   C     C_R   0.202773 0.612484 0.524062 -0.063298
C26   C     C_R   0.803668 0.372577 0.477424 -0.143231
C27   C     C_R   0.799424 0.620582 0.467448 -0.084668
C28   C     C_R   0.172313 0.352101 0.423697 -0.021002
C29   C     C_R   0.675966 0.143977 0.580218 -0.039125
C30   C     C_R   0.314147 0.865557 0.439215 -0.024105
C31   C     C_R   0.305535 0.123421 0.542130 -0.182709
C32   C     C_R   0.696495 0.878531 0.526361 -0.086102
C33   C     C_R   0.251628 0.658402 0.524260 -0.000021
C34   C     C_R   0.767632 0.322382 0.445402 -0.008428
C35   C     C_R   0.756592 0.669626 0.449798 -0.002895
C36   C     C_R   0.230049 0.320794 0.443235 -0.013315
C37   C     C_R   0.733117 0.177402 0.567312 -0.039992
C38   C     C_R   0.264675 0.822646 0.450663 -0.018963
C39   C     C_R   0.265697 0.173630 0.563139 -0.041426
C40   C     C_R   0.739338 0.829181 0.537980 0.009081
C41   C     C_R   0.234445 0.718579 0.495289 0.060366
C42   C     C_R   0.778780 0.267549 0.494897 0.052528
C43   C     C_R   0.770333 0.726182 0.492798 0.038042
C44   C     C_R   0.228488 0.273907 0.512458 0.043919
C45   C     C_R   0.731703 0.222762 0.495430 0.072361
C46   C     C_R   0.279948 0.765927 0.494982 0.070669
C47   C     C_R   0.276336 0.229113 0.514022 0.104709
C48   C     C_R   0.724169 0.772790 0.493287 0.059948
C49   C     C_R   0.170766 0.732093 0.469212 -0.003445
C50   C     C_R   0.836334 0.259535 0.546832 -0.005573
C51   C     C_R   0.831708 0.736355 0.532244 -0.017140
C52   C     C_R   0.177967 0.271302 0.577661 -0.001060
C53   C     C_R   0.682005 0.224630 0.425805 -0.018262
C54   C     C_R   0.339645 0.757308 0.542238 -0.008801
C55   C     C_R   0.333684 0.239545 0.464432 -0.007019
C56   C     C_R   0.663892 0.763588 0.446839 -0.024415
C57   C     C_R   0.316759 0.647035 0.549270 -0.084708
C58   C     C_R   0.715274 0.327757 0.380668 -0.028171
C59   C     C_R   0.701510 0.663750 0.390091 -0.060342
C60   C     C_R   0.288598 0.335116 0.399316 -0.078738
C61   C     C_R   0.788934 0.170806 0.626570 -0.132928
C62   C     C_R   0.201174 0.833646 0.416807 -0.100117
C63   C     C_R   0.213282 0.169050 0.626631 -0.128259
C64   C     C_R   0.796616 0.834681 0.593869 -0.060086
C65   C     C_R   0.841617 0.210907 0.614374 -0.099214
C66   C     C_R   0.155087 0.788009 0.424394 -0.042963
C67   C     C_R   0.170233 0.218337 0.635005 -0.079978
C68   C     C_R   0.843441 0.788214 0.589974 -0.054315
C69   C     C_R   0.358444 0.696691 0.568282 -0.099952
C70   C     C_R   0.673721 0.277711 0.367438 -0.113398
C71   C     C_R   0.654307 0.709592 0.390691 -0.102542
C72   C     C_R   0.342488 0.297625 0.419671 -0.160686
C73   C     C_R   0.052679 0.519946 0.796482 0.295334
C74   C     C_R   0.947812 0.481669 0.201764 0.287093
C75   C     C_R   0.948277 0.479192 0.795026 0.261451
C76   C     C_R   0.053644 0.518697 0.206578 0.295090
C77   C     C_R   0.551435 0.976805 0.796700 0.263173
C78   C     C_R   0.450670 0.025808 0.202064 0.271086
C79   C     C_R   0.449130 0.022204 0.794889 0.282264
C80   C     C_R   0.551917 0.977797 0.206353 0.302366
N1    N     N_R   1.000000 0.500000 0.743810 -0.175756
N2    N     N_R   1.000000 0.500000 0.256190 -0.179545
N3    N     N_R   0.500000 0.000000 0.743810 -0.188261
N4    N     N_R   0.500000 0.000000 0.256190 -0.179906
C81   C     C_R   0.953131 0.468785 0.896796 -0.048370
C82   C     C_R   0.050336 0.528609 0.104278 -0.065547
C83   C     C_R   0.049376 0.529238 0.898411 -0.061305
C84   C     C_R   0.953315 0.469581 0.101434 -0.042463
C85   C     C_R   0.455388 0.033809 0.895634 -0.051646
C86   C     C_R   0.547819 0.968475 0.104212 -0.063528
C87   C     C_R   0.547269 0.967411 0.898570 -0.057499
C88   C     C_R   0.455832 0.035265 0.100447 -0.073894
C89   C     C_R   0.001592 0.498868 0.948978 0.044787
C90   C     C_R   0.001886 0.498930 0.051359 0.030920
C91   C     C_R   0.501614 0.001019 0.948644 0.034654
C92   C     C_R   0.501714 0.001482 0.051016 0.037303
C93   C     C_R   0.910539 0.430408 0.947911 -0.079375
C94   C     C_R   0.093957 0.565972 0.053348 -0.068791
C95   C     C_R   0.092770 0.566934 0.951105 -0.075328
C96   C     C_R   0.910742 0.430660 0.050122 -0.107103
C97   C     C_R   0.415943 0.075782 0.944522 -0.104900
C98   C     C_R   0.588707 0.928028 0.053860 -0.081541
C99   C     C_R   0.587777 0.926831 0.951563 -0.088336
C100  C     C_R   0.416123 0.076395 0.046634 -0.062601
C101  C     C_2   0.074857 0.716872 0.566421 0.873838
O17   O     O_2   0.036829 0.683213 0.605411 -0.564991
O18   O     O_R   0.076683 0.778510 0.592408 -0.682019
H1    H     H_    0.045112 0.789014 0.643949 0.381505
C102  C     C_2   0.950147 0.275725 0.498823 0.854686
O19   O     O_2   0.960731 0.220895 0.504390 -0.514978
O20   O     O_R   0.995725 0.313222 0.457937 -0.768728
H2    H     H_    0.034680 0.289252 0.438197 0.360035
C103  C     C_2   0.939209 0.717642 0.464801 0.862353
O21   O     O_2   0.952023 0.771944 0.467832 -0.525090
O22   O     O_R   0.976776 0.678455 0.410572 -0.751426
H3    H     H_    0.013593 0.699316 0.379119 0.345131
C104  C     C_2   0.113094 0.340617 0.680695 0.920146
O23   O     O_2   0.150597 0.352759 0.745979 -0.513417
O24   O     O_R   0.047858 0.341318 0.699139 -0.657749
H4    H     H_    0.020974 0.328991 0.641446 0.330740
C105  C     C_2   0.623075 0.152986 0.317812 0.864927
O25   O     O_2   0.663566 0.140592 0.258850 -0.570660
O26   O     O_R   0.558629 0.151302 0.291122 -0.648923
H5    H     H_    0.551517 0.137858 0.222039 0.348403
C106  C     C_2   0.423534 0.812205 0.641455 0.912254
O27   O     O_2   0.480001 0.823392 0.631148 -0.549547
O28   O     O_R   0.399843 0.802659 0.733503 -0.702580
H6    H     H_    0.434082 0.806272 0.785585 0.372176
C107  C     C_2   0.440940 0.199216 0.412468 0.947678
O29   O     O_2   0.491281 0.196266 0.457588 -0.499947
O30   O     O_R   0.441252 0.208980 0.313335 -0.627637
H7    H     H_    0.396623 0.210814 0.284443 0.310219
C108  C     C_2   0.549449 0.799736 0.425320 0.852122
O31   O     O_2   0.516595 0.764163 0.469810 -0.550396
O32   O     O_R   0.524502 0.829437 0.343867 -0.687699
H8    H     H_    0.478362 0.818382 0.330062 0.350911
C109  C     C_2   0.214408 0.549482 0.559894 0.820651
O33   O     O_2   0.197158 0.505814 0.511718 -0.588213
O34   O     O_R   0.242474 0.540227 0.650735 -0.734736
H9    H     H_    0.247845 0.495350 0.667006 0.361553
C110  C     C_2   0.768322 0.417454 0.536543 0.874945
O35   O     O_2   0.797072 0.453953 0.586951 -0.611492
O36   O     O_R   0.701707 0.415575 0.539503 -0.702351
H10   H     H_    0.683408 0.446123 0.586228 0.384663
C111  C     C_2   0.775624 0.557917 0.460116 0.878073
O37   O     O_2   0.723786 0.545145 0.493355 -0.532129
O38   O     O_R   0.808880 0.515330 0.407313 -0.792686
H11   H     H_    0.780434 0.481251 0.384086 0.331427
C112  C     C_2   0.147667 0.355238 0.321661 0.847693
O39   O     O_2   0.090820 0.348467 0.304218 -0.535196
O40   O     O_R   0.189127 0.359673 0.244601 -0.742399
H12   H     H_    0.166100 0.360065 0.179843 0.359853
C113  C     C_2   0.647647 0.141614 0.677447 0.889684
O41   O     O_2   0.601028 0.173359 0.693506 -0.516900
O42   O     O_R   0.672093 0.103421 0.749575 -0.761159
H13   H     H_    0.647652 0.106600 0.811563 0.347893
C114  C     C_2   0.308972 0.911957 0.362488 0.834919
O43   O     O_2   0.318705 0.897456 0.279209 -0.550526
O44   O     O_R   0.288205 0.970674 0.384560 -0.729496
H14   H     H_    0.274803 0.995051 0.325549 0.333710
C115  C     C_2   0.278026 0.060646 0.539588 0.914759
O45   O     O_2   0.308677 0.017011 0.569166 -0.552055
O46   O     O_R   0.216846 0.050446 0.501305 -0.628633
H15   H     H_    0.196907 0.087925 0.470243 0.304329
C116  C     C_2   0.721380 0.942344 0.523058 0.836445
O47   O     O_2   0.690136 0.985102 0.552933 -0.618602
O48   O     O_R   0.780681 0.953335 0.482289 -0.693434
H16   H     H_    0.792363 0.998205 0.482441 0.380457
C117  C     C_2   0.344484 0.584560 0.544347 0.929651
O49   O     O_2   0.373285 0.562832 0.613710 -0.510084
O50   O     O_R   0.338678 0.551338 0.459046 -0.724981
H17   H     H_    0.360548 0.510087 0.463641 0.361794
C118  C     C_2   0.705597 0.384410 0.323864 0.893528
O51   O     O_2   0.656224 0.413691 0.330890 -0.516403
O52   O     O_R   0.752302 0.402986 0.260162 -0.755314
H18   H     H_    0.739678 0.441360 0.223567 0.350729
C119  C     C_2   0.698035 0.614873 0.315484 0.868069
O53   O     O_2   0.742515 0.607598 0.261069 -0.580593
O54   O     O_R   0.644727 0.576921 0.308630 -0.665104
H19   H     H_    0.648609 0.545307 0.255922 0.362393
C120  C     C_2   0.295486 0.393217 0.344472 0.936461
O55   O     O_2   0.325529 0.394179 0.270060 -0.482590
O56   O     O_R   0.264230 0.445920 0.374601 -0.725546
H20   H     H_    0.269733 0.481447 0.328707 0.367176
C121  C     C_2   0.794882 0.118946 0.694590 0.989811
O57   O     O_2   0.808730 0.128085 0.779170 -0.533802
O58   O     O_R   0.783975 0.059605 0.661833 -0.692867
H21   H     H_    0.788294 0.028236 0.715186 0.363852
C122  C     C_2   0.178400 0.894736 0.385600 0.922864
O59   O     O_2   0.167345 0.933647 0.445907 -0.445749
O60   O     O_R   0.166801 0.906468 0.288002 -0.714344
H22   H     H_    0.150627 0.949496 0.275915 0.355538
C123  C     C_2   0.204534 0.114429 0.688736 0.933637
O61   O     O_2   0.154134 0.086513 0.686158 -0.504978
O62   O     O_R   0.253877 0.095242 0.750154 -0.737466
H23   H     H_    0.241820 0.058191 0.789531 0.357558
C124  C     C_2   0.802204 0.883650 0.667404 0.881019
O63   O     O_2   0.846209 0.920023 0.665539 -0.475617
O64   O     O_R   0.755207 0.889201 0.736631 -0.747364
H24   H     H_    0.763601 0.924262 0.782535 0.352388
C125  C     C_2   0.899217 0.205120 0.678067 0.975640
O65   O     O_2   0.922580 0.250526 0.715289 -0.523925
O66   O     O_R   0.927234 0.147915 0.694207 -0.672098
H25   H     H_    0.964964 0.149722 0.740676 0.372935
C126  C     C_2   0.092031 0.797831 0.376921 0.868093
O67   O     O_2   0.054950 0.835304 0.409304 -0.457409
O68   O     O_R   0.078454 0.769049 0.289499 -0.749099
H26   H     H_    0.035575 0.781668 0.261011 0.366939
C127  C     C_2   0.113405 0.210693 0.695620 0.904713
O69   O     O_2   0.060306 0.210908 0.658148 -0.549282
O70   O     O_R   0.120877 0.202241 0.794834 -0.688027
H27   H     H_    0.078618 0.197401 0.828074 0.361630
C128  C     C_2   0.900110 0.788345 0.656254 0.893723
O71   O     O_2   0.932788 0.834077 0.665572 -0.490650
O72   O     O_R   0.916646 0.735097 0.706556 -0.730235
H28   H     H_    0.955935 0.740446 0.749196 0.363760
C129  C     C_2   0.424586 0.682138 0.600544 0.929117
O73   O     O_2   0.439136 0.684298 0.685976 -0.510721
O74   O     O_R   0.467783 0.659330 0.534331 -0.668498
H29   H     H_    0.510532 0.648598 0.565163 0.375828
C130  C     C_2   0.618039 0.284812 0.301031 0.922734
O75   O     O_2   0.564113 0.280934 0.331954 -0.480263
O76   O     O_R   0.627496 0.297437 0.203810 -0.697717
H30   H     H_    0.585924 0.301631 0.166037 0.374848
C131  C     C_2   0.599568 0.702604 0.322773 0.901403
O77   O     O_2   0.599447 0.729474 0.245769 -0.515650
O78   O     O_R   0.549342 0.663850 0.345973 -0.646342
H31   H     H_    0.514946 0.662697 0.293853 0.365444
C132  C     C_2   0.407395 0.324119 0.412267 0.891722
O79   O     O_2   0.428170 0.339670 0.334495 -0.464440
O80   O     O_R   0.445385 0.329556 0.495438 -0.702009
H32   H     H_    0.488883 0.347306 0.482017 0.377985
C133  C     C_3   0.117385 0.522377 0.751806 -0.651849
H33   H     H_    0.128352 0.569149 0.726898 0.245806
H34   H     H_    0.154807 0.507925 0.804697 0.226550
H35   H     H_    0.121923 0.490012 0.692496 0.253210
C134  C     C_3   0.882098 0.489313 0.239909 -0.648659
H36   H     H_    0.845894 0.493690 0.181034 0.199711
H37   H     H_    0.868476 0.449893 0.284305 0.275388
H38   H     H_    0.879428 0.533305 0.277708 0.280526
C135  C     C_3   0.882950 0.477229 0.749287 -0.626315
H39   H     H_    0.877886 0.510050 0.690164 0.272381
H40   H     H_    0.871794 0.430413 0.724473 0.257319
H41   H     H_    0.846399 0.491583 0.801421 0.211233
C136  C     C_3   0.118987 0.520101 0.254663 -0.671838
H42   H     H_    0.124097 0.488277 0.314748 0.261982
H43   H     H_    0.155754 0.504725 0.203587 0.207347
H44   H     H_    0.131519 0.566518 0.279822 0.239608
C137  C     C_3   0.616234 0.971536 0.752827 -0.641177
H45   H     H_    0.621214 0.004146 0.693705 0.292743
H46   H     H_    0.654088 0.983886 0.806133 0.206476
H47   H     H_    0.625726 0.924602 0.727402 0.260507
C138  C     C_3   0.386552 0.033512 0.244828 -0.703439
H48   H     H_    0.383157 0.002556 0.305907 0.277126
H49   H     H_    0.378295 0.081280 0.267700 0.222256
H50   H     H_    0.348482 0.019395 0.193003 0.233190
C139  C     C_3   0.382813 0.019869 0.752857 -0.634549
H51   H     H_    0.377595 0.980898 0.703833 0.271478
H52   H     H_    0.347708 0.010992 0.809921 0.192968
H53   H     H_    0.369755 0.063437 0.717606 0.273540
C140  C     C_3   0.617551 0.975053 0.253112 -0.679595
H54   H     H_    0.623071 0.007441 0.312692 0.248906
H55   H     H_    0.629370 0.928350 0.278545 0.243507
H56   H     H_    0.654191 0.989155 0.200986 0.219073
C141  C     C_2   0.874251 0.382458 0.895812 0.867023
O81   O     O_2   0.902979 0.341114 0.856652 -0.505822
O82   O     O_R   0.807763 0.385379 0.889576 -0.697893
H57   H     H_    0.788808 0.350447 0.850946 0.357080
C142  C     C_2   0.133682 0.611484 0.105632 0.847862
O83   O     O_2   0.191685 0.610308 0.099242 -0.513546
O84   O     O_R   0.104474 0.655004 0.163489 -0.719262
H58   H     H_    0.136672 0.682567 0.196765 0.372949
C143  C     C_2   0.128964 0.615082 0.900463 0.854257
O85   O     O_2   0.100155 0.654503 0.854764 -0.553610
O86   O     O_R   0.195557 0.614509 0.903284 -0.677354
H59   H     H_    0.214481 0.649140 0.864824 0.364964
C144  C     C_2   0.873740 0.384088 0.103897 0.886718
O87   O     O_2   0.818008 0.374059 0.082590 -0.496707
O88   O     O_R   0.902971 0.352305 0.180194 -0.711918
H60   H     H_    0.872944 0.322823 0.212487 0.361809
C145  C     C_2   0.382122 0.124944 0.889256 0.890293
O89   O     O_2   0.327720 0.139543 0.909284 -0.498251
O90   O     O_R   0.413140 0.154773 0.814517 -0.716040
H61   H     H_    0.385212 0.186632 0.781480 0.363684
C146  C     C_2   0.623760 0.879519 0.107270 0.871066
O91   O     O_2   0.594031 0.841749 0.152812 -0.497735
O92   O     O_R   0.690326 0.877913 0.107378 -0.698197
H62   H     H_    0.708427 0.843051 0.147514 0.357865
C147  C     C_2   0.619845 0.875867 0.900952 0.865642
O93   O     O_2   0.676819 0.866476 0.913471 -0.509657
O94   O     O_R   0.584353 0.839031 0.837926 -0.727587
H63   H     H_    0.611253 0.806412 0.806585 0.363737
C148  C     C_2   0.385486 0.128462 0.095097 0.865928
O95   O     O_2   0.417706 0.172632 0.117864 -0.537898
O96   O     O_R   0.319910 0.128098 0.110859 -0.715854
H64   H     H_    0.304833 0.166558 0.143967 0.347328

loop_
_geom_bond_atom_site_label_1
_geom_bond_atom_site_label_2
_geom_bond_distance
_ccdc_geom_bond_type
C79   N3    1.381625 A    
C109  O33   1.220957 D    
C76   N2    1.393921 A    
C144  O88   1.399053 S    
C84   C96   1.420412 A    
O66   H25   1.013544 S    
C14   C22   1.421040 A    
C29   C113  1.488412 S    
C106  O27   1.222099 D    
C145  O89   1.222413 D    
C140  H56   1.111017 S    
C57   C69   1.420192 A    
C88   C100  1.426993 A    
C38   C62   1.424877 A    
C27   C111  1.465462 S    
O6    Cu1   1.984756 S    
O26   H5    1.013984 S    
C80   N4    1.389895 A    
C138  H50   1.110917 S    
C42   C50   1.406092 A    
C119  O54   1.397914 S    
C83   C89   1.404377 A    
O84   H58   1.013488 S    
C98   C146  1.481348 S    
C62   C122  1.481427 S    
C113  O42   1.394473 S    
O54   H19   1.013825 S    
C131  O77   1.221093 D    
C82   C94   1.427237 A    
C8    C21   1.491467 S    
C21   C29   1.421850 A    
C110  O36   1.400396 S    
C16   C108  1.483995 S    
C9    C49   1.398614 A    
C115  O46   1.399528 S    
O50   H17   1.013889 S    
O22   H3    1.005797 S    
C73   N1    1.386905 A    
C115  O45   1.217381 D    
O10   C6    1.309002 A    
C58   C118  1.481456 S    
C60   C72   1.419883 A    
O62   H23   1.013735 S    
C127  O69   1.221362 D    
Cu4   N4    2.036075 S    
O90   H61   1.013997 S    
O11   Cu3   1.973666 S    
O2    Cu2   1.979796 S    
C147  O93   1.222051 D    
C77   N3    1.389302 A    
C114  O43   1.222460 D    
C13   C53   1.410894 A    
C43   C51   1.409104 A    
C137  H46   1.110774 S    
C16   C24   1.411249 A    
C17   C25   1.419291 A    
C86   C92   1.404848 A    
C19   C27   1.412812 A    
C20   C28   1.422723 A    
C121  O57   1.223399 D    
C64   C68   1.414946 A    
C31   C115  1.493436 S    
O24   H4    1.009818 S    
C10   C102  1.492155 S    
C124  O63   1.222303 D    
C141  O82   1.397936 S    
O42   H13   1.014041 S    
Cu2   N2    2.036075 S    
C85   C97   1.418876 A    
C100  C148  1.478064 S    
C51   C68   1.412095 A    
C74   C134  1.496388 S    
C75   C135  1.501363 S    
C74   N2    1.380737 A    
C118  O51   1.222921 D    
O32   H8    1.013897 S    
C101  O18   1.399132 S    
C134  H37   1.102275 S    
C9    C101  1.497858 S    
O28   H6    1.014010 S    
C23   C31   1.411709 A    
C148  O95   1.221072 D    
C68   C128  1.490978 S    
C10   C18   1.426401 A    
C132  O79   1.222170 D    
C125  O65   1.222027 D    
O7    Cu2   1.979838 S    
C81   C89   1.404821 A    
C53   C70   1.425322 A    
C107  O30   1.395026 S    
C133  H33   1.107304 S    
C116  O48   1.398946 S    
C91   C92   1.423860 A    
C46   C54   1.415840 A    
C29   C37   1.421397 A    
O13   C7    1.309312 A    
C134  H36   1.110320 S    
O14   C8    1.316044 A    
C117  O50   1.396665 S    
C32   C40   1.411459 A    
C39   C47   1.413644 A    
C33   C41   1.421413 A    
C146  O92   1.397581 S    
C35   C43   1.405237 A    
C36   C44   1.407430 A    
C94   C142  1.484243 S    
C15   C23   1.411778 A    
C128  O71   1.221615 D    
C59   C71   1.409002 A    
C24   C32   1.406169 A    
O16   Cu3   1.979841 S    
C11   C51   1.413300 A    
C25   C33   1.438602 A    
C111  O38   1.384143 S    
C129  O73   1.222241 D    
C120  O56   1.395544 S    
C142  O83   1.222645 D    
C121  O58   1.396601 S    
O8    C3    1.308291 A    
C78   C88   1.434228 A    
C25   C109  1.484635 S    
C13   C105  1.487937 S    
Cu1   Cu2   2.709943 S    
O44   H14   1.013235 S    
C143  O85   1.223064 D    
C5    C24   1.460181 S    
C6    C23   1.476665 S    
O72   H28   1.013788 S    
C122  O59   1.222022 D    
C136  H43   1.110919 S    
C22   C30   1.410767 A    
O15   C8    1.303764 A    
O7    C4    1.309956 A    
O16   C7    1.306141 A    
C47   C55   1.417601 A    
C93   C141  1.481735 S    
C88   C92   1.404023 A    
C52   C67   1.418268 A    
C103  O22   1.396154 S    
C102  O19   1.223102 D    
C112  O40   1.396847 S    
O64   H24   1.013521 S    
C43   C48   1.405876 A    
C135  H41   1.110893 S    
C140  H55   1.107922 S    
O1    C1    1.308082 A    
C36   C60   1.418473 A    
C120  O55   1.222349 D    
C134  H38   1.100622 S    
C57   C117  1.488077 S    
C139  H52   1.110508 S    
C4    C17   1.477905 S    
C79   C139  1.500562 S    
C77   C137  1.505591 S    
C138  H49   1.108588 S    
C119  O53   1.223313 D    
C96   C144  1.492473 S    
C18   C26   1.414428 A    
C56   C71   1.431416 A    
C139  H53   1.103751 S    
C66   C126  1.482783 S    
C28   C112  1.502610 S    
C50   C65   1.421733 A    
C65   C125  1.490155 S    
C61   C65   1.426801 A    
C75   N1    1.387450 A    
C63   C67   1.412512 A    
C80   C86   1.436643 A    
C95   C143  1.486009 S    
O74   H29   1.013959 S    
O94   H63   1.013859 S    
C110  O35   1.218222 D    
O80   H32   1.013900 S    
C12   C52   1.416460 A    
C123  O61   1.223504 D    
C58   C70   1.413191 A    
C104  O24   1.398025 S    
O12   Cu4   1.973666 S    
C27   C35   1.417137 A    
C39   C63   1.427479 A    
C105  O26   1.396541 S    
C77   C87   1.435690 A    
C73   C133  1.505393 S    
O76   H30   1.013800 S    
C79   C85   1.428252 A    
C112  O39   1.222640 D    
C84   C90   1.402521 A    
C106  O28   1.397820 S    
C26   C110  1.488514 S    
C80   C140  1.513218 S    
O30   H7    1.012927 S    
O13   Cu4   1.984760 S    
O14   Cu3   1.984756 S    
C108  O32   1.397722 S    
C11   C103  1.486636 S    
C123  O62   1.393395 S    
O96   H64   1.013830 S    
C109  O34   1.398014 S    
C137  H45   1.094977 S    
O8    Cu1   1.979841 S    
C81   C93   1.427534 A    
C83   C95   1.424834 A    
C10   C50   1.427354 A    
C145  O90   1.399004 S    
C87   C99   1.423356 A    
O58   H21   1.013056 S    
C30   C38   1.413839 A    
C69   C129  1.484494 S    
O3    Cu1   1.973666 S    
C30   C114  1.474722 S    
C93   C96   1.421548 A    
O86   H59   1.013837 S    
O52   H18   1.013955 S    
C34   C42   1.400337 A    
C113  O41   1.223226 D    
O92   H62   1.013893 S    
C1    C20   1.486367 S    
C33   C57   1.425391 A    
O88   H60   1.014007 S    
C141  O81   1.221568 D    
C3    C18   1.493325 S    
C133  H35   1.094231 S    
C35   C59   1.416925 A    
O34   H9    1.014016 S    
C15   C55   1.423612 A    
C26   C34   1.404934 A    
C99   C147  1.487380 S    
C14   C54   1.426305 A    
O4    C1    1.309205 A    
C131  O78   1.397708 S    
C103  O21   1.221168 D    
C48   C56   1.424668 A    
O18   H1    1.011890 S    
O38   H11   1.007239 S    
O9    Cu3   1.979796 S    
C89   C90   1.423876 A    
O10   Cu4   1.979796 S    
C76   C136  1.514875 S    
C60   C120  1.491530 S    
C37   C45   1.408147 A    
O4    Cu2   1.973666 S    
O5    C3    1.312405 A    
O6    C4    1.300453 A    
C116  O47   1.220189 D    
C13   C21   1.425327 A    
O48   H16   1.013883 S    
C127  O70   1.397740 S    
C67   C127  1.483463 S    
C107  O29   1.220137 D    
C86   C98   1.425981 A    
C62   C66   1.398502 A    
Cu1   N1    2.036075 S    
O15   Cu4   1.979838 S    
C135  H39   1.094786 S    
Cu3   N3    2.036075 S    
C117  O49   1.223574 D    
C148  O96   1.397985 S    
C64   C124  1.487097 S    
O5    Cu2   1.984760 S    
C40   C48   1.418468 A    
C125  O66   1.398861 S    
C146  O91   1.221231 D    
C137  H47   1.106850 S    
C9    C17   1.399591 A    
C142  O84   1.396836 S    
C15   C107  1.480025 S    
C34   C58   1.411918 A    
O40   H12   1.014059 S    
C71   C131  1.481948 S    
C111  O37   1.223277 D    
C59   C119  1.493606 S    
O2    C2    1.304313 A    
C144  O87   1.221932 D    
O36   H10   1.013711 S    
C2    C19   1.486826 S    
C72   C132  1.487757 S    
C74   C84   1.427649 A    
C7    C22   1.486425 S    
C82   C90   1.405691 A    
C54   C69   1.428449 A    
C130  O75   1.221663 D    
C14   C106  1.485066 S    
C45   C53   1.410248 A    
O3    C2    1.311890 A    
O68   H26   1.013956 S    
C94   C95   1.421909 A    
C97   C100  1.420259 A    
C75   C81   1.434934 A    
C126  O68   1.395772 S    
C41   C46   1.412185 A    
C38   C46   1.419239 A    
O60   H22   1.013731 S    
C118  O52   1.394884 S    
C16   C56   1.422110 A    
C136  H42   1.090833 S    
C12   C20   1.425171 A    
O1    Cu1   1.979796 S    
C63   C123  1.488369 S    
C132  O80   1.397915 S    
C44   C47   1.402088 A    
C135  H40   1.107142 S    
C114  O44   1.393852 S    
C140  H54   1.096729 S    
O12   C5    1.292607 A    
C97   C145  1.492177 S    
C130  O76   1.397659 S    
O46   H15   1.012856 S    
C78   C138  1.491077 S    
C133  H34   1.110902 S    
C126  O67   1.222283 D    
C128  O72   1.398661 S    
C55   C72   1.429568 A    
C129  O74   1.396800 S    
O82   H57   1.013885 S    
C37   C61   1.426416 A    
C31   C39   1.414277 A    
C32   C116  1.494846 S    
O9    C5    1.308042 A    
O70   H27   1.013811 S    
C61   C121  1.480569 S    
C41   C49   1.408813 A    
C28   C36   1.412468 A    
C76   C82   1.439228 A    
C42   C45   1.394711 A    
O78   H31   1.013720 S    
C124  O64   1.396783 S    
C104  O23   1.220598 D    
O11   C6    1.300440 A    
C98   C99   1.422869 A    
C12   C104  1.493073 S    
C143  O86   1.397649 S    
C105  O25   1.222632 D    
C73   C83   1.435590 A    
C40   C64   1.424718 A    
C101  O17   1.222060 D    
C147  O94   1.398628 S    
C78   N4    1.387045 A    
C122  O60   1.397737 S    
C11   C19   1.405514 A    
C44   C52   1.409647 A    
C136  H44   1.106944 S    
C85   C91   1.402815 A    
C70   C130  1.483448 S    
Cu3   Cu4   2.709943 S    
C87   C91   1.403254 A    
O56   H20   1.013934 S    
C108  O31   1.217940 D    
C139  H51   1.098165 S    
C49   C66   1.408774 A    
O20   H2    1.013159 S    
C102  O20   1.391777 S    
C138  H48   1.089529 S    
