data_mof_unit_16488.cif
_audit_creation_date              2012-12-11T14:25:00-0500
_audit_creation_method            fapswitch 2.2
_symmetry_space_group_name_H-M    P1
_symmetry_Int_Tables_number       1
_space_group_crystal_system       triclinic
_cell_length_a                    19.786709
_cell_length_b                    11.246317
_cell_length_c                    18.773477
_cell_angle_alpha                 90.257321
_cell_angle_beta                  92.436409
_cell_angle_gamma                 90.001605
_cell_volume                      4173.79813146

loop_
_atom_site_label
_atom_site_type_symbol
_atom_type_description
_atom_site_fract_x
_atom_site_fract_y
_atom_site_fract_z
_atom_type_partial_charge
C1    C     C_R   0.729523 0.377402 0.147867 0.529521
C2    C     C_R   0.271071 0.375859 0.852954 0.549901
C3    C     C_R   0.229536 0.877441 0.147890 0.528701
C4    C     C_R   0.771057 0.875902 0.852937 0.545231
C5    C     C_3   0.498934 0.050580 0.022576 -0.095912
C6    C     C_3   0.547517 0.098125 0.967114 -0.119931
C7    C     C_3   0.998876 0.550577 0.022602 -0.096479
C8    C     C_3   0.047467 0.598098 0.967141 -0.119168
C9    C     C_R   0.754299 0.914631 0.925150 -0.000218
C10   C     C_R   0.248301 0.922071 0.077575 -0.004858
C11   C     C_R   0.254327 0.414513 0.925180 0.001764
C12   C     C_R   0.748246 0.421910 0.077506 -0.004035
C13   C     C_R   0.695918 0.873177 0.958615 0.019956
C14   C     C_R   0.305629 0.878639 0.043376 0.020266
C15   C     C_R   0.195915 0.373117 0.958618 0.018024
C16   C     C_R   0.805571 0.378471 0.043296 0.020828
C17   C     C_R   0.696026 0.868519 0.034324 0.027551
C18   C     C_R   0.304759 0.873278 0.967556 0.012477
C19   C     C_R   0.196003 0.368499 0.034333 0.027060
C20   C     C_R   0.804694 0.373096 0.967476 0.011648
C21   C     C_R   0.804568 0.970414 0.039855 -0.154174
C22   C     C_R   0.200347 0.987668 0.964126 -0.149845
C23   C     C_R   0.304609 0.470194 0.039899 -0.154325
C24   C     C_R   0.700240 0.487357 0.964043 -0.149530
C25   C     C_R   0.807171 0.965161 0.966960 -0.154762
C26   C     C_R   0.197827 0.981072 0.037117 -0.161432
C27   C     C_R   0.307225 0.464930 0.967008 -0.153622
C28   C     C_R   0.697733 0.480796 0.037035 -0.160999
C29   C     C_R   0.637973 0.833378 0.918890 -0.094941
C30   C     C_R   0.362763 0.836042 0.082696 -0.080940
C31   C     C_R   0.137957 0.333333 0.918877 -0.096158
C32   C     C_R   0.862719 0.335901 0.082603 -0.080689
C33   C     C_R   0.087012 0.272410 0.951649 -0.135607
C34   C     C_R   0.910872 0.268123 0.049753 -0.136324
C35   C     C_R   0.587037 0.772424 0.951653 -0.135176
C36   C     C_R   0.410915 0.768247 0.049857 -0.136269
C37   C     C_R   0.591880 0.752802 0.024704 -0.145409
C38   C     C_R   0.405480 0.748514 0.976653 -0.137699
C39   C     C_R   0.091833 0.252855 0.024706 -0.144714
C40   C     C_R   0.905432 0.248388 0.976548 -0.138250
C41   C     C_R   0.644806 0.802430 0.066144 -0.087239
C42   C     C_R   0.354082 0.802848 0.935355 -0.085177
C43   C     C_R   0.144743 0.302507 0.066148 -0.087215
C44   C     C_R   0.854017 0.302686 0.935258 -0.088559
C45   C     C_R   0.534416 0.154881 0.143859 0.553387
C46   C     C_R   0.466403 0.155601 0.855592 0.550317
C47   C     C_R   0.034394 0.654883 0.143872 0.556657
C48   C     C_R   0.966384 0.655596 0.855604 0.554486
C49   C     C_R   0.748667 0.926464 0.075002 -0.002066
C50   C     C_R   0.253313 0.935226 0.927522 -0.006842
C51   C     C_R   0.248666 0.426378 0.075024 -0.003027
C52   C     C_R   0.753242 0.435018 0.927448 -0.008453
C53   C     C_R   0.499298 0.152844 0.574882 -0.036063
C54   C     C_R   0.508200 0.139185 0.424600 -0.031124
C55   C     C_R   0.989304 0.647299 0.572773 -0.040352
C56   C     C_R   0.008604 0.633567 0.425230 -0.020815
C57   C     C_R   0.516016 0.040726 0.542940 -0.023951
C58   C     C_R   0.514957 0.029839 0.465750 0.005243
C59   C     C_R   0.007631 0.530816 0.543485 0.019155
C60   C     C_R   0.017704 0.523157 0.467132 0.026037
C61   C     C_R   0.483322 0.240420 0.455387 -0.012140
C62   C     C_R   0.487401 0.251649 0.530032 0.002299
C63   C     C_R   0.972490 0.727949 0.451824 -0.012759
C64   C     C_R   0.970394 0.742959 0.525886 -0.027704
C65   C     C_R   0.523228 0.933416 0.584463 0.143816
C66   C     C_R   0.514481 0.907400 0.436773 0.198915
C67   C     C_R   0.008809 0.417032 0.584181 0.168636
C68   C     C_R   0.027749 0.401135 0.437928 0.148105
C69   C     C_R   0.003806 0.310808 0.549509 -0.117261
C70   C     C_R   0.013297 0.304153 0.479411 -0.097304
C71   C     C_R   0.500815 0.828352 0.554317 -0.086361
C72   C     C_R   0.501502 0.815042 0.482032 -0.052025
C73   C     C_R   0.755529 0.907932 0.574671 0.059437
C74   C     C_R   0.242909 0.977383 0.410739 -0.012481
C75   C     C_R   0.261387 0.408258 0.573821 0.070973
C76   C     C_R   0.742738 0.471670 0.411429 -0.023998
C77   C     C_R   0.766781 0.021767 0.548765 0.034874
C78   C     C_R   0.187018 0.024882 0.446003 -0.006640
C79   C     C_R   0.283946 0.517438 0.548012 0.042010
C80   C     C_R   0.686580 0.511675 0.449537 -0.009734
C81   C     C_R   0.746959 0.039031 0.477451 0.017883
C82   C     C_R   0.188619 0.005752 0.520836 0.024945
C83   C     C_R   0.261240 0.543085 0.479092 -0.031840
C84   C     C_R   0.690905 0.488383 0.523500 0.012215
C85   C     C_R   0.747091 0.827440 0.454957 -0.093824
C86   C     C_R   0.309315 0.029220 0.516903 -0.133686
C87   C     C_R   0.223110 0.342735 0.456856 -0.133879
C88   C     C_R   0.810951 0.516611 0.517002 -0.152696
C89   C     C_R   0.740519 0.971323 0.148339 0.530881
C90   C     C_R   0.260023 0.973647 0.852594 0.539388
C91   C     C_R   0.240519 0.471303 0.148347 0.534727
C92   C     C_R   0.759999 0.473571 0.852559 0.536067
C93   C     C_R   0.736503 0.815083 0.527336 0.015419
C94   C     C_R   0.304396 0.002231 0.443584 0.009032
C95   C     C_R   0.222735 0.331478 0.529666 0.016602
C96   C     C_R   0.805379 0.496093 0.442808 -0.020852
C97   C     C_R   0.809001 0.111832 0.581823 0.087311
C98   C     C_R   0.125746 0.065494 0.409611 0.087359
C99   C     C_R   0.341587 0.585789 0.574349 0.127199
C100  C     C_R   0.623169 0.556307 0.418189 0.114357
C101  C     C_R   0.841531 0.186141 0.535266 -0.101916
C102  C     C_R   0.066800 0.054257 0.443796 -0.115256
C103  C     C_R   0.382282 0.626296 0.520733 -0.061886
C104  C     C_R   0.569209 0.564272 0.460530 -0.102262
C105  C     C_R   0.810952 0.205052 0.468570 -0.099842
C106  C     C_R   0.066651 0.026254 0.514283 -0.104684
C107  C     C_R   0.350516 0.658249 0.456098 -0.026947
C108  C     C_R   0.573592 0.532697 0.530395 -0.102897
C109  C     C_R   0.749293 0.153208 0.452696 -0.112496
C110  C     C_R   0.125530 0.992956 0.552572 -0.020821
C111  C     C_R   0.280712 0.650273 0.454069 -0.092848
C112  C     C_R   0.630801 0.476966 0.558891 -0.020305
C113  C     C_R   0.747551 0.942713 0.429400 0.082469
C114  C     C_R   0.254515 0.005049 0.557790 -0.003595
C115  C     C_R   0.244461 0.450188 0.431217 0.037300
C116  C     C_R   0.756433 0.492309 0.558628 -0.006121
C117  C     C_R   0.730723 0.389031 0.349352 0.522592
C118  C     C_R   0.272577 0.374229 0.645596 0.600349
C119  C     C_R   0.230541 0.889224 0.349971 0.528261
C120  C     C_R   0.770853 0.875797 0.646189 0.589593
C121  C     C_R   0.535015 0.152424 0.352997 0.565981
C122  C     C_R   0.467931 0.155013 0.647379 0.559522
C123  C     C_R   0.037642 0.651348 0.354668 0.566188
C124  C     C_R   0.965569 0.654269 0.646599 0.561418
C125  C     C_R   0.742956 0.969361 0.354413 0.533042
C126  C     C_R   0.266363 0.015154 0.636192 0.556926
C127  C     C_R   0.241407 0.474518 0.356268 0.552102
C128  C     C_R   0.766243 0.511155 0.636163 0.555441
C129  C     C_3   0.502098 0.276195 0.976081 -0.117161
C130  C     C_3   0.453641 0.228762 0.032282 -0.133851
C131  C     C_3   0.002066 0.776184 0.976097 -0.117363
C132  C     C_3   0.953602 0.728775 0.032300 -0.133145
C133  C     C_3   0.561909 0.209542 0.013740 -0.117630
C134  C     C_3   0.439293 0.117259 0.985607 -0.108181
C135  C     C_3   0.061869 0.709518 0.013760 -0.118177
C136  C     C_3   0.939243 0.617269 0.985626 -0.108797
C137  C     C_3   0.512866 0.161778 0.068471 0.048724
C138  C     C_3   0.488353 0.164253 0.930707 0.051434
C139  C     C_3   0.012821 0.661777 0.068492 0.048304
C140  C     C_3   0.988313 0.664241 0.930727 0.051215
Cr1   Cr    Cr6+3 0.772820 0.169820 0.252640 1.069025
Cr2   Cr    Cr6+3 0.227180 0.169820 0.747360 1.043879
Cr3   Cr    Cr6+3 0.272820 0.669820 0.252640 1.060486
Cr4   Cr    Cr6+3 0.727180 0.669820 0.747360 1.058746
Cr5   Cr    Cr6+3 0.615040 0.323610 0.249150 1.080539
Cr6   Cr    Cr6+3 0.384960 0.323610 0.750850 1.057685
Cr7   Cr    Cr6+3 0.115040 0.823610 0.249150 1.088116
Cr8   Cr    Cr6+3 0.884960 0.823610 0.750850 1.070352
Cr9   Cr    Cr6+3 0.616720 0.011130 0.250660 1.041360
Cr10  Cr    Cr6+3 0.383280 0.011130 0.749340 1.074142
Cr11  Cr    Cr6+3 0.116720 0.511130 0.250660 1.042050
Cr12  Cr    Cr6+3 0.883280 0.511130 0.749340 1.064348
H1    H     H_    0.612669 0.247550 0.026985 0.128726
H2    H     H_    0.388474 0.079768 0.972420 0.130855
H3    H     H_    0.112632 0.747517 0.027004 0.128771
H4    H     H_    0.888423 0.579781 0.972438 0.131017
H5    H     H_    0.998851 0.227288 0.577336 0.124775
H6    H     H_    0.991916 0.226489 0.455740 0.121592
H7    H     H_    0.494428 0.751129 0.586435 0.142455
H8    H     H_    0.479344 0.739537 0.458245 0.088373
H9    H     H_    0.734843 0.754997 0.418113 0.152745
H10   H     H_    0.358460 0.046570 0.542764 0.138517
H11   H     H_    0.195814 0.280971 0.422092 0.170795
H12   H     H_    0.859582 0.538674 0.542413 0.136081
H13   H     H_    0.887474 0.229376 0.551425 0.159300
H14   H     H_    0.020077 0.071096 0.414841 0.202218
H15   H     H_    0.435693 0.622198 0.528460 0.106036
H16   H     H_    0.521530 0.588779 0.438008 0.173627
H17   H     H_    0.836769 0.244532 0.426239 0.227772
H18   H     H_    0.020522 0.044626 0.538699 0.168226
H19   H     H_    0.377239 0.688467 0.410146 0.213668
H20   H     H_    0.534994 0.563809 0.563653 0.149400
H21   H     H_    0.718625 0.174961 0.406205 0.157210
H22   H     H_    0.119954 0.967225 0.607142 0.194159
H23   H     H_    0.246466 0.688676 0.416998 0.160578
H24   H     H_    0.628206 0.441580 0.611940 0.205813
H25   H     H_    0.504154 0.368188 0.955162 0.117313
H26   H     H_    0.415535 0.281434 0.060383 0.120929
H27   H     H_    0.004131 0.868175 0.955177 0.117691
H28   H     H_    0.915502 0.781465 0.060397 0.121604
H29   H     H_    0.497648 0.958368 0.042875 0.151199
H30   H     H_    0.585892 0.047978 0.938326 0.129848
H31   H     H_    0.997575 0.458368 0.042906 0.150938
H32   H     H_    0.085839 0.547919 0.938367 0.132177
H33   H     H_    0.846871 0.012478 0.068478 0.157125
H34   H     H_    0.159824 0.035854 0.936608 0.160537
H35   H     H_    0.346931 0.512179 0.068537 0.156467
H36   H     H_    0.659693 0.535476 0.936520 0.160552
H37   H     H_    0.630635 0.850338 0.862511 0.139932
H38   H     H_    0.370472 0.853292 0.139191 0.162278
H39   H     H_    0.130581 0.350237 0.862474 0.156169
H40   H     H_    0.870444 0.353168 0.139094 0.163037
H41   H     H_    0.852952 0.997072 0.943875 0.147273
H42   H     H_    0.153660 0.017642 0.061274 0.148770
H43   H     H_    0.353033 0.496762 0.943942 0.146142
H44   H     H_    0.653552 0.517325 0.061185 0.147514
H45   H     H_    0.044976 0.237740 0.919455 0.110202
H46   H     H_    0.951246 0.229034 0.082118 0.117066
H47   H     H_    0.544998 0.737772 0.919454 0.113127
H48   H     H_    0.451290 0.729153 0.082223 0.116052
H49   H     H_    0.054881 0.198344 0.049403 0.103873
H50   H     H_    0.940842 0.190336 0.951691 0.101771
H51   H     H_    0.554932 0.698267 0.049395 0.101889
H52   H     H_    0.440885 0.690444 0.951803 0.101543
H53   H     H_    0.646940 0.782149 0.122295 0.130712
H54   H     H_    0.351399 0.782799 0.879095 0.141533
H55   H     H_    0.146829 0.282311 0.122300 0.129189
H56   H     H_    0.851317 0.282631 0.878992 0.147083
O1    O     O_R   0.788190 0.043000 0.172520 -0.512633
O2    O     O_R   0.211810 0.043000 0.827480 -0.517296
O3    O     O_R   0.288190 0.543000 0.172520 -0.512274
O4    O     O_R   0.711810 0.543000 0.827480 -0.515842
O5    O     O_R   0.556550 0.253260 0.323480 -0.468564
O6    O     O_R   0.443450 0.253260 0.676520 -0.455790
O7    O     O_R   0.056550 0.753260 0.323480 -0.470505
O8    O     O_R   0.943450 0.753260 0.676520 -0.450263
O9    O     O_R   0.545830 0.051610 0.330160 -0.500555
O10   O     O_R   0.454170 0.051610 0.669840 -0.507960
O11   O     O_R   0.045830 0.551610 0.330160 -0.499055
O12   O     O_R   0.954170 0.551610 0.669840 -0.518750
O13   O     O_R   0.681920 0.959720 0.327070 -0.477078
O14   O     O_R   0.318080 0.959720 0.672930 -0.467777
O15   O     O_R   0.181920 0.459720 0.327070 -0.471092
O16   O     O_R   0.818080 0.459720 0.672930 -0.476450
O17   O     O_3   0.668190 0.168190 0.250820 -0.305174
O18   O     O_3   0.331810 0.168190 0.749180 -0.318116
O19   O     O_3   0.168190 0.668190 0.250820 -0.303830
O20   O     O_3   0.831810 0.668190 0.749180 -0.319384
O21   O     O_R   0.766240 0.292300 0.176860 -0.500310
O22   O     O_R   0.233760 0.292300 0.823140 -0.507990
O23   O     O_R   0.266240 0.792300 0.176860 -0.501790
O24   O     O_R   0.733760 0.792300 0.823140 -0.508453
O25   O     O_R   0.670310 0.409160 0.168720 -0.527331
O26   O     O_R   0.329690 0.409160 0.831280 -0.522960
O27   O     O_R   0.170310 0.909160 0.168720 -0.521721
O28   O     O_R   0.829690 0.909160 0.831280 -0.519536
O29   O     O_R   0.556160 0.251900 0.173380 -0.498607
O30   O     O_R   0.443840 0.251900 0.826620 -0.508138
O31   O     O_R   0.056160 0.751900 0.173380 -0.495663
O32   O     O_R   0.943840 0.751900 0.826620 -0.505744
O33   O     O_R   0.545410 0.050140 0.168240 -0.518015
O34   O     O_R   0.454590 0.050140 0.831760 -0.508817
O35   O     O_R   0.045410 0.550140 0.168240 -0.519280
O36   O     O_R   0.954590 0.550140 0.831760 -0.512328
O37   O     O_R   0.681530 0.958350 0.176970 -0.527395
O38   O     O_R   0.318470 0.958350 0.823030 -0.512449
O39   O     O_R   0.181530 0.458350 0.176970 -0.524389
O40   O     O_R   0.818470 0.458350 0.823030 -0.510713
O41   O     O_R   0.788610 0.044480 0.334450 -0.506375
O42   O     O_R   0.211390 0.044480 0.665550 -0.511037
O43   O     O_R   0.288610 0.544480 0.334450 -0.529361
O44   O     O_R   0.711390 0.544480 0.665550 -0.487101
O45   O     O_R   0.766630 0.293670 0.326970 -0.503521
O46   O     O_R   0.233370 0.293670 0.673030 -0.481294
O47   O     O_R   0.266630 0.793670 0.326970 -0.490694
O48   O     O_R   0.733370 0.793670 0.673030 -0.450776
O49   O     O_R   0.670730 0.410640 0.330640 -0.500585
O50   O     O_R   0.329270 0.410640 0.669360 -0.496766
O51   O     O_R   0.170730 0.910640 0.330640 -0.504883
O52   O     O_R   0.829270 0.910640 0.669360 -0.502352
C141  C     C_2   0.445972 0.325691 0.407745 0.623800
O53   O     O_2   0.469885 0.421890 0.395048 -0.509780
O54   O     O_R   0.386490 0.290249 0.370759 -0.694221
H57   H     H_    0.369642 0.352905 0.335174 0.352057
C142  C     C_2   0.465192 0.359960 0.562251 0.572087
O55   O     O_2   0.407790 0.391180 0.547720 -0.546381
O56   O     O_R   0.502043 0.406501 0.621228 -0.717988
H58   H     H_    0.475846 0.465528 0.650268 0.361369
C143  C     C_2   0.935542 0.807865 0.400118 0.635672
O57   O     O_2   0.952625 0.910882 0.394267 -0.497923
O58   O     O_R   0.882591 0.764337 0.355733 -0.704549
H59   H     H_    0.863369 0.828046 0.322128 0.344727
C144  C     C_2   0.944408 0.858211 0.553328 0.583524
O59   O     O_2   0.893458 0.902889 0.525575 -0.532229
O60   O     O_R   0.978247 0.916004 0.610574 -0.697915
H60   H     H_    0.952918 0.988416 0.628017 0.356138
C145  C     C_2   0.554462 0.919254 0.657431 0.595999
O61   O     O_2   0.610983 0.957672 0.672370 -0.494860
O62   O     O_R   0.519849 0.852752 0.707415 -0.663787
H61   H     H_    0.544502 0.845790 0.755454 0.319653
C146  C     C_2   0.522925 0.855349 0.364102 0.639164
O63   O     O_2   0.477691 0.851985 0.318407 -0.443887
O64   O     O_R   0.587680 0.825862 0.345301 -0.650267
H62   H     H_    0.590702 0.819007 0.291685 0.346859
C147  C     C_2   0.027893 0.388788 0.661725 0.617071
O65   O     O_2   0.076466 0.433766 0.692716 -0.480214
O66   O     O_R   0.984476 0.315560 0.698670 -0.675926
H63   H     H_    0.996497 0.310064 0.751805 0.323945
C148  C     C_2   0.027731 0.352543 0.363660 0.633359
O67   O     O_2   0.975818 0.333895 0.328281 -0.423520
O68   O     O_R   0.089177 0.329124 0.334490 -0.676941
H64   H     H_    0.086017 0.317402 0.280838 0.347363
C149  C     C_2   0.818572 0.137279 0.658644 0.608380
O69   O     O_2   0.875683 0.150441 0.685165 -0.511484
O70   O     O_R   0.762322 0.148450 0.700737 -0.666572
H65   H     H_    0.775783 0.170440 0.751955 0.334362
C150  C     C_2   0.118907 0.104705 0.332988 0.629641
O71   O     O_2   0.064491 0.094130 0.299472 -0.512805
O72   O     O_R   0.175780 0.142048 0.297144 -0.691659
H66   H     H_    0.164268 0.157092 0.244604 0.320411
C151  C     C_2   0.356920 0.629036 0.647919 0.609405
O73   O     O_2   0.414795 0.657147 0.666644 -0.554539
O74   O     O_R   0.305216 0.642096 0.695500 -0.660878
H67   H     H_    0.323113 0.674090 0.743595 0.334437
C152  C     C_2   0.610221 0.595943 0.342604 0.646882
O75   O     O_2   0.552548 0.590343 0.315244 -0.497983
O76   O     O_R   0.663241 0.630804 0.300693 -0.696547
H68   H     H_    0.647638 0.642226 0.248782 0.317203
C153  C     C_2   0.667505 0.788154 0.538701 0.556940
O77   O     O_2   0.627180 0.857524 0.511053 -0.558057
O78   O     O_R   0.650002 0.708600 0.591014 -0.657956
H69   H     H_    0.603630 0.723584 0.611014 0.322397
C154  C     C_2   0.359437 0.946164 0.415596 0.567505
O79   O     O_2   0.385922 0.877084 0.455521 -0.573424
O80   O     O_R   0.373475 0.946819 0.343760 -0.610133
H70   H     H_    0.346821 0.008857 0.314796 0.313227
C155  C     C_2   0.157276 0.324501 0.556894 0.558564
O81   O     O_2   0.132269 0.420253 0.569829 -0.530856
O82   O     O_R   0.135743 0.219826 0.586408 -0.698885
H71   H     H_    0.109596 0.229916 0.631311 0.341641
C156  C     C_2   0.863775 0.459846 0.407985 0.586715
O83   O     O_2   0.901857 0.401865 0.444246 -0.566397
O84   O     O_R   0.873225 0.468566 0.335108 -0.594088
H72   H     H_    0.839300 0.523424 0.309752 0.314137

loop_
_geom_bond_atom_site_label_1
_geom_bond_atom_site_label_2
_ccdc_geom_bond_type
C99   C103  A    
C124  O12   A    
C133  C137  S    
C55   C59   A    
Cr1   O41   S    
Cr11  O19   S    
O68   H64   S    
C73   C93   A    
C136  C140  S    
C128  O16   A    
Cr6   O26   S    
C75   C95   A    
C107  H19   S    
C151  O73   D    
C135  C139  S    
C84   C112  A    
Cr3   O43   S    
C4    O24   A    
C79   C99   A    
Cr12  O36   S    
Cr5   O25   S    
C62   C142  S    
C5    C6    S    
C109  H21   S    
O58   H59   S    
C100  C104  A    
C122  O6    A    
C9    C13   A    
C131  C140  S    
C3    O27   A    
C11   C15   A    
C50   C90   S    
C66   C72   A    
C12   C16   A    
C1    O25   A    
C87   C115  A    
C99   C151  S    
C80   C84   A    
C153  O78   S    
C59   C60   A    
C38   H52   S    
C68   C148  S    
C8    C135  S    
C101  C105  A    
C130  C134  S    
Cr8   O52   S    
Cr5   O49   S    
O84   H72   S    
C56   C123  S    
Cr11  O11   S    
C98   C102  A    
Cr5   O17   S    
C121  O5    A    
C78   C82   A    
O74   H67   S    
C11   C27   A    
C16   C20   A    
Cr9   O9    S    
Cr6   O6    S    
C105  H17   S    
C129  C133  S    
C40   H50   S    
C143  O58   S    
C29   H37   S    
C95   C155  S    
C17   C49   A    
C26   H42   S    
Cr1   O1    S    
C90   O2    A    
Cr8   O32   S    
Cr3   O19   S    
C39   C43   A    
C5    C137  S    
C118  O50   A    
C54   C61   A    
C30   C36   A    
C64   C144  S    
C29   C35   A    
C94   C154  S    
C24   H36   S    
C8    C140  S    
C125  O41   A    
C61   C141  S    
C147  O66   S    
C76   C96   A    
C89   O37   A    
C7    H31   S    
C69   C70   A    
C45   O29   A    
Cr11  O35   S    
C156  O83   D    
C73   C77   A    
C103  C107  A    
C67   C69   A    
C75   C79   A    
C79   C83   A    
C103  H15   S    
Cr8   O20   S    
C21   C49   A    
C92   O40   A    
C35   H47   S    
C7    C8    S    
C132  C139  S    
C6    H30   S    
Cr7   O7    S    
C53   C122  S    
C18   C42   A    
C141  O53   D    
C114  C126  S    
Cr2   O22   S    
C59   C67   A    
C85   C93   A    
Cr6   O30   S    
C152  O76   S    
C87   C95   A    
C69   H5    S    
C77   C97   A    
C84   C116  A    
Cr3   O47   S    
C145  O61   D    
C150  O72   S    
C1    C12   S    
C2    C11   S    
Cr8   O8    S    
C20   C44   A    
C110  H22   S    
C37   H51   S    
C48   C140  S    
C83   C115  A    
Cr4   O4    S    
C91   O3    A    
C10   C14   A    
C3    O23   A    
Cr7   O19   S    
C89   O1    A    
C88   H12   S    
C22   H34   S    
C149  O69   D    
C34   H46   S    
C132  C136  S    
C148  O67   D    
C142  O56   S    
C132  H28   S    
C47   O31   A    
C100  C152  S    
C112  H24   S    
C54   C121  S    
C108  H20   S    
C74   C78   A    
Cr6   O50   S    
C47   C139  S    
C129  C130  S    
C4    O28   A    
Cr10  O38   S    
C21   C25   A    
C107  C111  A    
C24   C28   A    
O56   H58   S    
C15   C31   A    
C125  O13   A    
C16   C32   A    
Cr2   O46   S    
C13   C17   A    
C71   C72   A    
C85   C113  A    
C63   C143  S    
C7    C136  S    
C23   H35   S    
C57   C58   A    
C144  O60   S    
Cr11  O15   S    
C30   H38   S    
C37   C41   A    
C61   C62   A    
C92   O4    A    
C2    O22   A    
C63   C64   A    
C40   C44   A    
O64   H62   S    
Cr3   O23   S    
C4    C9    S    
C98   C150  S    
C24   C52   A    
C149  O70   S    
C119  O51   A    
C88   C96   A    
Cr10  O18   S    
C123  O7    A    
C85   H9    S    
C74   C94   A    
O60   H60   S    
C48   O36   A    
C9    C25   A    
O54   H57   S    
C15   C19   A    
Cr4   O48   S    
C12   C28   A    
C97   C149  S    
C13   C29   A    
C6    C133  S    
Cr11  O39   S    
Cr1   O21   S    
C31   H39   S    
C32   H40   S    
C106  C110  A    
C155  O82   S    
C123  O11   A    
C130  H26   S    
C51   C91   S    
C2    O26   A    
O62   H61   S    
C22   C50   A    
O80   H70   S    
C73   C120  S    
C143  O57   D    
Cr10  O14   S    
C75   C118  S    
C121  O9    A    
C5    H29   S    
C48   O32   A    
C19   C43   A    
Cr2   O18   S    
C151  O74   S    
C91   O39   A    
C106  H18   S    
C43   H55   S    
O76   H68   S    
C76   C80   A    
O70   H65   S    
C53   C57   A    
Cr6   O18   S    
C93   C153  S    
C56   C60   A    
C70   H6    S    
C66   C146  S    
O72   H66   S    
C147  O65   D    
O66   H63   S    
C77   C81   A    
C128  O44   A    
C101  H13   S    
Cr5   O5    S    
C34   C40   A    
C81   C109  A    
Cr7   O31   S    
Cr12  O16   S    
C65   C145  S    
C133  H1    S    
C52   C92   S    
C146  O64   S    
C46   O34   A    
C131  C132  S    
C104  C108  A    
C25   H41   S    
C18   C50   A    
C55   C124  S    
Cr9   O37   S    
Cr4   O24   S    
C36   H48   S    
C57   C65   A    
C119  O47   A    
C21   H33   S    
C76   C117  S    
C126  O42   A    
Cr1   O45   S    
C36   C38   A    
C120  O52   A    
C47   O35   A    
C154  O79   D    
C134  H2    S    
C105  C109  A    
C90   O38   A    
C42   H54   S    
Cr12  O40   S    
C154  O80   S    
O82   H71   S    
C108  C112  A    
Cr10  O34   S    
C60   C68   A    
C67   C147  S    
C152  O75   D    
C22   C26   A    
C81   C113  A    
C130  C137  S    
C32   C34   A    
Cr7   O27   S    
C87   H11   S    
O78   H69   S    
Cr2   O42   S    
Cr9   O17   S    
C150  O71   D    
C14   C18   A    
C135  H3    S    
C153  O77   D    
C74   C119  S    
C33   C39   A    
C111  H23   S    
C82   C110  A    
C35   C37   A    
C38   C42   A    
C131  C135  S    
C136  H4    S    
C113  C125  S    
C44   H56   S    
C115  C127  S    
C6    C138  S    
C129  H25   S    
C86   C94   A    
C28   H44   S    
Cr12  O20   S    
C58   C66   A    
C129  C138  S    
C83   C111  A    
C156  O84   S    
Cr5   O29   S    
C78   C98   A    
C31   C33   A    
C86   H10   S    
C23   C27   A    
C118  O46   A    
C142  O55   D    
C127  O15   A    
C46   C138  S    
C10   C26   A    
Cr4   O44   S    
C80   C100  A    
Cr7   O51   S    
Cr9   O13   S    
C14   C30   A    
Cr1   O17   S    
C5    C134  S    
C117  O45   A    
C82   C114  A    
C124  O8    A    
C141  O54   S    
C131  H27   S    
Cr3   O3    S    
C146  O63   D    
C65   C71   A    
Cr8   O28   S    
C88   C116  A    
C120  O48   A    
C19   C51   A    
C104  H16   S    
C117  O49   A    
C53   C62   A    
C23   C51   A    
C33   H45   S    
C55   C64   A    
C45   C137  S    
C144  O59   D    
Cr10  O10   S    
C56   C63   A    
Cr9   O33   S    
C145  O62   S    
Cr2   O2    S    
C45   O33   A    
C54   C58   A    
C122  O10   A    
C49   C89   S    
C134  C138  S    
C126  O14   A    
C71   H7    S    
C72   H8    S    
C86   C114  A    
C39   H49   S    
C20   C52   A    
C3    C10   S    
C7    C139  S    
C8    H32   S    
Cr12  O12   S    
C96   C156  S    
C148  O68   S    
C102  C106  A    
C127  O43   A    
C46   O30   A    
C41   H53   S    
C155  O81   D    
C17   C41   A    
C1    O21   A    
C27   H43   S    
C102  H14   S    
C116  C128  S    
C68   C70   A    
Cr4   O20   S    
C97   C101  A    
