data_mof_unit_20463.cif
_audit_creation_date              2013-03-05T16:23:16-0500
_audit_creation_method            fapswitch 2.2
_symmetry_space_group_name_H-M    P1
_symmetry_Int_Tables_number       1
_space_group_crystal_system       triclinic
_cell_length_a                    27.473165
_cell_length_b                    10.519783
_cell_length_c                    9.852132
_cell_angle_alpha                 89.696592
_cell_angle_beta                  89.367449
_cell_angle_gamma                 90.488861
_cell_volume                      2847.06323478

loop_
_atom_site_label
_atom_site_type_symbol
_atom_site_description
_atom_site_fract_x
_atom_site_fract_y
_atom_site_fract_z
_atom_type_partial_charge
O1    O     O_R   0.500000 0.313960 0.616610 -0.580952
O2    O     O_R   0.500000 0.686040 0.383390 -0.583279
O3    O     O_R   0.500020 0.313950 0.383350 -0.577737
O4    O     O_R   0.499980 0.686050 0.616650 -0.575729
C1    C     C_R   0.500668 0.257878 0.500544 0.940315
C2    C     C_R   0.499294 0.742083 0.499421 0.908621
O5    O     O_R   0.428750 0.500030 0.616610 -0.577679
O6    O     O_R   0.571250 0.499970 0.383390 -0.604484
O7    O     O_R   0.428770 0.500020 0.383360 -0.609851
O8    O     O_R   0.571230 0.499980 0.616640 -0.580410
C3    C     C_R   0.406279 0.501235 0.500247 0.940992
C4    C     C_R   0.594186 0.499473 0.499181 0.901529
Zn1   Zn    Zn3+2 0.499990 0.500010 0.655740 1.092637
Zn2   Zn    Zn3+2 0.500010 0.499990 0.344260 1.062715
C5    C     C_R   0.182816 0.483008 0.353175 0.583516
C6    C     C_R   0.821878 0.635599 0.463871 0.591084
O9    O     O_2   0.210114 0.391495 0.295291 -0.498112
O10   O     O_2   0.794215 0.734488 0.503378 -0.506810
N1    N     N_R   0.204187 0.572599 0.433654 -0.339263
N2    N     N_R   0.800817 0.519329 0.441646 -0.332690
C7    C     C_R   0.178430 0.672361 0.484977 0.574491
C8    C     C_R   0.827299 0.419145 0.394174 0.575677
C9    C     C_R   0.288035 0.644993 0.409647 -0.087461
C10   C     C_R   0.720167 0.481991 0.351571 -0.098365
C11   C     C_R   0.337352 0.625201 0.424931 -0.230448
C12   C     C_R   0.670164 0.477228 0.366585 -0.161642
C13   C     C_R   0.320655 0.433349 0.558786 0.189422
C14   C     C_R   0.677431 0.516194 0.608866 0.187195
C15   C     C_R   0.270294 0.454597 0.544223 0.268518
C16   C     C_R   0.728593 0.517221 0.594095 0.280582
C17   C     C_R   0.254474 0.559525 0.466581 0.146859
C18   C     C_R   0.749525 0.503619 0.463566 0.131453
C19   C     C_R   0.104774 0.582437 0.390873 -0.045363
C20   C     C_R   0.900261 0.549820 0.399514 -0.046515
C21   C     C_R   0.132557 0.484429 0.332979 -0.032479
C22   C     C_R   0.872140 0.652235 0.446214 -0.033803
C23   C     C_R   0.109537 0.388493 0.259442 -0.092812
C24   C     C_R   0.894710 0.768420 0.474744 -0.100235
C25   C     C_R   0.128262 0.680150 0.462847 -0.035519
C26   C     C_R   0.877334 0.433203 0.369812 -0.031443
C27   C     C_R   0.353921 0.519560 0.497341 -0.168141
C28   C     C_R   0.647902 0.498029 0.493410 -0.222684
H1    H     H_    0.130296 0.314467 0.210048 0.204865
H2    H     H_    0.873680 0.849752 0.506974 0.202866
C29   C     C_R   0.978997 0.461160 0.332054 0.047628
C30   C     C_R   0.025897 0.682077 0.434898 0.044258
C31   C     C_R   0.974443 0.677184 0.427802 0.045355
C32   C     C_R   0.030142 0.474513 0.319860 0.043325
C33   C     C_R   0.951368 0.563180 0.385194 0.082723
C34   C     C_R   0.053450 0.580510 0.380399 0.082234
C35   C     C_R   0.954695 0.346433 0.299589 -0.199048
C36   C     C_R   0.050793 0.782042 0.500929 -0.201198
C37   C     C_R   0.904843 0.332619 0.319294 -0.110223
C38   C     C_R   0.101012 0.780291 0.515525 -0.106388
O11   O     O_2   0.805287 0.306040 0.371993 -0.520838
O12   O     O_2   0.201108 0.761781 0.559646 -0.507841
C39   C     C_R   0.059137 0.383230 0.253141 -0.202045
C40   C     C_R   0.945009 0.780796 0.466228 -0.204112
H3    H     H_    0.648880 0.457905 0.277338 0.236136
H4    H     H_    0.362892 0.691526 0.377765 0.179821
H5    H     H_    0.736289 0.470804 0.251547 0.206878
H6    H     H_    0.275775 0.724619 0.349250 0.188732
H7    H     H_    0.888023 0.241913 0.295945 0.196629
H8    H     H_    0.118293 0.856824 0.570805 0.204761
H9    H     H_    0.973561 0.263045 0.264963 0.147567
H10   H     H_    0.032259 0.859943 0.548994 0.151955
H11   H     H_    0.043827 0.306639 0.194664 0.152738
H12   H     H_    0.959817 0.873325 0.489226 0.148183
C41   C     C_3   0.508375 0.037916 0.626278 0.413882
C42   C     C_3   0.491581 0.961920 0.373470 0.398476
C43   C     C_3   0.543233 0.955854 0.541335 -0.233129
C44   C     C_3   0.456736 0.043970 0.458354 -0.207930
H13   H     H_    0.578330 0.915902 0.575751 0.219342
H14   H     H_    0.421667 0.083127 0.422928 0.236260
C45   C     C_3   0.499021 0.877193 0.497760 -0.168318
C46   C     C_3   0.500922 0.122697 0.502008 -0.161036
C47   C     C_3   0.464188 0.957104 0.583670 -0.185056
C48   C     C_3   0.535755 0.042773 0.416036 -0.200545
H15   H     H_    0.434811 0.919166 0.651120 0.229709
H16   H     H_    0.565091 0.080788 0.348494 0.225140
C49   C     C_3   0.498534 0.387184 0.047641 0.255709
C50   C     C_3   0.501487 0.612991 0.952429 0.279104
C51   C     C_3   0.537778 0.439172 0.949645 -0.246942
C52   C     C_3   0.462322 0.561098 0.050482 -0.268554
H17   H     H_    0.568824 0.387340 0.903784 0.241605
H18   H     H_    0.431035 0.612013 0.096482 0.218947
N3    N     N_3   0.499960 0.500030 0.863290 -0.192082
N4    N     N_3   0.500040 0.499970 0.136710 -0.191979
C53   C     C_3   0.461727 0.446721 0.954614 0.246941
C54   C     C_3   0.538335 0.553696 0.045699 0.271237
N5    N     N_R   0.337630 0.322911 0.630071 0.258222
O13   O     O_R   0.371682 0.252948 0.577297 -0.374769
O14   O     O_R   0.317023 0.287017 0.743649 -0.220964
N6    N     N_R   0.656105 0.531466 0.740796 0.244491
O15   O     O_R   0.635272 0.638049 0.772345 -0.272881
O16   O     O_R   0.663868 0.447016 0.834837 -0.316918
Br1   Br    Br    0.522480 0.090761 0.809641 -0.230586
Br2   Br    Br    0.477244 0.909295 0.190157 -0.251526
N7    N     N_R   0.495496 0.259531 0.103984 0.267657
O17   O     O_R   0.534803 0.192896 0.117797 -0.336545
O18   O     O_R   0.453959 0.214848 0.148256 -0.303637
N8    N     N_R   0.504096 0.740746 0.896195 0.265547
O19   O     O_R   0.464512 0.806053 0.881335 -0.338550
O20   O     O_R   0.545626 0.787465 0.854460 -0.276666
N9    N     N_R   0.418771 0.383903 0.901406 0.262449
O21   O     O_R   0.375802 0.428515 0.928738 -0.312684
O22   O     O_R   0.423001 0.277511 0.836061 -0.253494
N10   N     N_R   0.580806 0.618607 0.100020 0.254686
O23   O     O_R   0.624284 0.581663 0.066511 -0.303220
O24   O     O_R   0.575480 0.719257 0.174493 -0.305511
N11   N     N_R   0.235159 0.366444 0.600278 0.240242
O25   O     O_R   0.238376 0.245687 0.574004 -0.274830
O26   O     O_R   0.197325 0.407824 0.666640 -0.357045
N12   N     N_R   0.759231 0.534094 0.710273 0.241763
O27   O     O_R   0.749020 0.619530 0.801026 -0.261667
O28   O     O_R   0.798441 0.466840 0.723607 -0.361005

loop_
_geom_bond_atom_site_label_1
_geom_bond_atom_site_label_2
_geom_bond_distance
_ccdc_geom_bond_type
C51   N3    1.496089 S    
C10   H5    1.083331 S    
C42   C48   1.539328 S    
C41   C47   1.539489 S    
N11   O25   1.301328 A    
C44   C46   1.530568 S    
N1    C17   1.430197 S    
N12   O27   1.301216 A    
C32   C39   1.413129 A    
C31   C33   1.419387 A    
C5    N1    1.367624 A    
N9    O22   1.299543 A    
C19   C25   1.407964 A    
O1    C1    1.289519 A    
C46   C48   1.530849 S    
C21   C23   1.396552 A    
C10   C12   1.380523 A    
N2    C18   1.431273 S    
C48   H16   1.110017 S    
C25   C38   1.396529 A    
C13   C15   1.412167 A    
C29   C35   1.414118 A    
C50   N3    1.481943 S    
C30   C36   1.414811 A    
N10   O23   1.299016 A    
C41   C46   1.527552 S    
C14   N6    1.430220 S    
C35   H9    1.077766 S    
C14   C28   1.417245 A    
O4    Zn1   1.992633 S    
C41   C43   1.538419 S    
C4    C28   1.476430 S    
C24   C40   1.388434 A    
C9    H6    1.083111 S    
C13   N5    1.438160 S    
C11   H4    1.084492 S    
C16   C18   1.411376 A    
C12   H3    1.080541 S    
C6    N2    1.368345 A    
N6    O16   1.300784 A    
C49   C53   1.509971 S    
C32   C34   1.418609 A    
O2    C2    1.289024 A    
C39   H11   1.078198 S    
C5    C21   1.397415 A    
C49   C51   1.534597 S    
C36   C38   1.388998 A    
C47   H15   1.109997 S    
N8    O19   1.300477 A    
C2    C45   1.421427 S    
C44   H14   1.110132 S    
C11   C27   1.399487 A    
N5    O13   1.300883 A    
C43   H13   1.110854 S    
C49   N7    1.451757 S    
C19   C34   1.414919 A    
C35   C37   1.387446 A    
C9    C17   1.393644 A    
C23   H1    1.083503 S    
O5    C3    1.308119 A    
O7    Zn2   1.990561 S    
C10   C18   1.392464 A    
C24   H2    1.083496 S    
C44   C47   1.548580 S    
N5    O14   1.301192 A    
O7    C3    1.301038 A    
C13   C27   1.411404 A    
N7    O17   1.300482 A    
C7    C25   1.400810 A    
C29   C33   1.418861 A    
O6    C4    1.309327 A    
C8    C26   1.399242 A    
Zn1   N3    2.044801 S    
C50   N8    1.451858 S    
N11   O26   1.301206 A    
N8    O20   1.300141 A    
C45   C47   1.530453 S    
O3    Zn2   1.992635 S    
O8    C4    1.311843 A    
O4    C2    1.294296 A    
C51   H17   1.109493 S    
N4    C54   1.481202 S    
C50   C52   1.533105 S    
N3    C53   1.480224 S    
C20   C26   1.407864 A    
O1    Zn1   1.996817 S    
C52   C53   1.533675 S    
C36   H10   1.077508 S    
C12   C28   1.404101 A    
C16   N12   1.439094 S    
C29   C32   1.414660 A    
C40   H12   1.077937 S    
C5    O9    1.350221 S    
C51   C54   1.536006 S    
C30   C31   1.416621 A    
C20   C33   1.415309 A    
O6    Zn2   1.998971 S    
N7    O18   1.300424 A    
C15   N11   1.436737 S    
C52   N4    1.494665 S    
N2    C8    1.367336 A    
O3    C1    1.294138 A    
O8    Zn1   1.990564 S    
C7    O12   1.349690 S    
N12   O28   1.301283 A    
C8    O11   1.350035 S    
N9    O21   1.300033 A    
C30   C34   1.419074 A    
C50   C54   1.511148 S    
C1    C46   1.422152 S    
C22   C24   1.397114 A    
Zn2   N4    2.044802 S    
C15   C17   1.413865 A    
C6    C22   1.399265 A    
C31   C40   1.413484 A    
C43   C45   1.530521 S    
C37   H7    1.083563 S    
C38   H8    1.083531 S    
C14   C16   1.411443 A    
C19   C21   1.407479 A    
N10   O24   1.299741 A    
C3    C27   1.453499 S    
C20   C22   1.407443 A    
C9    C11   1.382296 A    
N6    O15   1.300794 A    
O2    Zn2   1.996815 S    
C49   N4    1.480034 S    
C54   N10   1.455401 S    
O5    Zn1   1.998965 S    
C6    O10   1.350009 S    
C26   C37   1.396224 A    
C53   N9    1.451976 S    
C42   C45   1.527327 S    
C52   H18   1.110362 S    
C42   C44   1.537825 S    
C43   C48   1.548882 S    
C23   C39   1.387367 A    
C42   Br2   1.935444 S    
N1    C7    1.366812 A    
C41   Br1   1.935234 S    
