data_mof_unit_66195.cif
_audit_creation_date              2013-03-05T17:02:37-0500
_audit_creation_method            fapswitch 2.2
_symmetry_space_group_name_H-M    P1
_symmetry_Int_Tables_number       1
_space_group_crystal_system       triclinic
_cell_length_a                    16.245326
_cell_length_b                    16.489479
_cell_length_c                    19.236893
_cell_angle_alpha                 91.577904
_cell_angle_beta                  93.681198
_cell_angle_gamma                 86.714934
_cell_volume                      5132.5659051

loop_
_atom_site_label
_atom_site_type_symbol
_atom_site_description
_atom_site_fract_x
_atom_site_fract_y
_atom_site_fract_z
_atom_type_partial_charge
O1    O     O_R   0.422540 0.612660 0.496960 -0.570916
O2    O     O_R   0.577460 0.387340 0.503040 -0.572192
O3    O     O_R   0.561840 0.618900 0.502420 -0.565632
O4    O     O_R   0.438160 0.381100 0.497580 -0.569895
C1    C     C_R   0.487855 0.653176 0.498611 0.942872
C2    C     C_R   0.511976 0.346841 0.500794 0.929064
O5    O     O_R   0.430320 0.496890 0.599130 -0.562697
O6    O     O_R   0.569680 0.503110 0.400870 -0.570238
O7    O     O_R   0.569630 0.503130 0.604590 -0.550276
O8    O     O_R   0.430370 0.496870 0.395410 -0.561099
C3    C     C_R   0.501125 0.496197 0.634907 0.925384
C4    C     C_R   0.499147 0.502078 0.365210 0.926558
Zn1   Zn    Zn3+2 0.406980 0.495830 0.496350 1.135807
Zn2   Zn    Zn3+2 0.593020 0.504170 0.503650 1.135357
C5    C     C_R   0.431031 0.463222 0.742760 0.312815
C6    C     C_R   0.564263 0.543036 0.257740 0.320512
C7    C     C_R   0.431012 0.458069 0.815363 0.039063
C8    C     C_R   0.565324 0.544849 0.184926 0.035510
C9    C     C_R   0.504564 0.469338 0.856119 -0.009302
C10   C     C_R   0.498517 0.514913 0.143732 -0.007404
C11   C     C_R   0.579353 0.479587 0.825529 0.045834
C12   C     C_R   0.429074 0.487016 0.173665 0.055832
C13   C     C_R   0.578693 0.489613 0.753242 0.317517
C14   C     C_R   0.429354 0.482321 0.246286 0.293009
C15   C     C_R   0.503809 0.483350 0.711172 -0.326304
C16   C     C_R   0.497225 0.509592 0.288837 -0.319715
N1    N     N_R   0.470350 0.551195 0.957649 -0.146948
N2    N     N_R   0.534934 0.433767 0.042521 -0.145936
N3    N     N_R   0.470622 0.563335 0.026117 -0.148012
N4    N     N_R   0.534581 0.421598 0.974057 -0.152031
C17   C     C_R   0.503487 0.504915 0.069226 0.310554
C18   C     C_R   0.502123 0.480176 0.930899 0.310943
C19   C     C_R   0.475475 0.740756 0.500199 -0.165736
C20   C     C_R   0.523398 0.259270 0.500419 -0.154761
C21   C     C_R   0.478215 0.783954 0.564724 0.111648
C22   C     C_R   0.521984 0.214614 0.436685 0.098729
C23   C     C_R   0.465192 0.869047 0.564863 0.154583
C24   C     C_R   0.534427 0.129474 0.438230 0.151907
C25   C     C_R   0.451469 0.908876 0.500844 0.238181
C26   C     C_R   0.545896 0.091112 0.503134 0.240099
C27   C     C_R   0.438256 0.864912 0.437937 0.027436
C28   C     C_R   0.556047 0.136559 0.565614 0.030154
C29   C     C_R   0.451469 0.780169 0.437385 0.268586
C30   C     C_R   0.543024 0.221090 0.564313 0.271447
N5    N     N_2   0.461506 0.992703 0.498210 -0.149743
N6    N     N_2   0.535928 0.007366 0.506618 -0.150250
N7    N     N_R   0.716910 0.509720 0.508510 -0.211399
N8    N     N_R   0.283090 0.490280 0.491490 -0.212315
C31   C     C_R   0.763181 0.449432 0.476069 0.294927
C32   C     C_R   0.235289 0.556763 0.512750 0.297604
C33   C     C_R   0.848763 0.456399 0.468759 0.137966
C34   C     C_R   0.148164 0.554990 0.512688 0.143200
C35   C     C_R   0.888736 0.523900 0.499270 0.139475
C36   C     C_R   0.108455 0.483333 0.491464 0.134718
C37   C     C_R   0.840772 0.584109 0.533758 -0.101978
C38   C     C_R   0.158141 0.415603 0.470581 -0.086707
C39   C     C_R   0.754349 0.577363 0.535771 0.410181
C40   C     C_R   0.245215 0.419840 0.471643 0.412130
N9    N     N_2   0.975085 0.536076 0.493573 -0.057793
N10   N     N_2   0.021403 0.472923 0.496153 -0.086811
N11   N     N_R   0.356851 0.446244 0.701565 0.230820
O9    O     O_R   0.352491 0.378176 0.666035 -0.308760
O10   O     O_R   0.291819 0.495907 0.703482 -0.335820
N12   N     N_R   0.631555 0.575713 0.299690 0.231534
O11   O     O_R   0.619108 0.640300 0.338786 -0.320005
O12   O     O_R   0.705486 0.541095 0.298694 -0.331382
N13   N     N_R   0.102188 0.624544 0.538944 0.236394
O13   O     O_R   0.104856 0.640215 0.605658 -0.319571
O14   O     O_R   0.071498 0.679708 0.496098 -0.318249
N14   N     N_R   0.892218 0.399155 0.424952 0.240501
O15   O     O_R   0.924812 0.423962 0.369836 -0.324983
O16   O     O_R   0.895000 0.321878 0.437384 -0.311907
C41   C     C_3   0.883195 0.655120 0.568741 -0.572154
H1    H     H_    0.842229 0.694079 0.601185 0.253917
H2    H     H_    0.935468 0.632182 0.604179 0.258503
H3    H     H_    0.907046 0.693182 0.528652 0.273931
C42   C     C_3   0.116652 0.338564 0.447365 -0.575246
H4    H     H_    0.159902 0.289098 0.429604 0.258069
H5    H     H_    0.083677 0.315532 0.490963 0.251381
H6    H     H_    0.071557 0.351804 0.402839 0.275575
N15   N     N_R   0.705489 0.644916 0.561724 0.227493
O17   O     O_R   0.667119 0.638903 0.618253 -0.342338
O18   O     O_R   0.703564 0.714587 0.531277 -0.367549
N16   N     N_R   0.293581 0.347597 0.456046 0.225298
O19   O     O_R   0.315359 0.333242 0.392955 -0.328958
O20   O     O_R   0.300982 0.289175 0.500558 -0.354797
C43   C     C_3   0.352104 0.438769 0.848114 -0.704853
H7    H     H_    0.360956 0.427198 0.904662 0.220712
H8    H     H_    0.305503 0.490218 0.840887 0.266796
H9    H     H_    0.327224 0.383003 0.823132 0.265199
C44   C     C_3   0.637857 0.579732 0.152475 -0.701222
H10   H     H_    0.628663 0.586191 0.095279 0.221494
H11   H     H_    0.648130 0.641347 0.174968 0.264346
H12   H     H_    0.694333 0.539774 0.163032 0.270039
C45   C     C_3   0.659229 0.481447 0.871119 -0.702739
H13   H     H_    0.715348 0.481538 0.841398 0.279876
H14   H     H_    0.657552 0.536043 0.906218 0.235316
H15   H     H_    0.666973 0.426109 0.902947 0.239819
C46   C     C_3   0.355664 0.460838 0.127159 -0.709620
H16   H     H_    0.301452 0.447652 0.156187 0.283231
H17   H     H_    0.334658 0.510293 0.091058 0.234799
H18   H     H_    0.373763 0.405568 0.096238 0.237677
N17   N     N_R   0.653458 0.510643 0.724114 0.235678
O21   O     O_R   0.686457 0.578025 0.744566 -0.346507
O22   O     O_R   0.698529 0.454657 0.693109 -0.305896
N18   N     N_R   0.363910 0.443076 0.275838 0.227180
O23   O     O_R   0.356918 0.365704 0.263625 -0.358481
O24   O     O_R   0.301224 0.486783 0.298022 -0.315506
C47   C     C_3   0.507674 0.256290 0.367172 -0.657012
H19   H     H_    0.452978 0.232150 0.337769 0.269541
H20   H     H_    0.496262 0.322966 0.371900 0.220359
H21   H     H_    0.562741 0.245104 0.336258 0.242097
C48   C     C_3   0.493656 0.740764 0.633469 -0.670994
H22   H     H_    0.549702 0.763216 0.662067 0.260176
H23   H     H_    0.439809 0.752463 0.665720 0.241641
H24   H     H_    0.502942 0.674002 0.627728 0.224645
C49   C     C_3   0.535280 0.079597 0.370989 -0.809790
H25   H     H_    0.552078 0.014417 0.379724 0.258242
H26   H     H_    0.473570 0.084853 0.342694 0.243378
H27   H     H_    0.582183 0.101434 0.337549 0.255763
C50   C     C_3   0.465505 0.917306 0.632965 -0.813725
H28   H     H_    0.448281 0.982620 0.625501 0.258318
H29   H     H_    0.419299 0.894573 0.666612 0.254834
H30   H     H_    0.527663 0.911535 0.660442 0.242906
C51   C     C_3   0.409626 0.908077 0.371649 -0.710444
H31   H     H_    0.389392 0.972514 0.381548 0.236135
H32   H     H_    0.460270 0.906141 0.335506 0.260486
H33   H     H_    0.355656 0.878284 0.346046 0.270626
C52   C     C_3   0.580941 0.095543 0.633626 -0.723579
H34   H     H_    0.600937 0.030681 0.625902 0.236576
H35   H     H_    0.634163 0.125605 0.660214 0.268154
H36   H     H_    0.528495 0.099680 0.667998 0.261954
N19   N     N_R   0.439790 0.734004 0.373275 0.205366
O25   O     O_R   0.478963 0.750985 0.319080 -0.346984
O26   O     O_R   0.383495 0.680837 0.366745 -0.340437
N20   N     N_R   0.549975 0.268470 0.627940 0.194976
O27   O     O_R   0.500467 0.258413 0.677137 -0.350544
O28   O     O_R   0.610410 0.316485 0.639091 -0.337689
N21   N     N_R   0.273365 0.628086 0.539452 0.259433
O29   O     O_R   0.309875 0.628201 0.601613 -0.329277
O30   O     O_R   0.258363 0.696566 0.507786 -0.311302
N22   N     N_R   0.723754 0.381357 0.444319 0.256995
O31   O     O_R   0.698966 0.382944 0.378721 -0.332464
O32   O     O_R   0.729110 0.312450 0.476106 -0.320910

loop_
_geom_bond_atom_site_label_1
_geom_bond_atom_site_label_2
_geom_bond_distance
_ccdc_geom_bond_type
C30   N20   1.435606 S    
C24   C26   1.412053 A    
C43   H7    1.108422 S    
N1    N3    1.326557 A    
C27   C29   1.401397 A    
C41   H1    1.107866 S    
C45   H13   1.106875 S    
N15   O17   1.296520 A    
C35   N9    1.439906 S    
C45   H15   1.109541 S    
N7    C31   1.372290 A    
C36   N10   1.443115 S    
C42   H4    1.107015 S    
C26   N6    1.403497 S    
O1    C1    1.284116 A    
C8    C44   1.516886 S    
C21   C23   1.406905 A    
N16   O20   1.301782 A    
C52   H34   1.108672 S    
C49   H26   1.109651 S    
C5    C15   1.423223 A    
N7    C39   1.376081 A    
N18   O23   1.300954 A    
C3    C15   1.485610 S    
N11   O10   1.300887 A    
O4    Zn1   1.930616 S    
C29   N19   1.439181 S    
C50   H30   1.109647 S    
C7    C9    1.405012 A    
C24   C49   1.513999 S    
C13   N17   1.433808 S    
C31   C33   1.417823 A    
C1    C19   1.446378 S    
C51   H33   1.110502 S    
C32   C34   1.417264 A    
N14   O15   1.301018 A    
C33   N14   1.433778 S    
C20   C22   1.412277 A    
C25   N5    1.403774 S    
C52   H36   1.109468 S    
N8    C32   1.374998 A    
N9    N10   1.249531 D    
N3    C17   1.352375 A    
C41   H2    1.109942 S    
O2    C2    1.285868 A    
C28   C30   1.398472 A    
C9    C18   1.447508 S    
N15   O18   1.301707 A    
C34   C36   1.416307 A    
C35   C37   1.405136 A    
C11   C13   1.404164 A    
C6    C16   1.420802 A    
C36   C38   1.404930 A    
N13   O13   1.300612 A    
C19   C29   1.410049 A    
C27   C51   1.511592 S    
C20   C30   1.406428 A    
N16   O19   1.297669 A    
O4    C2    1.294496 A    
C47   H21   1.109645 S    
C44   H10   1.108049 S    
C32   N21   1.427923 S    
C11   C45   1.520151 S    
N5    N6    1.246009 D    
C38   C42   1.515167 S    
C2    C20   1.445164 S    
C4    C16   1.475970 S    
C33   C35   1.415280 A    
N12   O12   1.300957 A    
O5    C3    1.301597 A    
O7    Zn2   2.003116 S    
C40   N16   1.424695 S    
C44   H11   1.110539 S    
C46   H16   1.107473 S    
O6    C4    1.297869 A    
C31   N22   1.427494 S    
C5    N11   1.436096 S    
C42   H5    1.110474 S    
N17   O22   1.300915 A    
C52   H35   1.110519 S    
O7    C3    1.301271 A    
C50   H28   1.107987 S    
O3    Zn2   1.930617 S    
O8    C4    1.300139 A    
C23   C50   1.513862 S    
N20   O28   1.299797 A    
C46   H17   1.110235 S    
C10   C12   1.404753 A    
C37   C39   1.417783 A    
C51   H31   1.109123 S    
C41   H3    1.109813 S    
C12   C14   1.400978 A    
C49   H27   1.109590 S    
O1    Zn1   1.956909 S    
C22   C24   1.407736 A    
C22   C47   1.518817 S    
N22   O32   1.301011 A    
N19   O26   1.300698 A    
C48   H22   1.109865 S    
C42   H6    1.108792 S    
C5    C7    1.401598 A    
O6    Zn2   1.988935 S    
C12   C46   1.519736 S    
C9    C11   1.404198 A    
N1    C18   1.354345 A    
C7    C43   1.517549 S    
N2    C17   1.353910 A    
C14   C16   1.417253 A    
N20   O27   1.300656 A    
O3    C1    1.297119 A    
O8    Zn1   2.003116 S    
Zn1   N8    2.016007 S    
N21   O29   1.300235 A    
C45   H14   1.110469 S    
N8    C40   1.378698 A    
Zn2   N7    2.016007 S    
N12   O11   1.300570 A    
C48   H24   1.106020 S    
C47   H20   1.106680 S    
N2    N4    1.326457 A    
C23   C25   1.410739 A    
C49   H25   1.108286 S    
C44   H12   1.109619 S    
N4    C18   1.352745 A    
N21   O30   1.301094 A    
N19   O25   1.300756 A    
N18   O24   1.301287 A    
C34   N13   1.430643 S    
C26   C28   1.404450 A    
C19   C21   1.413496 A    
C38   C40   1.419066 A    
C21   C48   1.519136 S    
C28   C52   1.510693 S    
C8    C10   1.406759 A    
C13   C15   1.424400 A    
N11   O9    1.301002 A    
O2    Zn2   1.956908 S    
C39   N15   1.427951 S    
C50   H29   1.109470 S    
C37   C41   1.512773 S    
O5    Zn1   1.988935 S    
C46   H18   1.110294 S    
C14   N18   1.431427 S    
C25   C27   1.404357 A    
C6    C8    1.403070 A    
C43   H9    1.110495 S    
N17   O21   1.301465 A    
C51   H32   1.109294 S    
C43   H8    1.109756 S    
N22   O31   1.300230 A    
N14   O16   1.300677 A    
C6    N12   1.437666 S    
N13   O14   1.300725 A    
C47   H19   1.109734 S    
C48   H23   1.109545 S    
C10   C17   1.445085 S    
