data_mof_unit_34957.cif
_audit_creation_date              2013-03-05T16:05:42-0500
_audit_creation_method            fapswitch 2.2
_symmetry_space_group_name_H-M    P1
_symmetry_Int_Tables_number       1
_space_group_crystal_system       triclinic
_cell_length_a                    26.145918
_cell_length_b                    7.188516
_cell_length_c                    23.898946
_cell_angle_alpha                 89.986148
_cell_angle_beta                  101.424706
_cell_angle_gamma                 89.980759
_cell_volume                      4402.81331045

loop_
_atom_site_label
_atom_site_type_symbol
_atom_site_description
_atom_site_fract_x
_atom_site_fract_y
_atom_site_fract_z
_atom_type_partial_charge
O1    O     O_R   0.547620 0.505720 0.453310 -0.592163
O2    O     O_R   0.452380 0.005720 0.546690 -0.592318
O3    O     O_R   0.442260 0.172470 0.436770 -0.571309
O4    O     O_R   0.557740 0.672470 0.563230 -0.566124
C1    C     C_R   0.076190 0.468034 0.078631 0.961466
C2    C     C_R   0.923800 0.968112 0.921365 0.961345
C3    C     C_R   0.424027 0.344533 0.421692 0.937483
C4    C     C_R   0.575976 0.844429 0.578323 0.934756
O5    O     O_R   0.546600 0.175780 0.446490 -0.592117
O6    O     O_R   0.453400 0.675780 0.553510 -0.591628
O7    O     O_R   0.557460 0.008970 0.556480 -0.581328
O8    O     O_R   0.442540 0.508970 0.443520 -0.576904
C5    C     C_R   0.562241 0.344791 0.434215 0.957471
C6    C     C_R   0.437751 0.844798 0.565777 0.959044
O9    O     O_R   0.047630 0.803580 0.953300 -0.592211
O10   O     O_R   0.952370 0.303580 0.046700 -0.592207
O11   O     O_3   0.503440 0.340340 0.536080 -0.278474
O12   O     O_3   0.496560 0.840340 0.463920 -0.278605
V1    V     V_3+5 0.499360 0.064140 0.493310 1.216625
V2    V     V_3+5 0.500640 0.564140 0.506690 1.221046
O13   O     O_R   0.057730 0.636870 0.063240 -0.581731
O14   O     O_R   0.942270 0.136870 0.936760 -0.581281
O15   O     O_3   0.996540 0.468950 0.963950 -0.279271
O16   O     O_3   0.003460 0.968950 0.036050 -0.279728
C7    C     C_R   0.122057 0.780447 0.884253 -0.142596
C8    C     C_R   0.877967 0.280485 0.115766 -0.142322
C9    C     C_R   0.157447 0.767871 0.847485 -0.111723
C10   C     C_R   0.842570 0.267919 0.152525 -0.111478
H1    H     H_    0.173478 0.633264 0.839960 0.118323
H2    H     H_    0.826564 0.133317 0.160072 0.118376
C11   C     C_R   0.171550 0.926817 0.820035 0.176810
C12   C     C_R   0.828427 0.426866 0.179940 0.176668
C13   C     C_R   0.150242 0.099594 0.830833 -0.059536
C14   C     C_R   0.849705 0.599637 0.169114 -0.059142
H3    H     H_    0.161043 0.224495 0.810606 0.120540
H4    H     H_    0.838874 0.724541 0.189312 0.120485
C15   C     C_R   0.114960 0.112664 0.867903 -0.145595
C16   C     C_R   0.884996 0.612696 0.132054 -0.145468
C17   C     C_R   0.100167 0.952966 0.894997 -0.129222
C18   C     C_R   0.899826 0.452995 0.104995 -0.129341
C19   C     C_R   0.259048 0.838158 0.802189 -0.194790
C20   C     C_R   0.740951 0.338092 0.197789 -0.194480
H5    H     H_    0.269280 0.790257 0.845965 0.150046
H6    H     H_    0.730748 0.290103 0.154030 0.150340
C21   C     C_R   0.296611 0.829291 0.767954 -0.043721
C22   C     C_R   0.703379 0.329210 0.232013 -0.043550
H7    H     H_    0.334926 0.773667 0.785564 0.154874
H8    H     H_    0.665089 0.273486 0.214414 0.154985
C23   C     C_R   0.285073 0.893914 0.711628 0.099994
C24   C     C_R   0.714878 0.393950 0.288315 0.099909
C25   C     C_R   0.235079 0.963780 0.689433 -0.151755
C26   C     C_R   0.764843 0.463930 0.310499 -0.152364
C27   C     C_R   0.196703 0.973118 0.723279 0.333878
C28   C     C_R   0.803227 0.473276 0.276664 0.334133
C29   C     C_R   0.209121 0.911807 0.780878 -0.084501
C30   C     C_R   0.790847 0.411861 0.219087 -0.084599
C31   C     C_R   0.331240 0.720144 0.647002 -0.071064
C32   C     C_R   0.668707 0.220086 0.352915 -0.071149
C33   C     C_R   0.368339 0.704569 0.612344 -0.056860
C34   C     C_R   0.631621 0.204499 0.387588 -0.062026
H9    H     H_    0.371563 0.574240 0.590576 0.149788
H10   H     H_    0.628402 0.074115 0.409343 0.148346
C35   C     C_R   0.399916 0.856683 0.604800 -0.187777
C36   C     C_R   0.600056 0.356672 0.395168 -0.186181
C37   C     C_R   0.394317 0.023374 0.633899 -0.242555
C38   C     C_R   0.605643 0.523422 0.366076 -0.242365
H11   H     H_    0.418767 0.141213 0.628765 0.184545
H12   H     H_    0.581194 0.641297 0.371230 0.184501
C39   C     C_R   0.357597 0.041109 0.669587 0.382401
C40   C     C_R   0.642345 0.541172 0.330368 0.381855
C41   C     C_R   0.325089 0.886974 0.675540 -0.084408
C42   C     C_R   0.674855 0.386986 0.324394 -0.084012
C43   C     C_3   0.757404 0.762996 0.804956 -0.489613
C44   C     C_3   0.243402 0.269168 0.194835 -0.480525
C45   C     C_3   0.760632 0.103937 0.781967 -0.362685
C46   C     C_3   0.238190 0.608176 0.219099 -0.368044
C47   C     C_3   0.712870 0.083648 0.732034 -0.329570
C48   C     C_3   0.288135 0.586832 0.266445 -0.335411
H13   H     H_    0.747917 0.788058 0.847678 0.211402
H14   H     H_    0.255235 0.304343 0.153893 0.213945
H15   H     H_    0.785422 0.221560 0.772890 0.203015
H16   H     H_    0.213149 0.720274 0.231306 0.206290
H17   H     H_    0.676743 0.121629 0.747119 0.220562
H18   H     H_    0.323323 0.617366 0.248717 0.229632
H19   H     H_    0.715037 0.188201 0.698572 0.236017
H20   H     H_    0.288154 0.695248 0.299593 0.222560
C49   C     C_1   0.621867 0.854498 0.623933 -0.156586
C50   C     C_1   0.378083 0.355278 0.376191 -0.154242
C51   C     C_3   0.792972 0.921865 0.790441 0.243092
C52   C     C_3   0.206890 0.423374 0.209765 0.243861
C53   C     C_3   0.706595 0.744761 0.757982 0.222329
C54   C     C_3   0.291952 0.243763 0.244112 0.212221
C55   C     C_3   0.708748 0.881918 0.707274 -0.098909
C56   C     C_3   0.291021 0.388312 0.293323 -0.096897
C57   C     C_3   0.760114 0.832884 0.683910 0.494434
C58   C     C_3   0.239342 0.362684 0.318357 0.494042
C59   C     C_3   0.809282 0.875814 0.732911 -0.497084
C60   C     C_3   0.190659 0.367712 0.266596 -0.507854
C61   C     C_1   0.660663 0.865816 0.661544 0.118132
C62   C     C_1   0.339206 0.368696 0.338772 0.121440
C63   C     C_1   0.839957 0.943492 0.837118 0.012708
C64   C     C_1   0.159960 0.443627 0.162953 0.010638
C65   C     C_1   0.878229 0.957332 0.875325 -0.258016
C66   C     C_1   0.121726 0.457122 0.124692 -0.259949
H21   H     H_    0.831670 0.996076 0.721038 0.219388
H22   H     H_    0.159132 0.461812 0.274160 0.222011
H23   H     H_    0.705222 0.599759 0.741430 0.109600
H24   H     H_    0.289963 0.102055 0.261745 0.127010
V3    V     V_3+5 0.000640 0.745210 0.006690 1.170878
V4    V     V_3+5 0.999360 0.245210 0.993310 1.171190
O17   O     O_R   0.057440 0.306950 0.056520 -0.581825
O18   O     O_R   0.942560 0.806950 0.943480 -0.581417
O19   O     O_R   0.953390 0.633680 0.053510 -0.594847
O20   O     O_R   0.046610 0.133680 0.946490 -0.594816
C67   C     C_R   0.937619 0.464619 0.065740 0.916866
C68   C     C_R   0.062380 0.964607 0.934258 0.916703
H25   H     H_    0.112005 0.654233 0.904340 0.134729
H26   H     H_    0.888047 0.154268 0.095707 0.134789
N1    N     N_R   0.355057 0.214193 0.699669 0.228891
O21   O     O_R   0.394371 0.328749 0.707221 -0.395539
O22   O     O_R   0.313198 0.263687 0.717529 -0.416101
N2    N     N_R   0.644856 0.714313 0.300282 0.228871
O23   O     O_R   0.605548 0.828998 0.292790 -0.395056
O24   O     O_R   0.686670 0.763682 0.282326 -0.416091
N3    N     N_R   0.659413 0.770608 0.781929 0.252238
O25   O     O_R   0.656001 0.904537 0.817664 -0.375429
O26   O     O_R   0.622061 0.648377 0.771186 -0.359738
N4    N     N_R   0.340775 0.251488 0.222368 0.250038
O27   O     O_R   0.349406 0.383241 0.188037 -0.372143
O28   O     O_R   0.374376 0.116464 0.233939 -0.365922
H27   H     H_    0.746963 0.138898 0.821929 0.193874
H28   H     H_    0.249545 0.651850 0.178580 0.184685
H29   H     H_    0.838285 0.761348 0.739579 0.214881
H30   H     H_    0.171233 0.229635 0.260453 0.206419
N5    N     N_R   0.758736 0.632796 0.667606 0.235214
O29   O     O_R   0.721308 0.570308 0.627805 -0.350168
O30   O     O_R   0.792983 0.513856 0.693479 -0.391142
N6    N     N_R   0.239934 0.182666 0.348872 0.228167
O31   O     O_R   0.243584 0.178111 0.403986 -0.283358
O32   O     O_R   0.232086 0.026196 0.321109 -0.414956
H31   H     H_    0.779272 0.629229 0.808253 0.168893
H32   H     H_    0.221768 0.135137 0.187555 0.159744
N7    N     N_R   0.763560 0.946045 0.632893 0.234566
O33   O     O_R   0.772859 0.123855 0.637051 -0.332300
O34   O     O_R   0.762269 0.867243 0.583581 -0.294860
N8    N     N_R   0.235982 0.515870 0.359456 0.254719
O35   O     O_R   0.197726 0.635076 0.351320 -0.312310
O36   O     O_R   0.272553 0.536360 0.404705 -0.347371
H33   H     H_    0.099201 0.247902 0.875124 0.136842
H34   H     H_    0.900730 0.747927 0.124812 0.136728
H35   H     H_    0.225975 0.009974 0.645423 0.181327
H36   H     H_    0.773919 0.510204 0.354492 0.180863
N9    N     N_R   0.145397 0.039826 0.698062 0.239260
O37   O     O_R   0.139367 0.159344 0.656358 -0.326215
O38   O     O_R   0.104143 0.965198 0.711554 -0.343764
N10   N     N_R   0.854505 0.540093 0.301874 0.239193
O39   O     O_R   0.860478 0.659731 0.343522 -0.326402
O40   O     O_R   0.895792 0.465464 0.288437 -0.343673
H37   H     H_    0.306891 0.601280 0.651417 0.183994
H38   H     H_    0.693054 0.101180 0.348480 0.183882

loop_
_geom_bond_atom_site_label_1
_geom_bond_atom_site_label_2
_geom_bond_distance
_ccdc_geom_bond_type
C16   H34   1.082865 S    
C38   H12   1.082907 S    
C35   C37   1.407670 A    
C27   N9    1.439355 S    
C9    H1    1.083524 S    
O9    V3    1.983613 S    
C59   H29   1.108670 S    
O4    C4    1.348311 A    
C32   C42   1.404640 A    
N4    O27   1.301644 A    
O10   V4    1.983569 S    
N5    O29   1.302296 A    
C43   H31   1.113331 S    
C57   N7    1.483057 S    
O7    V1    1.958271 S    
N10   O39   1.301394 A    
C16   C18   1.409214 A    
C46   C48   1.556791 S    
O3    C3    1.348452 A    
C28   N10   1.439347 S    
C31   C33   1.399177 A    
C18   C67   1.493570 S    
C47   H17   1.109726 S    
C32   C34   1.399186 A    
N7    O33   1.301326 A    
C2    O14   1.330588 A    
O11   V2    1.750977 S    
C34   H10   1.083072 S    
O12   V1    1.751335 S    
C20   C22   1.398727 A    
C44   C54   1.561774 S    
C39   C41   1.420838 A    
C24   C42   1.482737 S    
V4    O17   1.969021 S    
C52   C64   1.494791 S    
O5    C5    1.333069 A    
C20   C30   1.407025 A    
C54   H24   1.107475 S    
C19   C29   1.407015 A    
O5    V1    1.992333 S    
O6    V2    1.992217 S    
C37   H11   1.082912 S    
C58   C60   1.589953 S    
C24   C26   1.402477 A    
C11   C13   1.405785 A    
O3    V1    1.964861 S    
C21   C23   1.399144 A    
N9    O38   1.301253 A    
C55   C61   1.498098 S    
C49   C61   1.217528 T    
V3    O19   1.992205 S    
C59   H21   1.112010 S    
C48   H20   1.111345 S    
C21   H7    1.083134 S    
C44   H32   1.113542 S    
C1    C66   1.454672 S    
C47   H19   1.106939 S    
C63   C65   1.217825 T    
C44   H14   1.112158 S    
C19   H5    1.083308 S    
C20   H6    1.083308 S    
C54   N4    1.471531 S    
C57   N5    1.488851 S    
C8    C10   1.399480 A    
C45   H27   1.112765 S    
C22   C24   1.399144 A    
N8    O36   1.302278 A    
C27   C29   1.420256 A    
C3    O8    1.343255 A    
C28   C30   1.420252 A    
C33   H9    1.083074 S    
C9    C11   1.402721 A    
C53   H23   1.113042 S    
C10   C12   1.402713 A    
C43   C53   1.565767 S    
O6    C6    1.333012 A    
V3    O18   1.968625 S    
C46   H16   1.112894 S    
C45   H15   1.112689 S    
C1    O17   1.326080 A    
C23   C25   1.402472 A    
C12   C14   1.405789 A    
C39   N1    1.445213 S    
C13   C15   1.403007 A    
C51   C59   1.553755 S    
C25   C27   1.409645 A    
C36   C38   1.407676 A    
C56   C58   1.593103 S    
C53   C55   1.571752 S    
O14   V4    1.965506 S    
C40   N2    1.445247 S    
O20   C68   1.334241 A    
C3    C50   1.453918 S    
C56   C62   1.498192 S    
C26   H36   1.083423 S    
O8    V2    1.958630 S    
C54   C56   1.573335 S    
C43   H13   1.112144 S    
C26   C28   1.409638 A    
C2    C65   1.455014 S    
C31   C41   1.404629 A    
C64   C66   1.217630 T    
C45   C47   1.553903 S    
C50   C62   1.217376 T    
N1    O22   1.300545 A    
N6    O32   1.301560 A    
N3    O25   1.301816 A    
N5    O30   1.301930 A    
O1    C5    1.327313 A    
N2    O24   1.300542 A    
O10   C67   1.328681 A    
C47   C55   1.562032 S    
N8    O35   1.301871 A    
C7    H25   1.082873 S    
N7    O34   1.302120 A    
O15   V4    1.750279 S    
V4    O20   1.992090 S    
O1    V2    1.983268 S    
C53   N3    1.470864 S    
C51   C63   1.495009 S    
O2    V1    1.983309 S    
C14   C16   1.403019 A    
C2    O18   1.326160 A    
O16   V3    1.750637 S    
C8    H26   1.082862 S    
C15   H33   1.082877 S    
N4    O28   1.301326 A    
O13   V3    1.964853 S    
N1    O21   1.301700 A    
C57   C59   1.588484 S    
C7    C9    1.399491 A    
C58   N8    1.489872 S    
C60   H30   1.111569 S    
C33   C35   1.403324 A    
C60   H22   1.108352 S    
C34   C36   1.403311 A    
C4    C49   1.454309 S    
C44   C52   1.549797 S    
N10   O40   1.301259 A    
N2    O23   1.301699 A    
C43   C51   1.554894 S    
C15   C17   1.409224 A    
C32   H38   1.083275 S    
C7    C17   1.410452 A    
C58   N6    1.483821 S    
C46   H28   1.112752 S    
C8    C18   1.410448 A    
C38   C40   1.410608 A    
C5    C36   1.490354 S    
C48   C56   1.560482 S    
C4    O7    1.343549 A    
C37   C39   1.410601 A    
C6    C35   1.490325 S    
C10   H2    1.083514 S    
C13   H3    1.083329 S    
C52   C60   1.553414 S    
C14   H4    1.083317 S    
C31   H37   1.083274 S    
O2    C6    1.327291 A    
N6    O31   1.302034 A    
C45   C51   1.549289 S    
C25   H35   1.083423 S    
O4    V2    1.965514 S    
C22   H8    1.083135 S    
C48   H18   1.108440 S    
C1    O13   1.330544 A    
C55   C57   1.592666 S    
C17   C68   1.493562 S    
C23   C41   1.482719 S    
N3    O26   1.301189 A    
C19   C21   1.398723 A    
O9    C68   1.328653 A    
C40   C42   1.420865 A    
C11   C29   1.488784 S    
N9    O37   1.301397 A    
C12   C30   1.488810 S    
C46   C52   1.553316 S    
O19   C67   1.334291 A    
