data_mof_unit_23271.cif
_audit_creation_date              2013-03-05T16:10:11-0500
_audit_creation_method            fapswitch 2.2
_symmetry_space_group_name_H-M    P1
_symmetry_Int_Tables_number       1
_space_group_crystal_system       triclinic
_cell_length_a                    15.087434
_cell_length_b                    7.261631
_cell_length_c                    13.156289
_cell_angle_alpha                 89.993573
_cell_angle_beta                  100.276229
_cell_angle_gamma                 90.004491
_cell_volume                      1418.2736141

loop_
_atom_site_label
_atom_site_type_symbol
_atom_site_description
_atom_site_fract_x
_atom_site_fract_y
_atom_site_fract_z
_atom_type_partial_charge
O1    O     O_R   0.648180 0.355050 0.151550 -0.574682
O2    O     O_R   0.351820 0.644950 0.848450 -0.574400
O3    O     O_R   0.851820 0.855050 0.348450 -0.574382
O4    O     O_R   0.148180 0.144950 0.651550 -0.574392
O5    O     O_R   0.835240 0.681980 0.154280 -0.591348
O6    O     O_R   0.164760 0.318020 0.845720 -0.592034
O7    O     O_R   0.664760 0.181980 0.345720 -0.592001
O8    O     O_R   0.335240 0.818020 0.654280 -0.591991
H1    H     H_    0.642888 0.099551 0.850163 0.203286
H2    H     H_    0.357138 0.900295 0.149858 0.203081
H3    H     H_    0.857111 0.599226 0.649805 0.203038
H4    H     H_    0.142852 0.400122 0.350151 0.203124
C1    C     C_R   0.859636 0.515756 0.128104 0.993063
C2    C     C_R   0.140376 0.484246 0.871905 0.993490
C3    C     C_R   0.640372 0.015732 0.371901 0.993416
C4    C     C_R   0.359636 0.984265 0.628107 0.993450
O9    O     O_R   0.647870 0.684600 0.139630 -0.578585
O10   O     O_R   0.352130 0.315400 0.860370 -0.579204
O11   O     O_R   0.852130 0.184600 0.360370 -0.579271
O12   O     O_R   0.147870 0.815400 0.639630 -0.579178
O13   O     O_R   0.663110 0.857440 0.333700 -0.578707
O14   O     O_R   0.336890 0.142560 0.666300 -0.578683
O15   O     O_R   0.836890 0.357440 0.166300 -0.579291
O16   O     O_R   0.163110 0.642560 0.833700 -0.578608
C5    C     C_R   0.613844 0.516335 0.114865 1.052097
C6    C     C_R   0.386155 0.483671 0.885136 1.051762
C7    C     C_R   0.886151 0.016329 0.385141 1.051703
C8    C     C_R   0.113849 0.983670 0.614859 1.051847
H5    H     H_    0.491019 0.045481 0.765998 0.130995
H6    H     H_    0.508993 0.954510 0.234012 0.130931
H7    H     H_    0.008961 0.544829 0.733958 0.130884
H8    H     H_    0.991011 0.454432 0.265997 0.130980
O17   O     O_3   0.755220 0.522230 0.313690 -0.282410
O18   O     O_3   0.244780 0.477770 0.686310 -0.282364
O19   O     O_3   0.744780 0.022230 0.186310 -0.282303
O20   O     O_3   0.255220 0.977770 0.813690 -0.282355
V1    V     V_3+5 0.749030 0.796100 0.238190 1.243863
V2    V     V_3+5 0.250970 0.203900 0.761810 1.243330
V3    V     V_3+5 0.750970 0.296100 0.261810 1.243085
V4    V     V_3+5 0.249030 0.703900 0.738190 1.243350
C9    C     C_1   0.966604 0.005555 0.466068 -0.125117
C10   C     C_1   0.033400 0.994441 0.533927 -0.125118
C11   C     C_1   0.533410 0.505577 0.033912 -0.125190
C12   C     C_1   0.466614 0.494451 0.966054 -0.125583
H9    H     H_    0.233737 0.893608 0.247331 0.172622
H10   H     H_    0.766288 0.106127 0.752697 0.172649
H11   H     H_    0.266260 0.393494 0.252690 0.172653
H12   H     H_    0.733769 0.606917 0.747399 0.172235
C13   C     C_R   0.541483 0.050731 0.717179 -0.193259
C14   C     C_R   0.458531 0.949224 0.282834 -0.192774
C15   C     C_R   0.958519 0.550427 0.782798 -0.192802
C16   C     C_R   0.041472 0.449139 0.217177 -0.192822
C17   C     C_R   0.628743 0.082565 0.767175 -0.089413
C18   C     C_R   0.371277 0.917311 0.232843 -0.089858
C19   C     C_R   0.871269 0.582426 0.732808 -0.089644
C20   C     C_R   0.128720 0.417174 0.267167 -0.089947
C21   C     C_R   0.698010 0.086842 0.711596 -0.185407
C22   C     C_R   0.302012 0.912974 0.288425 -0.185401
C23   C     C_R   0.802042 0.587280 0.788439 -0.185403
C24   C     C_R   0.197989 0.412872 0.211590 -0.185358
C25   C     C_R   0.681493 0.057016 0.604843 0.332626
C26   C     C_R   0.318528 0.942821 0.395176 0.332735
C27   C     C_R   0.818592 0.557796 0.895217 0.333150
C28   C     C_R   0.181484 0.442792 0.104842 0.332635
C29   C     C_R   0.591589 0.029818 0.549613 -0.049308
C30   C     C_R   0.408427 0.970113 0.450401 -0.049314
C31   C     C_R   0.908458 0.530127 0.950416 -0.049649
C32   C     C_R   0.091587 0.470092 0.049614 -0.049311
C33   C     C_R   0.520378 0.025630 0.608530 0.100782
C34   C     C_R   0.479635 0.974336 0.391482 0.100775
C35   C     C_R   0.979643 0.525596 0.891473 0.100834
C36   C     C_R   0.020377 0.474324 0.108532 0.101044
C37   C     C_R   0.570390 0.006021 0.439709 -0.252714
C38   C     C_R   0.429622 0.993959 0.560302 -0.252742
C39   C     C_R   0.929635 0.506151 0.060310 -0.253082
C40   C     C_R   0.070392 0.493899 0.939707 -0.252723
N1    N     N_R   0.758780 0.038738 0.557605 0.193043
O21   O     O_R   0.783348 0.873614 0.536459 -0.470927
O22   O     O_R   0.818520 0.169837 0.570406 -0.449044
N2    N     N_R   0.241242 0.960977 0.442424 0.193031
O23   O     O_R   0.216582 0.126080 0.463500 -0.471115
O24   O     O_R   0.181585 0.829701 0.429719 -0.448861
N3    N     N_R   0.741338 0.540716 0.942591 0.193028
O25   O     O_R   0.682568 0.673720 0.930908 -0.447856
O26   O     O_R   0.715636 0.375809 0.962660 -0.471842
N4    N     N_R   0.258776 0.461061 0.057609 0.193051
O27   O     O_R   0.318488 0.329915 0.070376 -0.448920
O28   O     O_R   0.283369 0.626179 0.036465 -0.470972

loop_
_geom_bond_atom_site_label_1
_geom_bond_atom_site_label_2
_geom_bond_distance
_ccdc_geom_bond_type
C22   C26   1.398833 A    
O5    V1    2.027290 S    
C9    C10   1.223999 T    
O10   C6    1.342794 A    
C5    C11   1.466954 S    
C6    C12   1.466964 S    
H5    C13   1.080799 S    
N1    O21   1.299803 A    
C14   C18   1.382159 A    
C4    C38   1.500572 S    
C28   C32   1.433603 A    
C26   N2    1.422003 S    
O19   V1    1.774975 S    
C19   C23   1.378610 A    
C35   C40   1.421387 A    
O12   V4    1.990034 S    
N4    O28   1.299767 A    
C31   C35   1.432850 A    
C30   C38   1.434542 A    
C29   C37   1.434538 A    
C1    O15   1.324118 A    
C2    O16   1.324097 A    
H8    C16   1.080799 S    
H11   C24   1.083717 S    
O17   V3    1.775107 S    
C1    C39   1.500615 S    
C25   N1    1.422020 S    
O6    V2    2.027291 S    
O11   C7    1.342790 A    
O5    C1    1.325311 A    
O7    C3    1.325329 A    
H6    C14   1.080801 S    
O8    C4    1.325317 A    
C13   C33   1.419686 A    
O1    C5    1.335575 A    
H1    C17   1.081533 S    
C15   C35   1.419751 A    
C36   C39   1.421404 A    
C28   N4    1.422028 S    
O4    C8    1.335568 A    
N1    O22   1.301072 A    
C27   C31   1.433448 A    
H9    C22   1.083723 S    
C26   C30   1.433600 A    
N2    O24   1.301164 A    
C17   C21   1.378563 A    
N4    O27   1.301107 A    
O12   C8    1.342784 A    
C20   C24   1.378576 A    
C27   N3    1.421804 S    
C2    C40   1.500522 S    
C11   C12   1.224000 T    
C16   C36   1.419667 A    
C25   C29   1.433603 A    
O6    C2    1.325300 A    
C7    C9    1.466960 S    
N3    O25   1.301584 A    
C32   C36   1.432897 A    
C34   C37   1.421409 A    
C33   C38   1.421417 A    
O2    C6    1.335538 A    
O9    V1    1.990055 S    
H4    C20   1.081504 S    
O11   V3    1.990033 S    
N3    O26   1.300176 A    
O4    V2    1.972310 S    
H10   C21   1.083719 S    
O18   V4    1.775108 S    
C31   C39   1.434529 A    
H3    C19   1.081546 S    
H12   C23   1.083726 S    
C18   C22   1.378571 A    
C29   C33   1.432887 A    
C4    O14   1.324114 A    
C8    C10   1.466959 S    
C3    C37   1.500561 S    
H7    C15   1.080820 S    
N2    O23   1.299872 A    
C21   C25   1.398839 A    
C32   C40   1.434553 A    
C23   C27   1.398737 A    
C24   C28   1.398836 A    
O9    C5    1.342757 A    
O20   V2    1.774975 S    
C14   C34   1.419687 A    
C30   C34   1.432880 A    
C13   C17   1.382163 A    
O3    C7    1.335561 A    
O16   V4    2.009658 S    
C15   C19   1.382213 A    
O10   V2    1.990054 S    
H2    C18   1.081515 S    
O1    V3    1.972292 S    
O2    V4    1.972289 S    
C3    O13   1.324102 A    
O13   V1    2.009764 S    
O3    V1    1.972308 S    
O7    V3    2.027107 S    
O8    V4    2.027104 S    
O15   V3    2.009656 S    
C16   C20   1.382145 A    
O14   V2    2.009763 S    
