data_mof_unit_44954.cif
_audit_creation_date              2013-03-05T15:47:46-0500
_audit_creation_method            fapswitch 2.2
_symmetry_space_group_name_H-M    P1
_symmetry_Int_Tables_number       1
_space_group_crystal_system       triclinic
_cell_length_a                    10.84453
_cell_length_b                    12.988071
_cell_length_c                    11.659804
_cell_angle_alpha                 99.825502
_cell_angle_beta                  93.623013
_cell_angle_gamma                 88.851278
_cell_volume                      1614.88326371

loop_
_atom_site_label
_atom_site_type_symbol
_atom_site_description
_atom_site_fract_x
_atom_site_fract_y
_atom_site_fract_z
_atom_type_partial_charge
O1    O     O_R   0.506570 0.354460 0.582000 -0.598746
O2    O     O_R   0.493430 0.645540 0.418000 -0.573003
O3    O     O_R   0.490940 0.341410 0.386200 -0.577555
O4    O     O_R   0.509060 0.658590 0.613800 -0.600283
C1    C     C_R   0.496522 0.299130 0.478834 0.777051
C2    C     C_R   0.505103 0.700809 0.521274 0.777040
O5    O     O_R   0.327470 0.506520 0.597900 -0.598156
O6    O     O_R   0.672530 0.493480 0.402100 -0.535023
O7    O     O_R   0.311840 0.493460 0.402100 -0.533322
O8    O     O_R   0.688160 0.506540 0.597900 -0.597697
C3    C     C_R   0.262710 0.508782 0.501186 0.816854
C4    C     C_R   0.737158 0.491154 0.498079 0.813130
Cu1   Cu    Cu3+1 0.509250 0.507730 0.615930 0.934453
Cu2   Cu    Cu3+1 0.490750 0.492270 0.384070 1.009064
C5    C     C_R   0.104683 0.699349 0.493785 -0.067411
C6    C     C_R   0.891526 0.297888 0.447206 -0.060280
C7    C     C_R   0.036040 0.790141 0.530292 -0.168173
C8    C     C_R   0.962491 0.210767 0.467076 -0.193442
C9    C     C_R   0.914263 0.784006 0.557766 0.196146
C10   C     C_R   0.087088 0.220631 0.502174 0.213445
C11   C     C_R   0.858916 0.686446 0.545076 -0.218412
C12   C     C_R   0.142750 0.318142 0.511644 -0.199850
C13   C     C_R   0.927939 0.592979 0.514423 0.029347
C14   C     C_R   0.072002 0.408609 0.497356 0.020657
C15   C     C_R   0.055764 0.599125 0.500125 0.062537
C16   C     C_R   0.942583 0.400272 0.477384 0.061101
C17   C     C_R   0.870873 0.494003 0.494905 -0.130344
C18   C     C_R   0.128459 0.506386 0.499715 -0.136529
H1    H     H_    0.074472 0.866501 0.529502 0.149437
H2    H     H_    0.922724 0.133272 0.448219 0.148073
H3    H     H_    0.762014 0.685353 0.560996 0.134601
H4    H     H_    0.241257 0.322367 0.531856 0.130814
C19   C     C_R   0.511253 0.814071 0.533549 -0.078197
C20   C     C_R   0.494696 0.185774 0.466815 -0.078546
C21   C     C_R   0.480127 0.015475 0.344860 -0.200030
C22   C     C_R   0.528577 0.984284 0.655471 -0.212372
C23   C     C_R   0.477762 0.123635 0.356147 -0.179778
C24   C     C_R   0.526699 0.876116 0.644395 -0.218206
C25   C     C_R   0.512571 0.139163 0.566395 -0.294899
C26   C     C_R   0.498911 0.860737 0.433693 -0.279817
C27   C     C_R   0.513365 0.031060 0.555943 0.178778
C28   C     C_R   0.497904 0.968784 0.444228 0.170747
H5    H     H_    0.486909 0.813210 0.347814 0.168639
H6    H     H_    0.525474 0.186756 0.652147 0.160719
H7    H     H_    0.537198 0.841185 0.722458 0.161865
H8    H     H_    0.463810 0.158540 0.278278 0.164804
H9    H     H_    0.467583 0.968489 0.258808 0.140979
H10   H     H_    0.540596 0.031221 0.741588 0.141538
N1    N     N_R   0.523180 0.519350 0.790130 -0.182267
N2    N     N_R   0.476820 0.480650 0.209870 -0.168195
C29   C     C_R   0.389470 0.399500 0.021588 -0.330061
C30   C     C_R   0.610534 0.600500 0.978423 -0.324169
C31   C     C_R   0.399282 0.409395 0.143889 0.140062
C32   C     C_R   0.600722 0.590612 0.856118 0.095695
C33   C     C_R   0.546638 0.543824 0.157197 0.081014
C34   C     C_R   0.453363 0.456169 0.842810 0.037641
C35   C     C_R   0.539856 0.536614 0.034311 0.059687
C36   C     C_R   0.460151 0.463379 0.965700 0.063235
H11   H     H_    0.392004 0.400293 0.789178 0.119977
H12   H     H_    0.607987 0.599695 0.210831 0.116808
H13   H     H_    0.655363 0.640311 0.813910 0.124670
H14   H     H_    0.344642 0.359708 0.186097 0.123303
H15   H     H_    0.327218 0.342288 0.971259 0.139913
H16   H     H_    0.672782 0.657713 0.028754 0.142813
N3    N     N_3   0.157668 0.129179 0.519162 -0.584425
H17   H     H_    0.122325 0.100848 0.589035 0.215381
H18   H     H_    0.249434 0.148911 0.544462 0.221075
N4    N     N_3   0.844754 0.877984 0.590791 -0.596114
H19   H     H_    0.771115 0.879534 0.528760 0.232839
H20   H     H_    0.808002 0.874826 0.670903 0.222827
C37   C     C_2   0.212867 0.715232 0.429215 0.353577
H21   H     H_    0.271685 0.781488 0.460802 0.061998
O9    O     O_2   0.227605 0.663392 0.333386 -0.505978
C38   C     C_2   0.776423 0.273648 0.374388 0.354613
H22   H     H_    0.720169 0.209447 0.387931 0.060311
O10   O     O_2   0.751685 0.316113 0.290053 -0.507976

loop_
_geom_bond_atom_site_label_1
_geom_bond_atom_site_label_2
_geom_bond_distance
_ccdc_geom_bond_type
C20   C23   1.403817 A    
C7    H1    1.085164 S    
C27   C28   1.413257 A    
C21   H9    1.083851 S    
C25   C27   1.388361 A    
C15   C18   1.425752 A    
O5    C3    1.294643 A    
C11   H3    1.079405 S    
C16   C17   1.423290 A    
C12   H4    1.079741 S    
C6    C38   1.472643 S    
C9    C11   1.393929 A    
C14   C16   1.411355 A    
C5    C15   1.430685 A    
N1    C32   1.364609 A    
O4    Cu1   1.963728 S    
C21   C28   1.397925 A    
C24   H7    1.083059 S    
C26   H5    1.084641 S    
N4    H19   1.045265 S    
N3    H18   1.044200 S    
C8    H2    1.085016 S    
C13   C17   1.414768 A    
C26   C28   1.387532 A    
Cu1   Cu2   2.671509 S    
C22   C27   1.398364 A    
O2    C2    1.292544 A    
O8    C4    1.292850 A    
C30   C32   1.407241 A    
C6    C16   1.429631 A    
C19   C26   1.399556 A    
C38   H22   1.081616 S    
C4    C17   1.454260 S    
C20   C25   1.399619 A    
N2    C31   1.364498 A    
C14   C18   1.416141 A    
C10   N3    1.435475 S    
C29   H15   1.083277 S    
O4    C2    1.288998 A    
C30   H16   1.083271 S    
C37   O9    1.220188 D    
C29   C31   1.407181 A    
O7    Cu2   1.964186 S    
C31   H14   1.081819 S    
O6    C4    1.286877 A    
C1    C20   1.455344 S    
C9    N4    1.430283 S    
C29   C36   1.404882 A    
O7    C3    1.285809 A    
O3    Cu2   1.963730 S    
C38   O10   1.220219 D    
Cu1   N1    2.007147 S    
N4    H20   1.045870 S    
C10   C12   1.398230 A    
C33   C35   1.417157 A    
C12   C14   1.418273 A    
O1    Cu1   1.962716 S    
O1    C1    1.291040 A    
C5    C7    1.399779 A    
O6    Cu2   1.969334 S    
C21   C23   1.388276 A    
N2    C33   1.370891 A    
O3    C1    1.290217 A    
O8    Cu1   1.964186 S    
C2    C19   1.455961 S    
C25   H6    1.084541 S    
C32   H13   1.081931 S    
N1    C34   1.371000 A    
C5    C37   1.469731 S    
C19   C24   1.403718 A    
C34   H11   1.082767 S    
C11   C13   1.418098 A    
C37   H21   1.080358 S    
C35   C36   1.406315 A    
Cu2   N2    2.007147 S    
C3    C18   1.455808 S    
C22   C24   1.389143 A    
C7    C9    1.385418 A    
C34   C36   1.417198 A    
C22   H10   1.083786 S    
C8    C10   1.388807 A    
C13   C15   1.412061 A    
O2    Cu2   1.962714 S    
C30   C35   1.404911 A    
O5    Cu1   1.969333 S    
C6    C8    1.399411 A    
N3    H17   1.045700 S    
C23   H8    1.083118 S    
C33   H12   1.082672 S    
